REMARK  11 active torsions:
REMARK  status: ('A' for Active; 'I' for Inactive)
REMARK    1  A    between atoms: C6_3  and  N6_30 
REMARK    2  A    between atoms: CA_10  and  CB_8 
REMARK    3  A    between atoms: CA_10  and  N_11 
REMARK    4  A    between atoms: C_12  and  CA_10 
REMARK       I    between atoms: NAP_14  and  C_12 
REMARK    5  A    between atoms: SBD_15  and  NAP_14 
REMARK    6  A    between atoms: O5'_18  and  SBD_15 
REMARK    7  A    between atoms: C5'_19  and  O5'_18 
REMARK    8  A    between atoms: C4'_20  and  C5'_19 
REMARK    9  A    between atoms: C3'_22  and  O3'_23 
REMARK   10  A    between atoms: C2'_24  and  O2'_25 
REMARK   11  A    between atoms: C1'_26  and  N9_27 
ROOT
ATOM      1  C4' MOL d          13.039  10.393   1.811  0.00  0.00     0.180 C 
ATOM      2  O4' MOL d          13.296  10.881   0.453  0.00  0.00    -0.353 OA
ATOM      3  C3' MOL d          13.598   8.969   1.886  0.00  0.00     0.182 C 
ATOM      4  C2' MOL d          14.449   8.864   0.624  0.00  0.00     0.198 C 
ATOM      5  C1' MOL d          13.649   9.755  -0.333  0.00  0.00     0.262 C 
ENDROOT
BRANCH   1   6
ATOM      6  C5' MOL d          13.786  11.253   2.806  0.00  0.00     0.226 C 
BRANCH   6   7
ATOM      7  O5' MOL d          15.216  11.164   2.581  0.00  0.00    -0.257 OA
BRANCH   7   8
ATOM      8  SBD MOL d          16.137  11.692   3.567  0.00  0.00     0.364 S 
ATOM      9  OAF MOL d          17.495  11.347   3.061  0.00  0.00    -0.175 OA
ATOM     10  OAG MOL d          15.889  13.183   3.673  0.00  0.00    -0.175 OA
BRANCH   8  11
ATOM     11  NAP MOL d          15.972  10.984   5.040  0.00  0.00    -0.230 N 
ATOM     12  C   MOL d          16.004   9.655   5.225  0.00  0.00     0.263 C 
ATOM     13  O   MOL d          16.160   8.836   4.315  0.00  0.00    -0.270 OA
ATOM     14  H13 MOL d          15.841  11.572   5.838  0.00  0.00     0.183 HD
BRANCH  12  15
ATOM     15  CA  MOL d          15.894   9.184   6.710  0.00  0.00     0.279 C 
BRANCH  15  16
ATOM     16  CB  MOL d          14.450   8.968   7.217  0.00  0.00     0.017 C 
ATOM     17  CG2 MOL d          13.548   8.375   6.145  0.00  0.00     0.012 C 
ATOM     18  CG1 MOL d          13.854  10.273   7.746  0.00  0.00     0.012 C 
ENDBRANCH  15  16
BRANCH  15  19
ATOM     19  N   MOL d          16.732   7.969   6.939  0.00  0.00    -0.066 N 
ATOM     20  H10 MOL d          17.666   8.137   6.600  0.00  0.00     0.275 HD
ATOM     21  H11 MOL d          16.331   7.186   6.446  0.00  0.00     0.275 HD
ATOM     22  H12 MOL d          16.764   7.764   7.925  0.00  0.00     0.275 HD
ENDBRANCH  15  19
ENDBRANCH  12  15
ENDBRANCH   8  11
ENDBRANCH   7   8
ENDBRANCH   6   7
ENDBRANCH   1   6
BRANCH   3  23
ATOM     23  O3' MOL d          12.501   8.107   1.810  0.00  0.00    -0.390 OA
ATOM     24  H18 MOL d          12.803   7.207   1.853  0.00  0.00     0.210 HD
ENDBRANCH   3  23
BRANCH   5  25
ATOM     25  N9  MOL d          14.492  10.166  -1.498  0.00  0.00    -0.294 N 
ATOM     26  C4  MOL d          14.144   9.947  -2.761  0.00  0.00     0.167 A 
ATOM     27  C5  MOL d          15.159  10.464  -3.572  0.00  0.00     0.149 A 
ATOM     28  N3  MOL d          13.054   9.365  -3.304  0.00  0.00    -0.222 NA
ATOM     29  C6  MOL d          15.016  10.325  -4.947  0.00  0.00     0.155 A 
ATOM     30  N7  MOL d          16.100  10.970  -2.765  0.00  0.00    -0.236 NA
ATOM     31  N1  MOL d          13.895   9.724  -5.430  0.00  0.00    -0.222 NA
ATOM     32  C2  MOL d          12.940   9.263  -4.628  0.00  0.00     0.237 A 
ATOM     33  C8  MOL d          15.688  10.793  -1.494  0.00  0.00     0.214 A 
BRANCH  29  34
ATOM     34  N6  MOL d          15.957  10.762  -5.782  0.00  0.00    -0.382 N 
ATOM     35  H23 MOL d          15.835  10.651  -6.799  0.00  0.00     0.157 HD
ATOM     36  H24 MOL d          16.807  11.211  -5.411  0.00  0.00     0.157 HD
ENDBRANCH  29  34
ENDBRANCH   5  25
BRANCH   4  37
ATOM     37  O2' MOL d          14.561   7.513   0.116  0.00  0.00    -0.388 OA
ATOM     38  H20 MOL d          13.696   7.182  -0.095  0.00  0.00     0.210 HD
ENDBRANCH   4  37
TORSDOF 11
