REMARK  11 active torsions:
REMARK  status: ('A' for Active; 'I' for Inactive)
REMARK    1  A    between atoms: N1_1  and  C2_2 
REMARK       I    between atoms: N1_1  and  C3_3 
REMARK    2  A    between atoms: N1_1  and  C4_4 
REMARK    3  A    between atoms: C3_3  and  C7_7 
REMARK    4  A    between atoms: C4_4  and  C9_9 
REMARK    5  A    between atoms: C7_7  and  N10_10 
REMARK    6  A    between atoms: C7_7  and  C11_11 
REMARK    7  A    between atoms: N10_10  and  S14_14 
REMARK    8  A    between atoms: C11_11  and  C15_15 
REMARK    9  A    between atoms: S14_14  and  C16_16 
REMARK       I    between atoms: C15_15  and  N19_19 
REMARK   10  A    between atoms: N19_19  and  C23_23 
REMARK   11  A    between atoms: C23_23  and  C26_26 
REMARK       I    between atoms: N33_33  and  C37_37 
REMARK       I    between atoms: C37_37  and  N38_38 
ROOT
ATOM      1  C7  N5N d          16.946 -15.160  22.165  0.00  0.00     0.194 C 
ENDROOT
BRANCH   1   2
ATOM      2  C3  N5N d          16.879 -13.615  22.019  0.00  0.00     0.244 C 
ATOM      3  N1  N5N d          17.737 -12.975  21.127  0.00  0.00    -0.336 N 
ATOM      4  O8  N5N d          16.058 -12.975  22.691  0.00  0.00    -0.271 OA
BRANCH   3   5
ATOM      5  C2  N5N d          18.683 -13.722  20.352  0.00  0.00     0.088 A 
ATOM      6  C5  N5N d          20.070 -13.147  20.065  0.00  0.00     0.027 A 
ATOM      7  C6  N5N d          19.920 -14.328  20.977  0.00  0.00     0.027 A 
ENDBRANCH   3   5
BRANCH   3   8
ATOM      8  C4  N5N d          17.659 -11.582  20.844  0.00  0.00     0.239 C 
BRANCH   8   9
ATOM      9  C9  N5N d          16.666 -11.627  19.679  0.00  0.00     0.191 C 
ATOM     10  O12 N5N d          16.590 -10.557  18.856  0.00  0.00    -0.647 OA
ATOM     11  O13 N5N d          15.920 -12.553  19.365  0.00  0.00    -0.647 OA
ENDBRANCH   8   9
ENDBRANCH   3   8
ENDBRANCH   1   2
BRANCH   1  12
ATOM     12  N10 N5N d          16.485 -15.646  23.411  0.00  0.00    -0.301 N 
ATOM     13  H9  N5N d          15.630 -15.325  23.819  0.00  0.00     0.173 HD
BRANCH  12  14
ATOM     14  S14 N5N d          17.412 -16.746  24.138  0.00  0.00     0.259 S 
ATOM     15  O17 N5N d          16.688 -17.072  25.291  0.00  0.00    -0.201 OA
ATOM     16  O18 N5N d          17.662 -17.684  23.135  0.00  0.00    -0.201 OA
BRANCH  14  17
ATOM     17  C16 N5N d          18.743 -15.826  24.575  0.00  0.00     0.080 A 
ATOM     18  C21 N5N d          20.040 -16.017  24.153  0.00  0.00     0.037 A 
ATOM     19  C24 N5N d          21.057 -15.140  24.618  0.00  0.00    -0.025 A 
ATOM     20  C27 N5N d          20.748 -14.080  25.510  0.00  0.00    -0.026 A 
ATOM     21  C28 N5N d          22.399 -15.294  24.212  0.00  0.00     0.012 A 
ATOM     22  C25 N5N d          19.433 -13.899  25.925  0.00  0.00     0.014 A 
ATOM     23  C31 N5N d          21.761 -13.202  25.970  0.00  0.00     0.012 A 
ATOM     24  C22 N5N d          18.475 -14.750  25.465  0.00  0.00     0.026 A 
ATOM     25  C35 N5N d          23.047 -13.379  25.547  0.00  0.00     0.001 A 
ATOM     26  C32 N5N d          23.363 -14.435  24.658  0.00  0.00     0.001 A 
ENDBRANCH  14  17
ENDBRANCH  12  14
ENDBRANCH   1  12
BRANCH   1  27
ATOM     27  C11 N5N d          15.977 -15.656  21.055  0.00  0.00     0.138 C 
BRANCH  27  28
ATOM     28  C15 N5N d          14.484 -15.331  21.312  0.00  0.00     0.220 C 
ATOM     29  N19 N5N d          13.887 -14.227  20.723  0.00  0.00    -0.361 N 
ATOM     30  H12 N5N d          14.449 -13.632  20.149  0.00  0.00     0.162 HD
ATOM     31  O20 N5N d          13.786 -16.085  22.030  0.00  0.00    -0.274 OA
BRANCH  29  32
ATOM     32  C23 N5N d          12.499 -13.898  20.899  0.00  0.00     0.128 C 
BRANCH  32  33
ATOM     33  C26 N5N d          12.190 -12.450  21.333  0.00  0.00     0.022 C 
ATOM     34  C29 N5N d          12.576 -12.316  22.809  0.00  0.00     0.147 C 
ATOM     35  N33 N5N d          12.438 -10.966  23.338  0.00  0.00    -0.218 N 
ATOM     36  C36 N5N d          13.038  -9.916  22.512  0.00  0.00     0.141 C 
ATOM     37  C37 N5N d          11.225 -10.771  24.116  0.00  0.00     0.667 C 
ATOM     38  C34 N5N d          12.688 -10.032  21.030  0.00  0.00     0.021 C 
ATOM     39  C30 N5N d          12.971 -11.434  20.502  0.00  0.00     0.009 C 
ATOM     40  N38 N5N d          10.460 -11.953  24.333  0.00  0.00    -0.235 N 
ATOM     41  N39 N5N d          10.886  -9.605  24.572  0.00  0.00    -0.235 N 
ATOM     42  H31 N5N d           9.585 -11.908  24.874  0.00  0.00     0.174 HD
ATOM     43  H32 N5N d          10.782 -12.853  23.949  0.00  0.00     0.174 HD
ATOM     44  H33 N5N d          11.480  -8.785  24.383  0.00  0.00     0.174 HD
ATOM     45  H34 N5N d          10.023  -9.499  25.124  0.00  0.00     0.174 HD
ENDBRANCH  32  33
ENDBRANCH  29  32
ENDBRANCH  27  28
ENDBRANCH   1  27
TORSDOF 11
