REMARK  8 active torsions:
REMARK  status: ('A' for Active; 'I' for Inactive)
REMARK       I    between atoms: CAG_2  and  NAI_4 
REMARK    1  A    between atoms: NAI_4  and  CAB_5 
REMARK    2  A    between atoms: CAC_6  and  OAJ_7 
REMARK    3  A    between atoms: CAD_8  and  OAK_9 
REMARK    4  A    between atoms: CAE_10  and  CAF_11 
REMARK    5  A    between atoms: CAF_11  and  OAM_12 
REMARK    6  A    between atoms: NAY_15  and  OAQ_16 
REMARK    7  A    between atoms: OAQ_16  and  CAP_17 
REMARK       I    between atoms: CAP_17  and  NAO_19 
REMARK    8  A    between atoms: NAO_19  and  CAS_20 
ROOT
ATOM      1  CAB OAN d          20.640  36.336  55.107  0.00  0.00     0.194 C 
ATOM      2  CAC OAN d          19.881  36.517  53.774  0.00  0.00     0.180 C 
ATOM      3  CAD OAN d          20.780  36.185  52.583  0.00  0.00     0.180 C 
ATOM      4  CAE OAN d          21.244  34.731  52.686  0.00  0.00     0.185 C 
ATOM      5  OAL OAN d          22.014  34.516  53.843  0.00  0.00    -0.324 OA
ATOM      6  CAA OAN d          21.824  35.354  54.934  0.00  0.00     0.194 C 
ATOM      7  NAY OAN d          22.752  35.268  55.892  0.00  0.00    -0.100 NA
ENDROOT
BRANCH   1   8
ATOM      8  NAI OAN d          19.699  35.861  56.133  0.00  0.00    -0.347 N 
ATOM      9  CAG OAN d          19.233  34.611  56.218  0.00  0.00     0.214 C 
ATOM     10  CAH OAN d          18.233  34.406  57.362  0.00  0.00     0.117 C 
ATOM     11  OAN OAN d          19.506  33.689  55.436  0.00  0.00    -0.274 OA
ATOM     12  H4  OAN d          19.385  36.521  56.816  0.00  0.00     0.163 HD
ENDBRANCH   1   8
BRANCH   7  13
ATOM     13  OAQ OAN d          23.779  34.393  55.605  0.00  0.00    -0.153 OA
BRANCH  13  14
ATOM     14  CAP OAN d          24.900  34.616  56.348  0.00  0.00     0.389 C 
ATOM     15  OAR OAN d          25.744  33.726  56.479  0.00  0.00    -0.236 OA
ATOM     16  NAO OAN d          25.001  35.820  56.917  0.00  0.00    -0.301 N 
ATOM     17  H14 OAN d          24.281  36.480  56.703  0.00  0.00     0.171 HD
BRANCH  16  18
ATOM     18  CAS OAN d          25.974  36.234  57.750  0.00  0.00     0.036 A 
ATOM     19  CAT OAN d          25.623  36.492  59.091  0.00  0.00     0.029 A 
ATOM     20  CAU OAN d          26.570  36.928  60.010  0.00  0.00     0.002 A 
ATOM     21  CAV OAN d          27.879  37.122  59.579  0.00  0.00     0.000 A 
ATOM     22  CAW OAN d          28.249  36.874  58.241  0.00  0.00     0.002 A 
ATOM     23  CAX OAN d          27.299  36.426  57.313  0.00  0.00     0.029 A 
ENDBRANCH  16  18
ENDBRANCH  13  14
ENDBRANCH   7  13
BRANCH   2  24
ATOM     24  OAJ OAN d          19.289  37.825  53.657  0.00  0.00    -0.390 OA
ATOM     25  H7  OAN d          18.834  37.892  52.826  0.00  0.00     0.210 HD
ENDBRANCH   2  24
BRANCH   4  26
ATOM     26  CAF OAN d          22.189  34.263  51.622  0.00  0.00     0.199 C 
BRANCH  26  27
ATOM     27  OAM OAN d          23.427  34.961  51.733  0.00  0.00    -0.398 OA
ATOM     28  H13 OAN d          23.808  34.794  52.587  0.00  0.00     0.209 HD
ENDBRANCH  26  27
ENDBRANCH   4  26
BRANCH   3  29
ATOM     29  OAK OAN d          20.026  36.353  51.399  0.00  0.00    -0.390 OA
ATOM     30  H9  OAN d          19.726  37.252  51.341  0.00  0.00     0.210 HD
ENDBRANCH   3  29
TORSDOF 8
