REMARK  16 active torsions:
REMARK  status: ('A' for Active; 'I' for Inactive)
REMARK    1  A    between atoms: N_1  and  CA_2 
REMARK    2  A    between atoms: CA_2  and  C_3 
REMARK       I    between atoms: C_3  and  N_6 
REMARK    3  A    between atoms: N_6  and  CA_7 
REMARK    4  A    between atoms: CA_7  and  C_8 
REMARK       I    between atoms: C_8  and  N_11 
REMARK    5  A    between atoms: N_11  and  CA_12 
REMARK    6  A    between atoms: CA_12  and  C_13 
REMARK    7  A    between atoms: CA_12  and  CB_15 
REMARK       I    between atoms: C_13  and  N_17 
REMARK    8  A    between atoms: CB_15  and  OG_16 
REMARK    9  A    between atoms: N_17  and  CA_18 
REMARK   10  A    between atoms: CA_18  and  C_19 
REMARK       I    between atoms: C_19  and  N_22 
REMARK   11  A    between atoms: N_22  and  CA_23 
REMARK   12  A    between atoms: CA_23  and  C_24 
REMARK   13  A    between atoms: CA_23  and  CB_26 
REMARK       I    between atoms: C_24  and  N_28 
REMARK   14  A    between atoms: CB_26  and  OG_27 
REMARK   15  A    between atoms: N_28  and  CA_29 
REMARK   16  A    between atoms: CA_29  and  C_30 
ROOT
ATOM      1  C   ALA d          -1.979  19.368   3.059  0.00  0.00     0.243 C 
ATOM      2  O   ALA d          -2.985  19.833   2.518  0.00  0.00    -0.271 OA
ATOM      3  N   ALA d          -2.008  18.642   4.175  0.00  0.00    -0.346 N 
ATOM      4  H18 ALA d          -1.141  18.332   4.566  0.00  0.00     0.163 HD
ENDROOT
BRANCH   1   5
ATOM      5  CA  ALA d          -0.596  19.601   2.455  0.00  0.00     0.200 C 
BRANCH   5   6
ATOM      6  N   ALA d          -0.707  19.797   1.025  0.00  0.00    -0.344 N 
ATOM      7  C   ALA d          -0.458  18.820   0.161  0.00  0.00     0.240 C 
ATOM      8  O   ALA d          -0.254  17.661   0.505  0.00  0.00    -0.271 OA
ATOM      9  H13 ALA d          -0.979  20.694   0.678  0.00  0.00     0.163 HD
BRANCH   7  10
ATOM     10  CA  ALA d          -0.427  19.225  -1.309  0.00  0.00     0.172 C 
ATOM     11  CB  ALA d           0.839  20.018  -1.596  0.00  0.00     0.042 C 
BRANCH  10  12
ATOM     12  N   ALA d          -1.592  20.046  -1.611  0.00  0.00    -0.346 N 
ATOM     13  C   ALA d          -2.690  19.561  -2.186  0.00  0.00     0.248 C 
ATOM     14  O   ALA d          -2.769  18.418  -2.654  0.00  0.00    -0.271 OA
ATOM     15  H8  ALA d          -1.565  21.018  -1.376  0.00  0.00     0.163 HD
BRANCH  13  16
ATOM     16  CA  ALA d          -3.875  20.511  -2.277  0.00  0.00     0.270 C 
ATOM     17  CB  ALA d          -4.153  20.861  -3.716  0.00  0.00     0.050 C 
BRANCH  16  18
ATOM     18  N   ALA d          -3.691  21.761  -1.465  0.00  0.00    -0.067 N 
ATOM     19  H1  ALA d          -4.504  22.349  -1.564  0.00  0.00     0.275 HD
ATOM     20  H2  ALA d          -2.876  22.257  -1.791  0.00  0.00     0.275 HD
ATOM     21  H3  ALA d          -3.569  21.517  -0.495  0.00  0.00     0.275 HD
ENDBRANCH  16  18
ENDBRANCH  13  16
ENDBRANCH  10  12
ENDBRANCH   7  10
ENDBRANCH   5   6
BRANCH   5  22
ATOM     22  CB  ALA d           0.098  20.811   3.086  0.00  0.00     0.199 C 
BRANCH  22  23
ATOM     23  OG  ALA d           1.362  21.045   2.455  0.00  0.00    -0.398 OA
ATOM     24  H17 ALA d           1.780  21.798   2.856  0.00  0.00     0.209 HD
ENDBRANCH  22  23
ENDBRANCH   5  22
ENDBRANCH   1   5
BRANCH   3  25
ATOM     25  CA  ALA d          -3.252  18.277   4.854  0.00  0.00     0.172 C 
ATOM     26  CB  ALA d          -3.466  16.762   4.787  0.00  0.00     0.042 C 
BRANCH  25  27
ATOM     27  C   ALA d          -3.212  18.706   6.306  0.00  0.00     0.240 C 
ATOM     28  O   ALA d          -2.157  18.686   6.939  0.00  0.00    -0.271 OA
ATOM     29  N   ALA d          -4.380  19.065   6.831  0.00  0.00    -0.344 N 
ATOM     30  H23 ALA d          -5.142  19.279   6.220  0.00  0.00     0.163 HD
BRANCH  29  31
ATOM     31  CA  ALA d          -4.580  19.155   8.273  0.00  0.00     0.200 C 
BRANCH  31  32
ATOM     32  C   ALA d          -4.113  17.843   8.917  0.00  0.00     0.243 C 
ATOM     33  O   ALA d          -4.514  16.756   8.495  0.00  0.00    -0.271 OA
ATOM     34  N   ALA d          -3.241  17.938   9.911  0.00  0.00    -0.345 N 
ATOM     35  H28 ALA d          -2.892  18.838  10.171  0.00  0.00     0.163 HD
BRANCH  34  36
ATOM     36  CA  ALA d          -2.782  16.760  10.631  0.00  0.00     0.181 C 
ATOM     37  CB  ALA d          -2.594  15.557   9.682  0.00  0.00     0.043 C 
BRANCH  36  38
ATOM     38  C   ALA d          -1.502  17.028  11.381  0.00  0.00     0.196 C 
ATOM     39  O   ALA d          -0.995  16.111  12.081  0.00  0.00    -0.646 OA
ATOM     40  O30 ALA d          -0.946  18.156  11.309  0.00  0.00    -0.646 OA
ENDBRANCH  36  38
ENDBRANCH  34  36
ENDBRANCH  31  32
BRANCH  31  41
ATOM     41  CB  ALA d          -6.064  19.404   8.597  0.00  0.00     0.199 C 
BRANCH  41  42
ATOM     42  OG  ALA d          -6.512  20.685   8.142  0.00  0.00    -0.398 OA
ATOM     43  H27 ALA d          -7.429  20.795   8.363  0.00  0.00     0.209 HD
ENDBRANCH  41  42
ENDBRANCH  31  41
ENDBRANCH  29  31
ENDBRANCH  25  27
ENDBRANCH   3  25
TORSDOF 16
