REMARK  10 active torsions:
REMARK  status: ('A' for Active; 'I' for Inactive)
REMARK    1  A    between atoms: CAL_2  and  CAX_3 
REMARK    2  A    between atoms: CAX_3  and  CAM_4 
REMARK    3  A    between atoms: CAX_3  and  OAR_6 
REMARK    4  A    between atoms: OAR_6  and  CAZ_7 
REMARK    5  A    between atoms: CBA_8  and  NAQ_9 
REMARK       I    between atoms: NAQ_9  and  CAS_10 
REMARK    6  A    between atoms: CAU_14  and  CAT_15 
REMARK    7  A    between atoms: CAY_19  and  NBB_20 
REMARK    8  A    between atoms: CAV_24  and  CAW_25 
REMARK    9  A    between atoms: CAW_25  and  CAK_26 
REMARK   10  A    between atoms: CAW_25  and  OAH_28 
ROOT
ATOM      1  CAZ 1SN d         206.610  70.631-124.673  0.00  0.00     0.151 C 
ATOM      2  CBA 1SN d         206.160  72.070-124.923  0.00  0.00     0.142 C 
ATOM      3  CAN 1SN d         206.207  69.762-125.853  0.00  0.00     0.079 C 
ATOM      4  CAU 1SN d         204.710  69.902-126.120  0.00  0.00     0.019 C 
ATOM      5  CAI 1SN d         204.064  71.110-125.907  0.00  0.00     0.016 C 
ATOM      6  CAY 1SN d         204.643  72.187-124.990  0.00  0.00     0.160 C 
ENDROOT
BRANCH   6   7
ATOM      7  NBB 1SN d         204.284  73.485-125.564  0.00  0.00    -0.250 N 
ATOM      8  CAJ 1SN d         204.238  74.605-124.871  0.00  0.00     0.146 A 
ATOM      9  CAV 1SN d         203.876  75.481-125.790  0.00  0.00     0.104 A 
ATOM     10  NAO 1SN d         203.734  74.847-126.952  0.00  0.00    -0.133 NA
ATOM     11  NAP 1SN d         203.992  73.658-126.751  0.00  0.00    -0.065 NA
BRANCH   9  12
ATOM     12  CAW 1SN d         203.663  76.978-125.534  0.00  0.00     0.173 C 
BRANCH  12  13
ATOM     13  CAK 1SN d         202.184  77.246-125.251  0.00  0.00     0.034 C 
ATOM     14  CAA 1SN d         201.333  76.808-126.437  0.00  0.00     0.008 C 
ENDBRANCH  12  13
BRANCH  12  15
ATOM     15  OAH 1SN d         204.447  77.388-124.401  0.00  0.00    -0.389 OA
ATOM     16  H29 1SN d         205.366  77.222-124.576  0.00  0.00     0.210 HD
ENDBRANCH  12  15
ENDBRANCH   9  12
ENDBRANCH   6   7
BRANCH   2  17
ATOM     17  NAQ 1SN d         206.665  72.893-123.820  0.00  0.00    -0.352 N 
ATOM     18  CAS 1SN d         207.253  74.076-124.019  0.00  0.00     0.214 C 
ATOM     19  CAD 1SN d         207.724  74.780-122.746  0.00  0.00     0.117 C 
ATOM     20  OAE 1SN d         207.419  74.593-125.124  0.00  0.00    -0.274 OA
ATOM     21  H14 1SN d         206.566  72.556-122.884  0.00  0.00     0.163 HD
ENDBRANCH   2  17
BRANCH   1  22
ATOM     22  OAR 1SN d         208.027  70.670-124.615  0.00  0.00    -0.378 OA
BRANCH  22  23
ATOM     23  CAX 1SN d         208.616  69.658-123.785  0.00  0.00     0.121 C 
BRANCH  23  24
ATOM     24  CAL 1SN d         209.889  70.233-123.168  0.00  0.00     0.027 C 
ATOM     25  CAB 1SN d         210.170  71.605-123.781  0.00  0.00     0.007 C 
ENDBRANCH  23  24
BRANCH  23  26
ATOM     26  CAM 1SN d         207.695  69.110-122.693  0.00  0.00     0.027 C 
ATOM     27  CAC 1SN d         207.723  67.573-122.763  0.00  0.00     0.007 C 
ENDBRANCH  23  26
ENDBRANCH  22  23
ENDBRANCH   1  22
BRANCH   4  28
ATOM     28  CAT 1SN d         203.881  68.703-126.559  0.00  0.00     0.205 C 
ATOM     29  OAG 1SN d         202.995  68.894-127.426  0.00  0.00    -0.644 OA
ATOM     30  OAF 1SN d         204.130  67.612-126.006  0.00  0.00    -0.644 OA
ENDBRANCH   4  28
TORSDOF 10
