REMARK  7 active torsions:
REMARK  status: ('A' for Active; 'I' for Inactive)
REMARK    1  A    between atoms: C1_1  and  C2_4 
REMARK    2  A    between atoms: C4_6  and  N4_20 
REMARK    3  A    between atoms: C5_7  and  N5_8 
REMARK       I    between atoms: N5_8  and  C10_9 
REMARK    4  A    between atoms: C6_12  and  O7_14 
REMARK    5  A    between atoms: O7_14  and  C8_15 
REMARK    6  A    between atoms: C8_15  and  C9_16 
REMARK    7  A    between atoms: C8_15  and  C81_17 
ROOT
ATOM      1  C2  G39 d          15.590 -19.843  43.404  0.00  0.00     0.019 C 
ATOM      2  C3  G39 d          14.499 -19.428  42.441  0.00  0.00     0.080 C 
ATOM      3  C4  G39 d          15.074 -18.451  41.404  0.00  0.00     0.213 C 
ATOM      4  C5  G39 d          16.284 -19.058  40.721  0.00  0.00     0.147 C 
ATOM      5  C6  G39 d          17.397 -19.196  41.750  0.00  0.00     0.170 C 
ATOM      6  C7  G39 d          16.889 -19.822  43.040  0.00  0.00     0.021 C 
ENDROOT
BRANCH   5   7
ATOM      7  O7  G39 d          18.354 -20.079  41.195  0.00  0.00    -0.375 OA
BRANCH   7   8
ATOM      8  C8  G39 d          19.662 -19.949  41.772  0.00  0.00     0.121 C 
BRANCH   8   9
ATOM      9  C9  G39 d          20.474 -18.862  41.062  0.00  0.00     0.027 C 
ATOM     10  C91 G39 d          20.413 -18.993  39.563  0.00  0.00     0.007 C 
ENDBRANCH   8   9
BRANCH   8  11
ATOM     11  C81 G39 d          20.364 -21.312  41.653  0.00  0.00     0.027 C 
ATOM     12  C82 G39 d          19.892 -22.233  42.755  0.00  0.00     0.007 C 
ENDBRANCH   8  11
ENDBRANCH   7   8
ENDBRANCH   5   7
BRANCH   4  13
ATOM     13  N5  G39 d          16.749 -18.240  39.595  0.00  0.00    -0.352 N 
ATOM     14  C10 G39 d          17.047 -18.748  38.396  0.00  0.00     0.214 C 
ATOM     15  O10 G39 d          16.822 -19.906  38.058  0.00  0.00    -0.274 OA
ATOM     16  C11 G39 d          17.681 -17.763  37.457  0.00  0.00     0.117 C 
ATOM     17  H5  G39 d          16.848 -17.254  39.732  0.00  0.00     0.163 HD
ENDBRANCH   4  13
BRANCH   3  18
ATOM     18  N4  G39 d          14.047 -18.100  40.440  0.00  0.00    -0.073 N 
ATOM     19  H22 G39 d          13.257 -17.700  40.922  0.00  0.00     0.274 HD
ATOM     20  H23 G39 d          13.755 -18.927  39.944  0.00  0.00     0.274 HD
ATOM     21  H24 G39 d          14.416 -17.429  39.785  0.00  0.00     0.274 HD
ENDBRANCH   3  18
BRANCH   1  22
ATOM     22  C1  G39 d          15.263 -20.289  44.764  0.00  0.00     0.205 C 
ATOM     23  O1A G39 d          16.174 -20.374  45.635  0.00  0.00    -0.644 OA
ATOM     24  O1B G39 d          14.077 -20.556  45.039  0.00  0.00    -0.644 OA
ENDBRANCH   1  22
TORSDOF 7
