REMARK  4 active torsions:
REMARK  status: ('A' for Active; 'I' for Inactive)
REMARK    1  A    between atoms: C4_4  and  C8_8 
REMARK    2  A    between atoms: C5_5  and  C7_7 
REMARK       I    between atoms: N21_21  and  C25_25 
REMARK    3  A    between atoms: C25_25  and  C27_27 
REMARK    4  A    between atoms: C27_27  and  O28_28 
ROOT
ATOM      1  C1  I47 d          35.539  35.844  20.035  0.00  0.00     0.101 A 
ATOM      2  N2  I47 d          35.013  34.592  20.186  0.00  0.00    -0.173 NA
ATOM      3  N3  I47 d          34.358  34.420  21.348  0.00  0.00    -0.280 N 
ATOM      4  C4  I47 d          34.473  35.589  21.990  0.00  0.00     0.047 A 
ATOM      5  C5  I47 d          35.201  36.522  21.207  0.00  0.00     0.049 A 
ATOM      6  C6  I47 d          36.256  36.210  18.841  0.00  0.00    -0.005 A 
ATOM      7  C9  I47 d          35.738  35.939  17.593  0.00  0.00     0.015 A 
ATOM      8  C10 I47 d          36.410  36.340  16.453  0.00  0.00     0.024 A 
ATOM      9  C11 I47 d          37.608  37.009  16.541  0.00  0.00     0.034 A 
ATOM     10  C12 I47 d          38.138  37.258  17.790  0.00  0.00     0.024 A 
ATOM     11  C13 I47 d          37.468  36.861  18.924  0.00  0.00     0.015 A 
ATOM     12 CL24 I47 d          38.423  37.551  15.116  0.00  0.00    -0.084 Cl
ATOM     13  H1  I47 d          33.873  33.572  21.674  0.00  0.00     0.189 HD
ENDROOT
BRANCH   4  14
ATOM     14  C8  I47 d          33.899  35.796  23.355  0.00  0.00     0.041 C 
ATOM     15  C19 I47 d          32.552  35.150  23.615  0.00  0.00     0.030 C 
ATOM     16  C20 I47 d          32.063  35.408  25.039  0.00  0.00     0.126 C 
ATOM     17  N21 I47 d          33.077  35.064  26.013  0.00  0.00    -0.350 N 
ATOM     18  C22 I47 d          34.418  35.574  25.820  0.00  0.00     0.126 C 
ATOM     19  C25 I47 d          32.762  34.280  27.112  0.00  0.00     0.243 C 
ATOM     20  C23 I47 d          34.916  35.360  24.395  0.00  0.00     0.030 C 
ATOM     21  O26 I47 d          32.005  33.314  27.089  0.00  0.00    -0.271 OA
BRANCH  19  22
ATOM     22  C27 I47 d          33.453  34.742  28.370  0.00  0.00     0.267 C 
BRANCH  22  23
ATOM     23  O28 I47 d          32.942  33.960  29.448  0.00  0.00    -0.392 OA
ATOM     24  H20 I47 d          33.124  33.042  29.286  0.00  0.00     0.210 HD
ENDBRANCH  22  23
ENDBRANCH  19  22
ENDBRANCH   4  14
BRANCH   5  25
ATOM     25  C7  I47 d          35.460  37.915  21.520  0.00  0.00     0.074 A 
ATOM     26  C14 I47 d          35.723  38.344  22.810  0.00  0.00     0.052 A 
ATOM     27  C15 I47 d          35.882  39.700  22.966  0.00  0.00     0.120 A 
ATOM     28  N16 I47 d          35.782  40.597  21.974  0.00  0.00    -0.254 NA
ATOM     29  C17 I47 d          35.512  40.075  20.772  0.00  0.00     0.233 A 
ATOM     30  N18 I47 d          35.340  38.772  20.493  0.00  0.00    -0.241 NA
ENDBRANCH   5  25
TORSDOF 4
