REMARK WARNING: 32 MAX_TORS EXCEEDED!!!
REMARK  34 active torsions:
REMARK  status: ('A' for Active; 'I' for Inactive)
REMARK    1  A    between atoms: N_1  and  CA_2 
REMARK    2  A    between atoms: CA_2  and  C_3 
REMARK    3  A    between atoms: CA_2  and  CB_5 
REMARK       I    between atoms: C_3  and  N_9 
REMARK    4  A    between atoms: CB_5  and  CG_6 
REMARK    5  A    between atoms: N_9  and  CA_10 
REMARK    6  A    between atoms: CA_10  and  C_11 
REMARK    7  A    between atoms: CA_10  and  CB_13 
REMARK       I    between atoms: C_11  and  N_15 
REMARK    8  A    between atoms: CB_13  and  OG_14 
REMARK    9  A    between atoms: N_15  and  CA_16 
REMARK   10  A    between atoms: CA_16  and  C_17 
REMARK   11  A    between atoms: CA_16  and  CB_19 
REMARK       I    between atoms: C_17  and  N_29 
REMARK   12  A    between atoms: CB_19  and  CG_20 
REMARK   13  A    between atoms: N_29  and  CA_30 
REMARK   14  A    between atoms: CA_30  and  C_31 
REMARK   15  A    between atoms: CA_30  and  CB_33 
REMARK       I    between atoms: C_31  and  N_38 
REMARK   16  A    between atoms: CB_33  and  CG_34 
REMARK   17  A    between atoms: CG_34  and  CD_35 
REMARK   18  A    between atoms: CD_35  and  CE_36 
REMARK   19  A    between atoms: CE_36  and  NZ_37 
REMARK   20  A    between atoms: N_38  and  CA_39 
REMARK   21  A    between atoms: CA_39  and  C_40 
REMARK   22  A    between atoms: CA_39  and  CB_42 
REMARK       I    between atoms: C_40  and  N_46 
REMARK   23  A    between atoms: CB_42  and  CG_43 
REMARK   24  A    between atoms: N_46  and  CA_47 
REMARK   25  A    between atoms: CA_47  and  C_48 
REMARK       I    between atoms: C_48  and  N_50 
REMARK   26  A    between atoms: N_50  and  CA_51 
REMARK   27  A    between atoms: CA_51  and  C_52 
REMARK   28  A    between atoms: CA_51  and  CB_54 
REMARK       I    between atoms: C_52  and  N_56 
REMARK   29  A    between atoms: CB_54  and  SG_55 
REMARK   30  A    between atoms: N_56  and  CA_57 
REMARK   31  A    between atoms: CA_57  and  C_58 
REMARK   32  A    between atoms: CA_57  and  CB_60 
REMARK   33  A    between atoms: CB_60  and  CG_61 
REMARK   34  A    between atoms: CZ_66  and  OH_67 
ROOT
ATOM      1  CA  ASP d          13.235 -16.794 -14.117  0.00  0.00     0.176 C 
ENDROOT
BRANCH   1   2
ATOM      2  N   ASP d          12.599 -18.044 -13.692  0.00  0.00    -0.346 N 
ATOM      3  C   ASP d          11.460 -18.058 -12.998  0.00  0.00     0.241 C 
ATOM      4  O   ASP d          10.831 -17.032 -12.717  0.00  0.00    -0.271 OA
ATOM      5  H22 ASP d          13.032 -18.913 -13.930  0.00  0.00     0.163 HD
BRANCH   3   6
ATOM      6  CA  ASP d          10.936 -19.433 -12.571  0.00  0.00     0.181 C 
BRANCH   6   7
ATOM      7  N   ASP d          11.479 -20.509 -13.398  0.00  0.00    -0.346 N 
ATOM      8  C   ASP d          11.314 -20.498 -14.716  0.00  0.00     0.243 C 
ATOM      9  O   ASP d          10.705 -19.605 -15.298  0.00  0.00    -0.271 OA
ATOM     10  H12 ASP d          11.979 -21.260 -12.968  0.00  0.00     0.163 HD
BRANCH   8  11
ATOM     11  CA  ASP d          11.901 -21.663 -15.504  0.00  0.00     0.200 C 
BRANCH  11  12
ATOM     12  N   ASP d          13.129 -22.237 -14.945  0.00  0.00    -0.344 N 
ATOM     13  C   ASP d          14.228 -21.509 -14.753  0.00  0.00     0.249 C 
ATOM     14  O   ASP d          14.242 -20.284 -14.842  0.00  0.00    -0.271 OA
ATOM     15  H7  ASP d          13.142 -23.206 -14.700  0.00  0.00     0.163 HD
BRANCH  13  16
ATOM     16  CA  ASP d          15.504 -22.276 -14.397  0.00  0.00     0.284 C 
BRANCH  16  17
ATOM     17  N   ASP d          16.669 -21.405 -14.415  0.00  0.00    -0.066 N 
ATOM     18  H1  ASP d          17.491 -21.938 -14.177  0.00  0.00     0.275 HD
ATOM     19  H2  ASP d          16.544 -20.663 -13.744  0.00  0.00     0.275 HD
ATOM     20  H3  ASP d          16.779 -21.011 -15.336  0.00  0.00     0.275 HD
ENDBRANCH  16  17
BRANCH  16  21
ATOM     21  CB  ASP d          15.364 -22.944 -13.035  0.00  0.00     0.155 C 
BRANCH  21  22
ATOM     22  CG  ASP d          14.364 -24.073 -13.051  0.00  0.00     0.175 C 
ATOM     23  OD1 ASP d          14.552 -25.016 -13.847  0.00  0.00    -0.648 OA
ATOM     24  OD2 ASP d          13.391 -24.012 -12.275  0.00  0.00    -0.648 OA
ENDBRANCH  21  22
ENDBRANCH  16  21
ENDBRANCH  13  16
ENDBRANCH  11  12
BRANCH  11  25
ATOM     25  CB  ASP d          10.832 -22.738 -15.699  0.00  0.00     0.199 C 
BRANCH  25  26
ATOM     26  OG  ASP d          11.163 -23.585 -16.782  0.00  0.00    -0.398 OA
ATOM     27  H11 ASP d          10.487 -24.244 -16.885  0.00  0.00     0.209 HD
ENDBRANCH  25  26
ENDBRANCH  11  25
ENDBRANCH   8  11
ENDBRANCH   6   7
BRANCH   6  28
ATOM     28  CB  ASP d          11.220 -19.686 -11.086  0.00  0.00     0.075 C 
BRANCH  28  29
ATOM     29  CG  ASP d          12.665 -19.566 -10.715  0.00  0.00    -0.028 A 
ATOM     30  CD1 ASP d          13.602 -20.554 -10.744  0.00  0.00     0.096 A 
ATOM     31  NE1 ASP d          14.816 -20.064 -10.336  0.00  0.00    -0.365 N 
ATOM     32  CE2 ASP d          14.681 -18.737 -10.024  0.00  0.00     0.042 A 
ATOM     33  H17 ASP d          15.689 -20.607 -10.274  0.00  0.00     0.165 HD
ATOM     34  CD2 ASP d          13.337 -18.387 -10.249  0.00  0.00    -0.002 A 
ATOM     35  CZ2 ASP d          15.624 -17.819  -9.558  0.00  0.00     0.030 A 
ATOM     36  CE3 ASP d          12.933 -17.069 -10.004  0.00  0.00     0.014 A 
ATOM     37  CZ3 ASP d          13.869 -16.160  -9.545  0.00  0.00     0.001 A 
ATOM     38  CH2 ASP d          15.199 -16.538  -9.330  0.00  0.00     0.002 A 
ENDBRANCH  28  29
ENDBRANCH   6  28
ENDBRANCH   3   6
ENDBRANCH   1   2
BRANCH   1  39
ATOM     39  C   ASP d          12.783 -16.333 -15.494  0.00  0.00     0.241 C 
ATOM     40  O   ASP d          13.265 -15.320 -16.007  0.00  0.00    -0.271 OA
ATOM     41  N   ASP d          11.871 -17.084 -16.103  0.00  0.00    -0.346 N 
ATOM     42  H35 ASP d          11.614 -17.965 -15.706  0.00  0.00     0.163 HD
BRANCH  41  43
ATOM     43  CA  ASP d          11.242 -16.646 -17.336  0.00  0.00     0.186 C 
BRANCH  43  44
ATOM     44  C   ASP d          10.520 -15.327 -17.095  0.00  0.00     0.241 C 
ATOM     45  O   ASP d           9.820 -15.171 -16.091  0.00  0.00    -0.271 OA
ATOM     46  N   ASP d          10.698 -14.374 -18.007  0.00  0.00    -0.351 N 
ATOM     47  H39 ASP d          11.309 -14.542 -18.781  0.00  0.00     0.163 HD
BRANCH  46  48
ATOM     48  CA  ASP d          10.022 -13.097 -17.898  0.00  0.00     0.225 C 
BRANCH  48  49
ATOM     49  C   ASP d          10.678 -12.190 -16.873  0.00  0.00     0.236 C 
ATOM     50  O   ASP d          10.097 -11.187 -16.476  0.00  0.00    -0.272 OA
ATOM     51  N   ASP d          11.875 -12.571 -16.434  0.00  0.00    -0.346 N 
ATOM     52  H42 ASP d          12.240 -13.448 -16.747  0.00  0.00     0.163 HD
BRANCH  51  53
ATOM     53  CA  ASP d          12.681 -11.772 -15.518  0.00  0.00     0.185 C 
BRANCH  53  54
ATOM     54  C   ASP d          13.930 -11.292 -16.222  0.00  0.00     0.242 C 
ATOM     55  O   ASP d          14.306 -11.827 -17.264  0.00  0.00    -0.271 OA
ATOM     56  N   ASP d          14.596 -10.302 -15.636  0.00  0.00    -0.344 N 
ATOM     57  H47 ASP d          14.233  -9.892 -14.799  0.00  0.00     0.163 HD
BRANCH  56  58
ATOM     58  CA  ASP d          15.849  -9.804 -16.195  0.00  0.00     0.189 C 
BRANCH  58  59
ATOM     59  C   ASP d          16.950  -9.846 -15.150  0.00  0.00     0.197 C 
ATOM     60  O   ASP d          16.687 -10.031 -13.957  0.00  0.00    -0.646 OA
ATOM     61  OXT ASP d          18.128  -9.695 -15.484  0.00  0.00    -0.646 OA
ENDBRANCH  58  59
BRANCH  58  62
ATOM     62  CB  ASP d          15.696  -8.377 -16.746  0.00  0.00     0.074 C 
BRANCH  62  63
ATOM     63  CG  ASP d          14.823  -8.297 -17.979  0.00  0.00    -0.056 A 
ATOM     64  CD1 ASP d          15.386  -8.208 -19.238  0.00  0.00     0.010 A 
ATOM     65  CE1 ASP d          14.595  -8.149 -20.368  0.00  0.00     0.037 A 
ATOM     66  CZ  ASP d          13.220  -8.185 -20.243  0.00  0.00     0.065 A 
ATOM     67  CE2 ASP d          12.634  -8.280 -19.003  0.00  0.00     0.037 A 
ATOM     68  CD2 ASP d          13.442  -8.322 -17.877  0.00  0.00     0.010 A 
BRANCH  66  69
ATOM     69  OH  ASP d          12.436  -8.123 -21.365  0.00  0.00    -0.361 OA
ATOM     70  H55 ASP d          12.990  -8.061 -22.134  0.00  0.00     0.217 HD
ENDBRANCH  66  69
ENDBRANCH  62  63
ENDBRANCH  58  62
ENDBRANCH  56  58
ENDBRANCH  53  54
BRANCH  53  71
ATOM     71  CB  ASP d          13.120 -12.606 -14.315  0.00  0.00     0.105 C 
BRANCH  71  72
ATOM     72  SG  ASP d          11.804 -13.013 -13.185  0.00  0.00    -0.180 SA
ATOM     73  H46 ASP d          12.174 -13.561 -12.424  0.00  0.00     0.101 HD
ENDBRANCH  71  72
ENDBRANCH  53  71
ENDBRANCH  51  53
ENDBRANCH  48  49
ENDBRANCH  46  48
ENDBRANCH  43  44
BRANCH  43  74
ATOM     74  CB  ASP d          10.248 -17.702 -17.834  0.00  0.00     0.147 C 
BRANCH  74  75
ATOM     75  CG  ASP d          10.935 -18.946 -18.346  0.00  0.00     0.175 C 
ATOM     76  OD1 ASP d          12.185 -18.988 -18.312  0.00  0.00    -0.648 OA
ATOM     77  OD2 ASP d          10.227 -19.881 -18.785  0.00  0.00    -0.648 OA
ENDBRANCH  74  75
ENDBRANCH  43  74
ENDBRANCH  41  43
ENDBRANCH   1  39
BRANCH   1  78
ATOM     78  CB  ASP d          14.759 -16.921 -14.099  0.00  0.00     0.035 C 
BRANCH  78  79
ATOM     79  CG  ASP d          15.344 -17.074 -12.718  0.00  0.00     0.004 C 
BRANCH  79  80
ATOM     80  CD  ASP d          16.867 -17.029 -12.749  0.00  0.00     0.027 C 
BRANCH  80  81
ATOM     81  CE  ASP d          17.438 -18.160 -13.588  0.00  0.00     0.229 C 
BRANCH  81  82
ATOM     82  NZ  ASP d          18.887 -18.368 -13.312  0.00  0.00    -0.079 N 
ATOM     83  H32 ASP d          19.233 -19.123 -13.883  0.00  0.00     0.274 HD
ATOM     84  H33 ASP d          19.014 -18.598 -12.339  0.00  0.00     0.274 HD
ATOM     85  H34 ASP d          19.395 -17.524 -13.527  0.00  0.00     0.274 HD
ENDBRANCH  81  82
ENDBRANCH  80  81
ENDBRANCH  79  80
ENDBRANCH  78  79
ENDBRANCH   1  78
TORSDOF 34
