REMARK  10 active torsions:
REMARK  status: ('A' for Active; 'I' for Inactive)
REMARK    1  A    between atoms: C2_3  and  C1_1 
REMARK    2  A    between atoms: N1_2  and  C4_7 
REMARK       I    between atoms: C6_10  and  N1_2 
REMARK    3  A    between atoms: C3_5  and  C2_3 
REMARK    4  A    between atoms: C4_7  and  C3_5 
REMARK       I    between atoms: C5_8  and  N3_6 
REMARK    5  A    between atoms: C4_7  and  C5_8 
REMARK    6  A    between atoms: C7_12  and  C6_10 
REMARK    7  A    between atoms: C8_14  and  C7_12 
REMARK    8  A    between atoms: C9_15  and  C8_14 
REMARK    9  A    between atoms: C19_24  and  C12_18 
REMARK   10  A    between atoms: C15_21  and  C37_27 
ROOT
ATOM      1  C9  E3P d         -10.483 -25.244   0.692  0.00  0.00    -0.058 A 
ATOM      2  C10 E3P d          -9.562 -24.329   0.275  0.00  0.00     0.008 A 
ATOM      3  C11 E3P d          -9.452 -22.997   0.944  0.00  0.00     0.013 A 
ATOM      4  C12 E3P d         -10.292 -22.697   1.951  0.00  0.00    -0.026 A 
ATOM      5  C13 E3P d         -11.297 -23.689   2.419  0.00  0.00     0.013 A 
ATOM      6  C14 E3P d         -11.398 -24.921   1.816  0.00  0.00     0.008 A 
ENDROOT
BRANCH   1   7
ATOM      7  C8  E3P d         -10.547 -26.577  -0.011  0.00  0.00     0.047 C 
BRANCH   7   8
ATOM      8  C7  E3P d         -11.876 -26.693  -0.721  0.00  0.00     0.107 C 
BRANCH   8   9
ATOM      9  C6  E3P d         -11.955 -28.147  -1.145  0.00  0.00     0.218 C 
ATOM     10  N1  E3P d         -12.617 -29.118  -0.315  0.00  0.00    -0.348 N 
ATOM     11  H1  E3P d         -13.047 -28.831   0.541  0.00  0.00     0.163 HD
ATOM     12  O2  E3P d         -11.433 -28.516  -2.177  0.00  0.00    -0.274 OA
BRANCH  10  13
ATOM     13  C4  E3P d         -12.663 -30.512  -0.716  0.00  0.00     0.176 C 
BRANCH  13  14
ATOM     14  C3  E3P d         -12.134 -31.394   0.402  0.00  0.00     0.045 C 
BRANCH  14  15
ATOM     15  C2  E3P d         -10.661 -31.206   0.597  0.00  0.00     0.116 C 
BRANCH  15  16
ATOM     16  C1  E3P d         -10.398 -30.151   1.630  0.00  0.00     0.172 C 
ATOM     17  O6  E3P d          -9.250 -29.656   1.768  0.00  0.00    -0.648 OA
ATOM     18  O7  E3P d         -11.330 -29.754   2.383  0.00  0.00    -0.648 OA
ENDBRANCH  15  16
ENDBRANCH  14  15
ENDBRANCH  13  14
BRANCH  13  19
ATOM     19  C5  E3P d         -14.071 -30.883  -1.056  0.00  0.00     0.238 C 
ATOM     20  N3  E3P d         -14.869 -30.002  -1.595  0.00  0.00    -0.368 N 
ATOM     21  H6  E3P d         -15.810 -30.252  -1.821  0.00  0.00     0.159 HD
ATOM     22  H7  E3P d         -14.539 -29.077  -1.781  0.00  0.00     0.159 HD
ATOM     23  O5  E3P d         -14.488 -32.018  -0.836  0.00  0.00    -0.271 OA
ENDBRANCH  13  19
ENDBRANCH  10  13
ENDBRANCH   8   9
ENDBRANCH   7   8
ENDBRANCH   1   7
BRANCH   4  24
ATOM     24  C19 E3P d         -10.175 -21.346   2.615  0.00  0.00    -0.026 A 
ATOM     25  C17 E3P d         -10.948 -21.101   3.858  0.00  0.00     0.013 A 
ATOM     26  C16 E3P d         -10.853 -19.884   4.486  0.00  0.00     0.013 A 
ATOM     27  C15 E3P d          -9.985 -18.827   3.921  0.00  0.00    -0.026 A 
ATOM     28  C36 E3P d          -9.257 -19.044   2.785  0.00  0.00     0.013 A 
ATOM     29  C35 E3P d          -9.370 -20.375   2.092  0.00  0.00     0.013 A 
BRANCH  27  30
ATOM     30  C37 E3P d          -9.891 -17.535   4.658  0.00  0.00    -0.026 A 
ATOM     31  C38 E3P d          -9.620 -16.255   3.941  0.00  0.00     0.012 A 
ATOM     32  C39 E3P d          -9.522 -15.104   4.666  0.00  0.00     0.001 A 
ATOM     33  C40 E3P d          -9.669 -15.142   6.154  0.00  0.00     0.000 A 
ATOM     34  C41 E3P d          -9.901 -16.317   6.806  0.00  0.00     0.001 A 
ATOM     35  C42 E3P d         -10.015 -17.577   6.017  0.00  0.00     0.012 A 
ENDBRANCH  27  30
ENDBRANCH   4  24
TORSDOF 10
