REMARK  6 active torsions:
REMARK  status: ('A' for Active; 'I' for Inactive)
REMARK    1  A    between atoms: C1'_21  and  N1_1 
REMARK    2  A    between atoms: O3'_18  and  P_9 
REMARK    3  A    between atoms: C5'_14  and  O5'_13 
REMARK    4  A    between atoms: C4'_15  and  C5'_14 
REMARK    5  A    between atoms: C3'_17  and  O3'_18 
REMARK    6  A    between atoms: C2'_19  and  O2'_20 
ROOT
ATOM      1  C4' U3P d          39.394  -0.217  12.460  0.00  0.00     0.180 C 
ATOM      2  O4' U3P d          38.595  -1.195  11.738  0.00  0.00    -0.353 OA
ATOM      3  C3' U3P d          38.409   0.744  13.123  0.00  0.00     0.199 C 
ATOM      4  C2' U3P d          37.114  -0.062  13.165  0.00  0.00     0.199 C 
ATOM      5  C1' U3P d          37.222  -0.895  11.890  0.00  0.00     0.264 C 
ENDROOT
BRANCH   5   6
ATOM      6  N1  U3P d          36.467  -2.158  11.965  0.00  0.00    -0.280 N 
ATOM      7  C2  U3P d          35.309  -2.272  11.203  0.00  0.00     0.331 A 
ATOM      8  N3  U3P d          34.643  -3.467  11.338  0.00  0.00    -0.275 N 
ATOM      9  O2  U3P d          34.897  -1.381  10.469  0.00  0.00    -0.246 OA
ATOM     10  C4  U3P d          35.002  -4.536  12.137  0.00  0.00     0.250 A 
ATOM     11  H1  U3P d          33.807  -3.575  10.799  0.00  0.00     0.173 HD
ATOM     12  C5  U3P d          36.208  -4.346  12.881  0.00  0.00     0.092 A 
ATOM     13  O4  U3P d          34.285  -5.536  12.169  0.00  0.00    -0.268 OA
ATOM     14  C6  U3P d          36.885  -3.196  12.771  0.00  0.00     0.104 A 
ENDBRANCH   5   6
BRANCH   4  15
ATOM     15  O2' U3P d          35.955   0.743  13.116  0.00  0.00    -0.388 OA
ATOM     16  H10 U3P d          35.954   1.246  12.310  0.00  0.00     0.210 HD
ENDBRANCH   4  15
BRANCH   1  17
ATOM     17  C5' U3P d          40.334  -0.942  13.398  0.00  0.00     0.198 C 
BRANCH  17  18
ATOM     18  O5' U3P d          39.589  -1.709  14.363  0.00  0.00    -0.398 OA
ATOM     19  H4  U3P d          39.050  -2.347  13.911  0.00  0.00     0.209 HD
ENDBRANCH  17  18
ENDBRANCH   1  17
BRANCH   3  20
ATOM     20  O3' U3P d          38.239   1.920  12.341  0.00  0.00    -0.272 OA
BRANCH  20  21
ATOM     21  P   U3P d          38.472   3.363  13.014  0.00  0.00     0.422 P 
ATOM     22  O1P U3P d          37.438   3.517  14.122  0.00  0.00    -0.617 OA
ATOM     23  O2P U3P d          38.321   4.383  11.899  0.00  0.00    -0.617 OA
ATOM     24  O3P U3P d          39.896   3.226  13.535  0.00  0.00    -0.617 OA
ENDBRANCH  20  21
ENDBRANCH   3  20
TORSDOF 6
