REMARK  3 active torsions:
REMARK  status: ('A' for Active; 'I' for Inactive)
REMARK    1  A    between atoms: S1_4  and  C9_18 
REMARK    2  A    between atoms: C10_19  and  S1_4 
REMARK       I    between atoms: C12_21  and  N4_13 
REMARK    3  A    between atoms: C12_21  and  C13_22 
ROOT
ATOM      1  O1  TZ1 d           7.252   4.838  22.470  0.00  0.00    -0.267 OA
ATOM      2  N2  TZ1 d           7.466   7.847  19.599  0.00  0.00    -0.122 NA
ATOM      3  S2  TZ1 d           6.732   7.654  22.080  0.00  0.00    -0.021 SA
ATOM      4  N3  TZ1 d           6.934   9.114  19.945  0.00  0.00    -0.133 NA
ATOM      5  N4  TZ1 d           7.884   5.722  20.500  0.00  0.00    -0.300 N 
ATOM      6  C10 TZ1 d           6.521   9.149  21.241  0.00  0.00     0.165 A 
ATOM      7  C11 TZ1 d           7.407   6.984  20.643  0.00  0.00     0.197 A 
ATOM      8  C12 TZ1 d           7.795   4.738  21.387  0.00  0.00     0.264 C 
ATOM      9  H3  TZ1 d           8.349   5.512  19.640  0.00  0.00     0.171 HD
ENDROOT
BRANCH   6  10
ATOM     10  S1  TZ1 d           5.822  10.579  21.959  0.00  0.00    -0.060 SA
BRANCH  10  11
ATOM     11  C9  TZ1 d           6.807  11.943  21.762  0.00  0.00     0.021 A 
ATOM     12  C3  TZ1 d           6.330  13.201  22.123  0.00  0.00     0.010 A 
ATOM     13  C2  TZ1 d           7.162  14.314  21.955  0.00  0.00     0.069 A 
ATOM     14  C4  TZ1 d           5.041  13.336  22.641  0.00  0.00     0.017 A 
ATOM     15  C1  TZ1 d           6.713  15.581  22.295  0.00  0.00     0.056 A 
ATOM     16  N1  TZ1 d           8.400  14.177  21.440  0.00  0.00    -0.260 NA
ATOM     17  C6  TZ1 d           5.423  15.706  22.793  0.00  0.00     0.036 A 
ATOM     18 CL1  TZ1 d           4.848  17.330  23.213  0.00  0.00    -0.084 Cl
ATOM     19  C5  TZ1 d           4.582  14.602  22.985  0.00  0.00     0.025 A 
ATOM     20  C7  TZ1 d           8.884  12.975  21.092  0.00  0.00     0.118 A 
ATOM     21  C8  TZ1 d           8.097  11.833  21.238  0.00  0.00     0.039 A 
ENDBRANCH  10  11
ENDBRANCH   6  10
BRANCH   8  22
ATOM     22  C13 TZ1 d           8.391   3.465  21.015  0.00  0.00     0.072 A 
ATOM     23  S3  TZ1 d           8.161   2.142  21.983  0.00  0.00    -0.097 SA
ATOM     24  C16 TZ1 d           9.081   1.220  20.948  0.00  0.00     0.050 A 
ATOM     25  C15 TZ1 d           9.423   2.004  19.904  0.00  0.00     0.009 A 
ATOM     26  C14 TZ1 d           9.099   3.251  19.972  0.00  0.00     0.025 A 
ENDBRANCH   8  22
TORSDOF 3
