REMARK  4 active torsions:
REMARK  status: ('A' for Active; 'I' for Inactive)
REMARK    1  A    between atoms: NAM_13  and  CAP_16 
REMARK    2  A    between atoms: CAQ_17  and  NAM_13 
REMARK    3  A    between atoms: CAR_18  and  CAN_14 
REMARK    4  A    between atoms: CAO_15  and  CAS_19 
ROOT
ATOM      1  NAM MOL d          30.863  -6.520  28.758  0.00  0.00    -0.354 N 
ATOM      2  H9  MOL d          30.328  -5.809  28.239  0.00  0.00     0.166 HD
ENDROOT
BRANCH   1   3
ATOM      3  CAP MOL d          31.993  -6.959  28.152  0.00  0.00     0.049 A 
ATOM      4  CAI MOL d          32.848  -7.886  28.745  0.00  0.00     0.030 A 
ATOM      5  CAE MOL d          34.003  -8.306  28.084  0.00  0.00     0.002 A 
ATOM      6  CAG MOL d          34.321  -7.816  26.824  0.00  0.00     0.001 A 
ATOM      7  CAK MOL d          33.480  -6.885  26.221  0.00  0.00     0.021 A 
ATOM      8  CAR MOL d          32.327  -6.474  26.879  0.00  0.00     0.067 A 
BRANCH   8   9
ATOM      9  CAN MOL d          31.448  -5.447  26.201  0.00  0.00     0.211 C 
ATOM     10  OAA MOL d          30.702  -4.771  26.929  0.00  0.00    -0.644 OA
ATOM     11  OAC MOL d          31.554  -5.287  24.971  0.00  0.00    -0.644 OA
ENDBRANCH   8   9
ENDBRANCH   1   3
BRANCH   1  12
ATOM     12  CAQ MOL d          30.342  -6.889  29.953  0.00  0.00     0.049 A 
ATOM     13  CAJ MOL d          31.147  -7.165  31.060  0.00  0.00     0.030 A 
ATOM     14  CAF MOL d          30.596  -7.528  32.285  0.00  0.00     0.002 A 
ATOM     15  CAH MOL d          29.212  -7.609  32.432  0.00  0.00     0.001 A 
ATOM     16  CAL MOL d          28.399  -7.334  31.341  0.00  0.00     0.021 A 
ATOM     17  CAS MOL d          28.954  -6.963  30.121  0.00  0.00     0.067 A 
BRANCH  17  18
ATOM     18  CAO MOL d          27.990  -6.688  28.976  0.00  0.00     0.211 C 
ATOM     19  OAB MOL d          26.916  -7.336  28.972  0.00  0.00    -0.644 OA
ATOM     20  OAD MOL d          28.307  -5.856  28.103  0.00  0.00    -0.644 OA
ENDBRANCH  17  18
ENDBRANCH   1  12
TORSDOF 4
