4zj6_ligand

Created by X-TOOL on Sun Nov 13 14:27:58 2016
154158  0  0  0  0  0  0  0  0999 V2000
  -26.2030  -23.2580    2.3680  N 0  3  0  4  0  4
  -26.9740  -22.4110    3.3290  C 0  0  0  2  0  4
  -28.0470  -23.2250    4.0570  C 0  0  0  1  0  3
  -28.6920  -24.0820    3.4430  O 0  0  0  1  0  1
  -27.5990  -21.1890    2.6280  C 0  0  0  3  0  4
  -28.3370  -21.5120    1.0100  S 0  0  0  1  0  2
  -28.2300  -22.9710    5.3700  N 0  0  0  1  0  3
  -29.2960  -23.6200    6.1500  C 0  0  0  2  0  4
  -30.7030  -23.3140    5.6400  C 0  0  0  1  0  3
  -30.9240  -22.2850    4.9920  O 0  0  0  1  0  1
  -29.1190  -23.0390    7.5600  C 0  0  0  3  0  4
  -27.7230  -22.5460    7.6160  C 0  0  0  3  0  4
  -27.3450  -22.1520    6.2200  C 0  0  0  3  0  4
  -31.6450  -24.1940    5.9710  N 0  0  0  2  0  3
  -33.0200  -24.1180    5.4780  C 0  0  0  2  0  4
  -33.7700  -22.8350    5.8670  C 0  0  0  1  0  3
  -34.7030  -22.4360    5.1720  O 0  0  0  1  0  1
  -33.8090  -25.3350    5.9480  C 0  0  0  4  0  4
  -33.3800  -22.2090    6.9770  N 0  0  0  2  0  3
  -34.0070  -20.9560    7.4220  C 0  0  0  2  0  4
  -33.7210  -19.7920    6.4670  C 0  0  0  1  0  3
  -34.4820  -18.8240    6.4090  O 0  0  0  1  0  1
  -33.5800  -20.5970    8.8510  C 0  0  0  3  0  4
  -32.1020  -20.2760    9.0550  C 0  0  0  3  0  4
  -31.7690  -20.2690   10.5400  C 0  0  0  3  0  4
  -30.3850  -19.8920   10.8270  N 0  0  0  2  0  3
  -29.3510  -20.7310   10.8730  C 0  3  0  1  0  3
  -29.5090  -22.0330   10.6380  N 0  0  0  3  0  3
  -28.1400  -20.2640   11.1580  N 0  0  0  3  0  3
  -32.6660  -19.8810    5.6690  N 0  0  0  2  0  3
  -32.3930  -18.8630    4.6440  C 0  0  0  2  0  4
  -33.1810  -19.0250    3.3360  C 0  0  0  1  0  3
  -33.9400  -19.9270    3.1890  O 0  0  0  1  0  1
  -30.8920  -18.6990    4.3760  C 0  0  0  3  0  4
  -30.1200  -18.3030    5.5910  C 0  0  0  1  0  3
  -29.7140  -19.2490    6.4690  C 0  0  0  2  0  3
  -29.8430  -17.0020    5.8640  C 0  0  0  2  0  3
  -29.0700  -18.9160    7.6030  C 0  0  0  2  0  3
  -29.1790  -16.6490    6.9820  C 0  0  0  2  0  3
  -28.7930  -17.6170    7.8560  C 0  0  0  2  0  3
  -33.1870  -18.1070    2.4950  N 0  0  0  2  0  3
  -34.2030  -17.8580    1.4570  C 0  0  0  2  0  4
  -33.6740  -17.9730    0.0320  C 0  0  0  1  0  3
  -34.4810  -17.8990   -0.8270  O 0  0  0  1  0  1
  -34.9880  -16.5420    1.6070  C 0  0  0  4  0  4
  -32.5160  -18.2470   -0.1810  N 0  0  0  2  0  3
  -32.0700  -18.5920   -1.5200  C 0  0  0  2  0  4
  -32.6320  -19.9350   -1.9800  C 0  0  0  1  0  3
  -33.0760  -20.6930   -1.1800  O 0  0  0  1  0  1
  -30.5580  -18.5070   -1.6530  C 0  0  0  4  0  4
  -32.6080  -20.1140   -3.2120  N 0  0  0  2  0  3
  -33.4250  -21.1720   -3.7620  C 0  0  0  2  0  4
  -33.0130  -22.5870   -3.3750  C 0  0  0  1  0  3
  -33.8080  -23.4540   -3.3860  O 0  0  0  1  0  1
  -33.5870  -20.9860   -5.2570  C 0  0  0  3  0  4
  -34.3650  -19.7130   -5.6070  C 0  0  0  2  0  4
  -34.4050  -19.4490   -7.0830  C 0  0  0  4  0  4
  -35.7670  -19.8860   -5.1420  C 0  0  0  4  0  4
  -31.8450  -22.8070   -3.0350  N 0  0  0  2  0  3
  -31.3360  -24.1300   -2.6700  C 0  0  0  2  0  4
  -30.8400  -24.2220   -1.2250  C 0  0  0  1  0  3
  -30.1090  -25.1470   -0.8670  O 0  0  0  1  0  1
  -30.2580  -24.5310   -3.6730  C 0  0  0  3  0  4
  -30.8080  -24.4510   -5.0570  C 0  0  0  1  0  3
  -31.6380  -25.3510   -5.6570  C 0  0  0  2  0  3
  -30.6350  -23.3800   -5.9930  C 0  0  0  1  0  3
  -31.9620  -24.9290   -6.9220  N 0  0  0  2  0  3
  -31.3640  -23.7190   -7.1530  C 0  0  0  1  0  3
  -29.9250  -22.1730   -5.9690  C 0  0  0  2  0  3
  -31.4020  -22.8990   -8.2820  C 0  0  0  2  0  3
  -29.9640  -21.3570   -7.0940  C 0  0  0  2  0  3
  -30.6990  -21.7260   -8.2340  C 0  0  0  2  0  3
  -31.2680  -23.2760   -0.3940  N 0  0  0  2  0  3
  -31.0000  -23.3290    1.0370  C 0  0  0  2  0  4
  -31.8720  -24.3950    1.6930  C 0  5  0  1  0  3
  -33.0070  -24.6210    1.2720  O 0  0  0  1  0  1
  -31.2670  -21.9650    1.6790  C 0  0  0  3  0  4
  -30.1780  -20.6380    1.1120  S 0  0  0  1  0  2
  -31.4520  -25.0430    2.6520  O 0  0  0  1  0  1
  -25.5067  -22.6938    1.9066  H 0  0  0  1  0  1
  -26.8316  -23.6441    1.6811  H 0  0  0  1  0  1
  -25.7508  -24.0071    2.8683  H 0  0  0  1  0  1
  -26.2667  -22.0381    4.0844  H 0  0  0  1  0  1
  -26.8100  -20.4341    2.4957  H 0  0  0  1  0  1
  -28.3848  -20.7870    3.2845  H 0  0  0  1  0  1
  -29.1489  -24.7101    6.1545  H 0  0  0  1  0  1
  -29.2817  -23.8180    8.3194  H 0  0  0  1  0  1
  -29.8251  -22.2120    7.7259  H 0  0  0  1  0  1
  -27.0551  -23.3412    7.9787  H 0  0  0  1  0  1
  -27.6554  -21.6763    8.2861  H 0  0  0  1  0  1
  -27.5246  -21.0796    6.0535  H 0  0  0  1  0  1
  -26.2879  -22.3820    6.0208  H 0  0  0  1  0  1
  -31.4009  -24.9434    6.5865  H 0  0  0  1  0  1
  -32.9718  -24.1454    4.3794  H 0  0  0  1  0  1
  -34.8411  -25.2699    5.5732  H 0  0  0  1  0  1
  -33.8194  -25.3630    7.0476  H 0  0  0  1  0  1
  -33.3359  -26.2501    5.5623  H 0  0  0  1  0  1
  -32.6401  -22.6027    7.5225  H 0  0  0  1  0  1
  -35.0950  -21.1181    7.4291  H 0  0  0  1  0  1
  -33.8303  -21.4494    9.4997  H 0  0  0  1  0  1
  -34.1603  -19.7161    9.1628  H 0  0  0  1  0  1
  -31.8822  -19.2863    8.6281  H 0  0  0  1  0  1
  -31.4909  -21.0377    8.5486  H 0  0  0  1  0  1
  -31.9450  -21.2781   10.9408  H 0  0  0  1  0  1
  -32.4360  -19.5532   11.0428  H 0  0  0  1  0  1
  -30.1942  -18.8962   11.0084  H 0  0  0  1  0  1
  -28.6973  -22.6658   10.6782  H 0  0  0  1  0  1
  -30.4428  -22.4067   10.4161  H 0  0  0  1  0  1
  -28.0055  -19.2594   11.3415  H 0  0  0  1  0  1
  -27.3359  -20.9066   11.1954  H 0  0  0  1  0  1
  -32.0428  -20.6570    5.7663  H 0  0  0  1  0  1
  -32.7329  -17.9112    5.0783  H 0  0  0  1  0  1
  -30.7562  -17.9242    3.6071  H 0  0  0  1  0  1
  -30.4958  -19.6561    4.0061  H 0  0  0  1  0  1
  -29.9108  -20.2934    6.2554  H 0  0  0  1  0  1
  -30.1620  -16.2332    5.1696  H 0  0  0  1  0  1
  -28.7754  -19.6842    8.3088  H 0  0  0  1  0  1
  -28.9554  -15.6074    7.1822  H 0  0  0  1  0  1
  -28.2604  -17.3456    8.7603  H 0  0  0  1  0  1
  -32.4180  -17.4686    2.5274  H 0  0  0  1  0  1
  -34.9400  -18.6656    1.5777  H 0  0  0  1  0  1
  -35.7159  -16.4538    0.7870  H 0  0  0  1  0  1
  -34.2901  -15.6925    1.5707  H 0  0  0  1  0  1
  -35.5189  -16.5395    2.5704  H 0  0  0  1  0  1
  -31.8583  -18.2361    0.5722  H 0  0  0  1  0  1
  -32.4861  -17.8314   -2.1970  H 0  0  0  1  0  1
  -30.2645  -18.7752   -2.6786  H 0  0  0  1  0  1
  -30.0877  -19.2034   -0.9432  H 0  0  0  1  0  1
  -30.2277  -17.4810   -1.4336  H 0  0  0  1  0  1
  -32.0399  -19.5423   -3.8039  H 0  0  0  1  0  1
  -34.4252  -21.0339   -3.3256  H 0  0  0  1  0  1
  -34.1273  -21.8533   -5.6643  H 0  0  0  1  0  1
  -32.5890  -20.9272   -5.7158  H 0  0  0  1  0  1
  -33.9006  -18.8554   -5.0983  H 0  0  0  1  0  1
  -34.9736  -18.5272   -7.2753  H 0  0  0  1  0  1
  -34.8916  -20.2932   -7.5935  H 0  0  0  1  0  1
  -33.3792  -19.3329   -7.4627  H 0  0  0  1  0  1
  -35.7727  -20.0818   -4.0596  H 0  0  0  1  0  1
  -36.2266  -20.7342   -5.6705  H 0  0  0  1  0  1
  -36.3386  -18.9699   -5.3519  H 0  0  0  1  0  1
  -31.2100  -22.0350   -3.0077  H 0  0  0  1  0  1
  -32.1681  -24.8428   -2.7670  H 0  0  0  1  0  1
  -29.9319  -25.5613   -3.4677  H 0  0  0  1  0  1
  -29.3997  -23.8493   -3.5802  H 0  0  0  1  0  1
  -31.9930  -26.2726   -5.1982  H 0  0  0  1  0  1
  -32.5580  -25.4394   -7.5892  H 0  0  0  1  0  1
  -29.3576  -21.8814   -5.0926  H 0  0  0  1  0  1
  -31.9669  -23.1807   -9.1632  H 0  0  0  1  0  1
  -29.4184  -20.4203   -7.0920  H 0  0  0  1  0  1
  -30.7091  -21.0666   -9.0943  H 0  0  0  1  0  1
  -31.7890  -22.5059   -0.7621  H 0  0  0  1  0  1
  -29.9428  -23.5914    1.1898  H 0  0  0  1  0  1
  -31.1436  -22.0682    2.7672  H 0  0  0  1  0  1
  -32.3044  -21.6771    1.4533  H 0  0  0  1  0  1
  1  2  1  0  0  2
  2  3  1  0  0  1
  2  5  1  0  0  1
  3  4  2  0  0  2
  3  7  1  0  0  1
  5  6  1  0  0  1
  6 78  1  0  0  1
  7  8  1  0  0  1
  7 13  1  0  0  1
  8  9  1  0  0  1
  8 11  1  0  0  1
  9 10  2  0  0  2
  9 14  1  0  0  1
 11 12  1  0  0  1
 12 13  1  0  0  1
 14 15  1  0  0  1
 15 16  1  0  0  1
 15 18  1  0  0  2
 16 17  2  0  0  2
 16 19  1  0  0  1
 19 20  1  0  0  1
 20 21  1  0  0  1
 20 23  1  0  0  2
 21 22  2  0  0  2
 21 30  1  0  0  1
 23 24  1  0  0  2
 24 25  1  0  0  2
 25 26  1  0  0  2
 26 27  2  0  0  2
 27 28  2  0  0  2
 27 29  2  0  0  2
 30 31  1  0  0  1
 31 32  1  0  0  1
 31 34  1  0  0  2
 32 33  2  0  0  2
 32 41  1  0  0  1
 34 35  1  0  0  2
 35 36  4  0  0  1
 35 37  4  0  0  1
 36 38  4  0  0  1
 37 39  4  0  0  1
 38 40  4  0  0  1
 39 40  4  0  0  1
 41 42  1  0  0  1
 42 43  1  0  0  1
 42 45  1  0  0  2
 43 44  2  0  0  2
 43 46  1  0  0  1
 46 47  1  0  0  1
 47 48  1  0  0  1
 47 50  1  0  0  2
 48 49  2  0  0  2
 48 51  1  0  0  1
 51 52  1  0  0  1
 52 53  1  0  0  1
 52 55  1  0  0  2
 53 54  2  0  0  2
 53 59  1  0  0  1
 55 56  1  0  0  2
 56 57  1  0  0  2
 56 58  1  0  0  2
 59 60  1  0  0  1
 60 61  1  0  0  1
 60 63  1  0  0  2
 61 62  2  0  0  2
 61 73  1  0  0  1
 63 64  1  0  0  2
 64 65  2  0  0  1
 64 66  1  0  0  1
 65 67  1  0  0  1
 66 68  4  0  0  1
 66 69  4  0  0  1
 67 68  1  0  0  1
 68 70  4  0  0  1
 69 71  4  0  0  1
 70 72  4  0  0  1
 71 72  4  0  0  1
 73 74  1  0  0  1
 74 75  1  0  0  2
 74 77  1  0  0  1
 75 76  2  0  0  2
 75 79  2  0  0  2
 77 78  1  0  0  1
  1 80  1  0  0  2
  1 81  1  0  0  2
  1 82  1  0  0  2
  2 83  1  0  0  2
  5 84  1  0  0  2
  5 85  1  0  0  2
  8 86  1  0  0  2
 11 87  1  0  0  2
 11 88  1  0  0  2
 12 89  1  0  0  2
 12 90  1  0  0  2
 13 91  1  0  0  2
 13 92  1  0  0  2
 14 93  1  0  0  2
 15 94  1  0  0  2
 18 95  1  0  0  2
 18 96  1  0  0  2
 18 97  1  0  0  2
 19 98  1  0  0  2
 20 99  1  0  0  2
 23100  1  0  0  2
 23101  1  0  0  2
 24102  1  0  0  2
 24103  1  0  0  2
 25104  1  0  0  2
 25105  1  0  0  2
 26106  1  0  0  2
 28107  1  0  0  2
 28108  1  0  0  2
 29109  1  0  0  2
 29110  1  0  0  2
 30111  1  0  0  2
 31112  1  0  0  2
 34113  1  0  0  2
 34114  1  0  0  2
 36115  1  0  0  2
 37116  1  0  0  2
 38117  1  0  0  2
 39118  1  0  0  2
 40119  1  0  0  2
 41120  1  0  0  2
 42121  1  0  0  2
 45122  1  0  0  2
 45123  1  0  0  2
 45124  1  0  0  2
 46125  1  0  0  2
 47126  1  0  0  2
 50127  1  0  0  2
 50128  1  0  0  2
 50129  1  0  0  2
 51130  1  0  0  2
 52131  1  0  0  2
 55132  1  0  0  2
 55133  1  0  0  2
 56134  1  0  0  2
 57135  1  0  0  2
 57136  1  0  0  2
 57137  1  0  0  2
 58138  1  0  0  2
 58139  1  0  0  2
 58140  1  0  0  2
 59141  1  0  0  2
 60142  1  0  0  2
 63143  1  0  0  2
 63144  1  0  0  2
 65145  1  0  0  2
 67146  1  0  0  2
 69147  1  0  0  2
 70148  1  0  0  2
 71149  1  0  0  2
 72150  1  0  0  2
 73151  1  0  0  2
 74152  1  0  0  2
 77153  1  0  0  2
 77154  1  0  0  2
M  END
> <MOLECULAR_FORMULA>
C52H75N14O11S2

> <MOLECULAR_WEIGHT>
1135.8

> <NUM_HB_ATOMS>
26 

> <NUM_ROTOR>
10 

> <XLOGP2>
-0.04

$$$$
