REMARK  6 active torsions:
REMARK  status: ('A' for Active; 'I' for Inactive)
REMARK    1  A    between atoms: C2_6  and  C1_2 
REMARK    2  A    between atoms: N1_3  and  C2_6 
REMARK    3  A    between atoms: C7_11  and  O1_4 
REMARK    4  A    between atoms: C10_13  and  N2_7 
REMARK    5  A    between atoms: N2_7  and  C11_14 
REMARK    6  A    between atoms: N2_7  and  C13_16 
ROOT
ATOM      1  N1  P86 d          90.498  98.381 -44.691  0.00  0.00    -0.067 N 
ATOM      2  C03 P86 d          89.543  99.545 -44.717  0.00  0.00     0.237 C 
ATOM      3  C8  P86 d          90.175 100.731 -44.005  0.00  0.00     0.061 C 
ATOM      4  C10 P86 d          91.430 101.081 -44.802  0.00  0.00     0.191 C 
ATOM      5  C15 P86 d          92.451  99.940 -44.695  0.00  0.00     0.061 C 
ATOM      6  C16 P86 d          91.821  98.707 -45.322  0.00  0.00     0.237 C 
ATOM      7  H1  P86 d          90.671  98.160 -43.723  0.00  0.00     0.280 HD
ENDROOT
BRANCH   1   8
ATOM      8  C2  P86 d          89.905  97.166 -45.335  0.00  0.00     0.276 C 
BRANCH   8   9
ATOM      9  C1  P86 d          90.499  95.899 -44.788  0.00  0.00     0.003 A 
ATOM     10  C3  P86 d          90.579  94.767 -45.609  0.00  0.00     0.029 A 
ATOM     11  C01 P86 d          91.068  93.555 -45.098  0.00  0.00     0.008 A 
ATOM     12  C02 P86 d          91.481  93.457 -43.763  0.00  0.00     0.039 A 
ATOM     13  I1  P86 d          91.181  91.888 -46.398  0.00  0.00    -0.045 I 
ATOM     14  C4  P86 d          91.396  94.604 -42.957  0.00  0.00     0.041 A 
ATOM     15  C7  P86 d          90.909  95.837 -43.430  0.00  0.00     0.090 A 
ATOM     16  I2  P86 d          91.986  94.458 -40.927  0.00  0.00    -0.042 I 
BRANCH  15  17
ATOM     17  O1  P86 d          90.857  96.965 -42.659  0.00  0.00    -0.359 OA
ATOM     18  H2  P86 d          91.162  96.762 -41.782  0.00  0.00     0.217 HD
ENDBRANCH  15  17
ENDBRANCH   8   9
ENDBRANCH   1   8
BRANCH   4  19
ATOM     19  N2  P86 d          92.032 102.438 -44.473  0.00  0.00    -0.067 N 
ATOM     20  H6  P86 d          91.271 103.096 -44.406  0.00  0.00     0.280 HD
BRANCH  19  21
ATOM     21  C11 P86 d          92.947 102.903 -45.593  0.00  0.00     0.231 C 
ATOM     22  C12 P86 d          92.939 104.410 -45.785  0.00  0.00     0.034 C 
ENDBRANCH  19  21
BRANCH  19  23
ATOM     23  C13 P86 d          92.753 102.449 -43.143  0.00  0.00     0.231 C 
ATOM     24  C14 P86 d          92.640 103.779 -42.409  0.00  0.00     0.034 C 
ENDBRANCH  19  23
ENDBRANCH   4  19
TORSDOF 6
