REMARK  5 active torsions:
REMARK  status: ('A' for Active; 'I' for Inactive)
REMARK    1  A    between atoms: C1_1  and  C_8 
REMARK    2  A    between atoms: C2_2  and  O3_3 
REMARK    3  A    between atoms: O3'_15  and  C3_4 
REMARK    4  A    between atoms: C2'_14  and  C1'_11 
REMARK    5  A    between atoms: O3'_15  and  C2'_14 
ROOT
ATOM      1  C1  ISC d           6.043  20.858  75.237  0.00  0.00     0.050 C 
ATOM      2  C2  ISC d           5.860  21.463  73.841  0.00  0.00     0.191 C 
ATOM      3  C3  ISC d           6.282  20.747  72.780  0.00  0.00     0.185 C 
ATOM      4  C4  ISC d           6.120  19.283  72.892  0.00  0.00     0.008 C 
ATOM      5  C5  ISC d           6.098  18.659  74.137  0.00  0.00    -0.001 C 
ATOM      6  C6  ISC d           6.128  19.394  75.337  0.00  0.00     0.016 C 
ENDROOT
BRANCH   3   7
ATOM      7  O3' ISC d           7.669  20.951  72.544  0.00  0.00    -0.333 OA
BRANCH   7   8
ATOM      8  C2' ISC d           8.364  20.410  71.499  0.00  0.00     0.136 C 
ATOM      9  C3' ISC d           9.713  19.949  71.655  0.00  0.00     0.058 C 
BRANCH   8  10
ATOM     10  C1' ISC d           7.789  20.294  70.178  0.00  0.00     0.233 C 
ATOM     11  O1' ISC d           7.958  19.246  69.505  0.00  0.00    -0.642 OA
ATOM     12  O2' ISC d           6.945  21.168  69.890  0.00  0.00    -0.642 OA
ENDBRANCH   8  10
ENDBRANCH   7   8
ENDBRANCH   3   7
BRANCH   2  13
ATOM     13  O3  ISC d           4.673  22.125  73.789  0.00  0.00    -0.388 OA
ATOM     14  H2  ISC d           4.669  22.818  74.439  0.00  0.00     0.210 HD
ENDBRANCH   2  13
BRANCH   1  15
ATOM     15  C   ISC d           6.048  21.667  76.519  0.00  0.00     0.207 C 
ATOM     16  O2  ISC d           5.848  22.886  76.317  0.00  0.00    -0.644 OA
ATOM     17  O1  ISC d           6.247  21.214  77.655  0.00  0.00    -0.644 OA
ENDBRANCH   1  15
TORSDOF 5
