REMARK  5 active torsions:
REMARK  status: ('A' for Active; 'I' for Inactive)
REMARK    1  A    between atoms: C1_2  and  C2_3 
REMARK    2  A    between atoms: C2_3  and  O2_4 
REMARK    3  A    between atoms: C2_3  and  C3_5 
REMARK    4  A    between atoms: C3_5  and  O1P_6 
REMARK    5  A    between atoms: O1P_6  and  P_10 
ROOT
ATOM      1  C3  G3H d          47.250  28.258  12.426  0.00  0.00     0.217 C 
ENDROOT
BRANCH   1   2
ATOM      2  C2  G3H d          48.384  28.109  13.464  0.00  0.00     0.177 C 
BRANCH   2   3
ATOM      3  C1  G3H d          47.902  28.138  14.863  0.00  0.00     0.225 C 
ATOM      4  O1  G3H d          46.986  27.287  15.265  0.00  0.00    -0.230 OA
ENDBRANCH   2   3
BRANCH   2   5
ATOM      5  O2  G3H d          49.188  29.323  13.470  0.00  0.00    -0.391 OA
ATOM      6  H3  G3H d          49.578  29.448  12.613  0.00  0.00     0.210 HD
ENDBRANCH   2   5
ENDBRANCH   1   2
BRANCH   1   7
ATOM      7  O1P G3H d          47.706  28.057  11.075  0.00  0.00    -0.280 OA
BRANCH   7   8
ATOM      8  P   G3H d          47.990  29.352  10.165  0.00  0.00     0.422 P 
ATOM      9  O2P G3H d          46.700  30.177  10.168  0.00  0.00    -0.617 OA
ATOM     10  O3P G3H d          48.329  28.678   8.837  0.00  0.00    -0.617 OA
ATOM     11  O4P G3H d          49.155  30.118  10.785  0.00  0.00    -0.617 OA
ENDBRANCH   7   8
ENDBRANCH   1   7
TORSDOF 5
