REMARK  8 active torsions:
REMARK  status: ('A' for Active; 'I' for Inactive)
REMARK    1  A    between atoms: CAU_6  and  OAS_7 
REMARK    2  A    between atoms: OAS_7  and  CAV_8 
REMARK    3  A    between atoms: CAT_13  and  CAQ_14 
REMARK    4  A    between atoms: CAQ_14  and  CAP_15 
REMARK    5  A    between atoms: CAP_15  and  CAR_16 
REMARK    6  A    between atoms: CAR_16  and  CAW_17 
REMARK    7  A    between atoms: CAW_17  and  PAX_18 
REMARK    8  A    between atoms: CAW_17  and  SAY_22 
ROOT
ATOM      1  CAV B65 d          15.613  52.542  38.892  0.00  0.00     0.076 A 
ATOM      2  CAO B65 d          15.999  51.969  37.682  0.00  0.00     0.044 A 
ATOM      3  CAN B65 d          16.233  52.144  40.070  0.00  0.00     0.037 A 
ATOM      4  CAJ B65 d          17.226  51.173  40.030  0.00  0.00     0.003 A 
ATOM      5  CAK B65 d          17.602  50.594  38.820  0.00  0.00     0.007 A 
ATOM      6  CAT B65 d          16.983  50.995  37.641  0.00  0.00    -0.056 A 
ENDROOT
BRANCH   6   7
ATOM      7  CAQ B65 d          17.331  50.343  36.298  0.00  0.00     0.039 C 
BRANCH   7   8
ATOM      8  CAP B65 d          18.445  51.101  35.572  0.00  0.00     0.007 C 
BRANCH   8   9
ATOM      9  CAR B65 d          19.700  51.116  36.444  0.00  0.00     0.037 C 
BRANCH   9  10
ATOM     10  CAW B65 d          20.921  51.682  35.713  0.00  0.00     0.259 C 
BRANCH  10  11
ATOM     11  PAX B65 d          21.318  50.687  34.219  0.00  0.00     0.281 P 
ATOM     12  OAB B65 d          22.821  51.064  33.784  0.00  0.00    -0.639 OA
ATOM     13  OAC B65 d          21.342  49.151  34.706  0.00  0.00    -0.639 OA
ATOM     14  OAA B65 d          20.350  50.909  33.119  0.00  0.00    -0.639 OA
ENDBRANCH  10  11
BRANCH  10  15
ATOM     15  SAY B65 d          22.351  51.706  36.853  0.00  0.00     0.119 S 
ATOM     16  OAF B65 d          23.526  52.092  36.133  0.00  0.00    -0.594 OA
ATOM     17  OAE B65 d          22.558  50.341  37.435  0.00  0.00    -0.594 OA
ATOM     18  OAD B65 d          22.082  52.671  37.974  0.00  0.00    -0.594 OA
ENDBRANCH  10  15
ENDBRANCH   9  10
ENDBRANCH   8   9
ENDBRANCH   7   8
ENDBRANCH   6   7
BRANCH   1  19
ATOM     19  OAS B65 d          14.550  53.387  38.870  0.00  0.00    -0.311 OA
BRANCH  19  20
ATOM     20  CAU B65 d          14.448  54.258  39.915  0.00  0.00     0.076 A 
ATOM     21  CAL B65 d          15.065  55.496  39.851  0.00  0.00     0.037 A 
ATOM     22  CAH B65 d          14.805  56.445  40.843  0.00  0.00     0.003 A 
ATOM     23  CAG B65 d          13.936  56.149  41.887  0.00  0.00     0.000 A 
ATOM     24  CAI B65 d          13.324  54.906  41.949  0.00  0.00     0.003 A 
ATOM     25  CAM B65 d          13.584  53.956  40.962  0.00  0.00     0.037 A 
ENDBRANCH  19  20
ENDBRANCH   1  19
TORSDOF 8
