REMARK  23 active torsions:
REMARK  status: ('A' for Active; 'I' for Inactive)
REMARK    1  A    between atoms: CA_2  and  N_1 
REMARK    2  A    between atoms: C_3  and  CA_2 
REMARK    3  A    between atoms: CA_2  and  CB_5 
REMARK       I    between atoms: N_7  and  C_3 
REMARK    4  A    between atoms: CB_5  and  OG_6 
REMARK    5  A    between atoms: CA_8  and  N_7 
REMARK    6  A    between atoms: C_9  and  CA_8 
REMARK       I    between atoms: N_11  and  C_9 
REMARK    7  A    between atoms: CA_12  and  N_11 
REMARK    8  A    between atoms: C_13  and  CA_12 
REMARK    9  A    between atoms: CA_12  and  CB_15 
REMARK       I    between atoms: N_22  and  C_13 
REMARK   10  A    between atoms: CB_15  and  CG_16 
REMARK   11  A    between atoms: CG_16  and  CD_17 
REMARK   12  A    between atoms: CD_17  and  NE_18 
REMARK       I    between atoms: NE_18  and  CZ_19 
REMARK       I    between atoms: CZ_19  and  NH1_20 
REMARK   13  A    between atoms: CA_23  and  N_22 
REMARK   14  A    between atoms: C_24  and  CA_23 
REMARK       I    between atoms: N_35  and  C_24 
REMARK       I    between atoms: NZ_29  and  CH_27 
REMARK   15  A    between atoms: CE_30  and  NZ_29 
REMARK   16  A    between atoms: CD_31  and  CE_30 
REMARK   17  A    between atoms: CG_32  and  CD_31 
REMARK   18  A    between atoms: CB_33  and  CG_32 
REMARK   19  A    between atoms: CA_34  and  CB_33 
REMARK   20  A    between atoms: CA_34  and  N_35 
REMARK   21  A    between atoms: CA_34  and  C_36 
REMARK       I    between atoms: C_36  and  N_38 
REMARK   22  A    between atoms: N_38  and  CA_39 
REMARK   23  A    between atoms: CA_39  and  C_40 
ROOT
ATOM      1  CA  SER d          20.777  -3.346  17.404  0.00  0.00     0.176 C 
ENDROOT
BRANCH   1   2
ATOM      2  N   SER d          21.347  -4.687  17.480  0.00  0.00    -0.346 N 
ATOM      3  C   SER d          21.936  -5.241  16.425  0.00  0.00     0.236 C 
ATOM      4  O   SER d          22.052  -4.655  15.348  0.00  0.00    -0.272 OA
ATOM      5  H   SER d          21.294  -5.197  18.339  0.00  0.00     0.163 HD
BRANCH   3   6
ATOM      6  CA  SER d          22.476  -6.650  16.594  0.00  0.00     0.225 C 
BRANCH   6   7
ATOM      7  N   SER d          23.002  -7.120  15.315  0.00  0.00    -0.350 N 
ATOM      8  C   SER d          22.225  -7.650  14.373  0.00  0.00     0.250 C 
ATOM      9  O   SER d          21.055  -7.987  14.567  0.00  0.00    -0.271 OA
ATOM     10  H   SER d          23.983  -7.041  15.140  0.00  0.00     0.163 HD
BRANCH   8  11
ATOM     11  CA  SER d          22.876  -7.845  13.008  0.00  0.00     0.297 C 
BRANCH  11  12
ATOM     12  N   SER d          22.092  -8.801  12.174  0.00  0.00    -0.064 N 
ATOM     13  H   SER d          22.542  -8.913  11.279  0.00  0.00     0.275 HD
ATOM     14  H   SER d          21.160  -8.443  12.039  0.00  0.00     0.275 HD
ATOM     15  H   SER d          22.045  -9.694  12.640  0.00  0.00     0.275 HD
ENDBRANCH  11  12
BRANCH  11  16
ATOM     16  CB  SER d          23.010  -6.491  12.296  0.00  0.00     0.206 C 
BRANCH  16  17
ATOM     17  OG  SER d          23.902  -6.566  11.193  0.00  0.00    -0.398 OA
ATOM     18  H   SER d          23.961  -5.714  10.777  0.00  0.00     0.209 HD
ENDBRANCH  16  17
ENDBRANCH  11  16
ENDBRANCH   8  11
ENDBRANCH   6   7
ENDBRANCH   3   6
ENDBRANCH   1   2
BRANCH   1  19
ATOM     19  C   SER d          21.841  -2.287  17.116  0.00  0.00     0.240 C 
ATOM     20  O   SER d          23.003  -2.425  17.501  0.00  0.00    -0.271 OA
ATOM     21  N   SER d          21.408  -1.217  16.459  0.00  0.00    -0.351 N 
ATOM     22  H   SER d          20.425  -1.116  16.306  0.00  0.00     0.163 HD
BRANCH  21  23
ATOM     23  CA  SER d          22.297  -0.188  15.953  0.00  0.00     0.225 C 
BRANCH  23  24
ATOM     24  C   SER d          22.393  -0.333  14.451  0.00  0.00     0.236 C 
ATOM     25  O   SER d          22.300  -1.443  13.924  0.00  0.00    -0.272 OA
ATOM     26  N   SER d          22.573   0.793  13.769  0.00  0.00    -0.346 N 
ATOM     27  H   SER d          22.616   1.656  14.272  0.00  0.00     0.163 HD
BRANCH  26  28
ATOM     28  CA  SER d          22.710   0.822  12.314  0.00  0.00     0.176 C 
BRANCH  28  29
ATOM     29  CB  SER d          21.810   1.925  11.761  0.00  0.00     0.035 C 
BRANCH  29  30
ATOM     30  CG  SER d          20.384   1.839  12.307  0.00  0.00     0.004 C 
BRANCH  30  31
ATOM     31  CD  SER d          19.425   2.695  11.484  0.00  0.00     0.020 C 
BRANCH  31  32
ATOM     32  CE  SER d          18.071   2.852  12.173  0.00  0.00     0.122 C 
BRANCH  32  33
ATOM     33  NZ  SER d          17.193   3.789  11.482  0.00  0.00    -0.361 N 
ATOM     34  CH  SER d          16.059   4.255  12.025  0.00  0.00     0.213 C 
ATOM     35  OH  SER d          15.668   3.937  13.141  0.00  0.00    -0.274 OA
ATOM     36  CH3 SER d          15.281   5.212  11.165  0.00  0.00     0.117 C 
ATOM     37  H   SER d          17.447   4.097  10.565  0.00  0.00     0.162 HD
ENDBRANCH  32  33
ENDBRANCH  31  32
ENDBRANCH  30  31
ENDBRANCH  29  30
ENDBRANCH  28  29
BRANCH  28  38
ATOM     38  C   SER d          24.148   1.079  11.942  0.00  0.00     0.240 C 
ATOM     39  O   SER d          24.993   1.327  12.809  0.00  0.00    -0.271 OA
ATOM     40  N   SER d          24.442   1.009  10.645  0.00  0.00    -0.349 N 
ATOM     41  H   SER d          23.725   0.739  10.002  0.00  0.00     0.163 HD
BRANCH  40  42
ATOM     42  CA  SER d          25.782   1.314  10.125  0.00  0.00     0.235 C 
BRANCH  42  43
ATOM     43  C   SER d          26.854   0.274  10.428  0.00  0.00     0.191 C 
ATOM     44  O   SER d          26.650  -0.646  11.228  0.00  0.00    -0.647 OA
ATOM     45  O1  SER d          27.971   0.354   9.851  0.00  0.00    -0.647 OA
ENDBRANCH  42  43
ENDBRANCH  40  42
ENDBRANCH  28  38
ENDBRANCH  26  28
ENDBRANCH  23  24
ENDBRANCH  21  23
ENDBRANCH   1  19
BRANCH   1  46
ATOM     46  CB  SER d          20.046  -2.992  18.687  0.00  0.00     0.036 C 
BRANCH  46  47
ATOM     47  CG  SER d          18.749  -3.748  18.888  0.00  0.00     0.023 C 
BRANCH  47  48
ATOM     48  CD  SER d          17.759  -2.885  19.646  0.00  0.00     0.138 C 
BRANCH  48  49
ATOM     49  NE  SER d          17.180  -3.557  20.803  0.00  0.00    -0.227 N 
ATOM     50  CZ  SER d          16.697  -2.931  21.876  0.00  0.00     0.665 C 
ATOM     51  NH1 SER d          16.713  -1.602  21.963  0.00  0.00    -0.235 N 
ATOM     52  NH2 SER d          16.196  -3.640  22.880  0.00  0.00    -0.235 N 
ATOM     53  H   SER d          16.335  -1.136  22.800  0.00  0.00     0.174 HD
ATOM     54  H   SER d          17.103  -1.040  21.193  0.00  0.00     0.174 HD
ATOM     55  H   SER d          16.178  -4.668  22.825  0.00  0.00     0.174 HD
ATOM     56  H   SER d          15.826  -3.162  23.714  0.00  0.00     0.174 HD
ATOM     57  H   SER d          17.142  -4.586  20.790  0.00  0.00     0.177 HD
ENDBRANCH  48  49
ENDBRANCH  47  48
ENDBRANCH  46  47
ENDBRANCH   1  46
TORSDOF 23
