REMARK  12 active torsions:
REMARK  status: ('A' for Active; 'I' for Inactive)
REMARK    1  A    between atoms: C_2  and  O2_3 
REMARK       I    between atoms: N_9  and  C_2 
REMARK    2  A    between atoms: O2_3  and  CT_4 
REMARK    3  A    between atoms: C_18  and  CM_8 
REMARK    4  A    between atoms: CM_8  and  N_20 
REMARK    5  A    between atoms: N_9  and  CA_10 
REMARK    6  A    between atoms: CA_10  and  C_18 
REMARK    7  A    between atoms: CA_10  and  CB_11 
REMARK    8  A    between atoms: CB_11  and  CG_12 
REMARK    9  A    between atoms: C_18  and  O_19 
REMARK   10  A    between atoms: N_20  and  CA_21 
REMARK   11  A    between atoms: CA_33  and  CB_36 
REMARK   12  A    between atoms: CB_36  and  CG1_37 
ROOT
ATOM      1  CA  MOL d           4.733  -2.185  16.866  0.00  0.00     0.281 C 
ATOM      2  C   MOL d           5.727  -3.184  16.261  0.00  0.00     0.249 C 
ATOM      3  O   MOL d           5.938  -3.213  15.043  0.00  0.00    -0.271 OA
ATOM      4  CB  MOL d           3.307  -2.601  16.485  0.00  0.00     0.081 C 
ATOM      5  CG  MOL d           3.088  -4.088  16.588  0.00  0.00    -0.056 A 
ATOM      6  CD1 MOL d           3.043  -4.729  17.840  0.00  0.00     0.010 A 
ATOM      7  CD2 MOL d           3.069  -4.882  15.437  0.00  0.00     0.010 A 
ATOM      8  CE1 MOL d           3.007  -6.103  17.928  0.00  0.00     0.037 A 
ATOM      9  CE2 MOL d           3.027  -6.265  15.516  0.00  0.00     0.037 A 
ATOM     10  CZ  MOL d           3.006  -6.870  16.757  0.00  0.00     0.068 A 
ATOM     11  OH  MOL d           3.018  -8.249  16.778  0.00  0.00    -0.351 OA
ATOM     12  N   MOL d           6.302  -4.005  17.141  0.00  0.00    -0.346 N 
ATOM     13  CA  MOL d           7.239  -5.100  16.804  0.00  0.00     0.180 C 
ATOM     14  C   MOL d           6.869  -6.158  17.847  0.00  0.00     0.240 C 
ATOM     15  O   MOL d           6.850  -5.873  19.059  0.00  0.00    -0.271 OA
ATOM     16  N   MOL d           6.543  -7.355  17.370  0.00  0.00    -0.359 N 
ATOM     17  CA  MOL d           6.161  -8.448  18.247  0.00  0.00     0.125 C 
ATOM     18  C   MOL d           5.077  -9.284  17.577  0.00  0.00     0.046 C 
ATOM     19  C   MOL d           3.687  -8.760  17.916  0.00  0.00     0.177 C 
ATOM     20  H32 MOL d           6.082  -3.870  18.107  0.00  0.00     0.163 HD
ATOM     21  H43 MOL d           6.561  -7.507  16.382  0.00  0.00     0.162 HD
ENDROOT
BRANCH   1  22
ATOM     22  N   MOL d           4.980  -0.749  16.565  0.00  0.00    -0.060 N 
ATOM     23  H23 MOL d           5.924  -0.533  16.845  0.00  0.00     0.278 HD
ATOM     24  H24 MOL d           4.334  -0.203  17.113  0.00  0.00     0.278 HD
BRANCH  22  25
ATOM     25  CM  MOL d           4.826  -0.350  15.162  0.00  0.00     0.266 C 
BRANCH  25  26
ATOM     26  C   MOL d           6.025   0.540  14.867  0.00  0.00     0.166 C 
BRANCH  26  27
ATOM     27  O   MOL d           7.214  -0.158  15.210  0.00  0.00    -0.392 OA
ATOM     28  H22 MOL d           7.967   0.392  15.028  0.00  0.00     0.210 HD
ENDBRANCH  26  27
BRANCH  26  29
ATOM     29  CA  MOL d           6.086   0.898  13.394  0.00  0.00     0.121 C 
BRANCH  29  30
ATOM     30  CB  MOL d           7.325   1.731  13.147  0.00  0.00     0.066 C 
BRANCH  30  31
ATOM     31  CG  MOL d           7.517   2.083  11.738  0.00  0.00    -0.056 A 
ATOM     32  CD2 MOL d           7.277   3.381  11.300  0.00  0.00     0.007 A 
ATOM     33  CE2 MOL d           7.359   3.695   9.959  0.00  0.00     0.001 A 
ATOM     34  CZ  MOL d           7.686   2.701   9.042  0.00  0.00     0.000 A 
ATOM     35  CE1 MOL d           7.934   1.407   9.477  0.00  0.00     0.001 A 
ATOM     36  CD1 MOL d           7.852   1.103  10.818  0.00  0.00     0.007 A 
ENDBRANCH  30  31
ENDBRANCH  29  30
BRANCH  29  37
ATOM     37  N   MOL d           4.892   1.641  12.992  0.00  0.00    -0.329 N 
ATOM     38  C   MOL d           3.839   1.070  12.419  0.00  0.00     0.361 C 
ATOM     39  O1  MOL d           3.812  -0.151  12.128  0.00  0.00    -0.238 OA
ATOM     40  H12 MOL d           4.867   2.627  13.157  0.00  0.00     0.165 HD
BRANCH  38  41
ATOM     41  O2  MOL d           2.846   1.907  12.139  0.00  0.00    -0.294 OA
BRANCH  41  42
ATOM     42  CT  MOL d           1.609   1.362  11.669  0.00  0.00     0.061 C 
ATOM     43  C3  MOL d           1.815   0.746  10.269  0.00  0.00     0.046 C 
ATOM     44  C2  MOL d           0.650   2.515  11.579  0.00  0.00     0.046 C 
ATOM     45  C1  MOL d           1.066   0.359  12.657  0.00  0.00     0.046 C 
ENDBRANCH  41  42
ENDBRANCH  38  41
ENDBRANCH  29  37
ENDBRANCH  26  29
ENDBRANCH  25  26
ENDBRANCH  22  25
ENDBRANCH   1  22
BRANCH  13  46
ATOM     46  CB  MOL d           8.739  -4.777  17.039  0.00  0.00     0.013 C 
ATOM     47  CG2 MOL d           9.576  -6.027  16.773  0.00  0.00     0.012 C 
BRANCH  46  48
ATOM     48  CG1 MOL d           9.222  -3.621  16.161  0.00  0.00     0.002 C 
ATOM     49  CD1 MOL d           9.703  -4.059  14.843  0.00  0.00     0.005 C 
ENDBRANCH  46  48
ENDBRANCH  13  46
TORSDOF 12
