REMARK  1 active torsions:
REMARK  status: ('A' for Active; 'I' for Inactive)
REMARK    1  A    between atoms: C6_6  and  N6_7 
ROOT
ATOM      1  N9  ADK d          30.561 -19.825   2.766  0.00  0.00    -0.222 NA
ATOM      2  C4  ADK d          29.704 -20.815   2.476  0.00  0.00     0.164 A 
ATOM      3  N3  ADK d          29.906 -22.139   2.282  0.00  0.00    -0.329 N 
ATOM      4  C2  ADK d          28.836 -22.957   1.995  0.00  0.00     0.213 A 
ATOM      5  N1  ADK d          27.613 -22.481   1.908  0.00  0.00    -0.224 NA
ATOM      6  C6  ADK d          27.423 -21.134   2.120  0.00  0.00     0.155 A 
ATOM      7  C5  ADK d          28.463 -20.316   2.414  0.00  0.00     0.149 A 
ATOM      8  N7  ADK d          28.556 -19.010   2.666  0.00  0.00    -0.234 NA
ATOM      9  C8  ADK d          29.838 -18.690   2.894  0.00  0.00     0.236 A 
ATOM     10  C3A ADK d          31.285 -22.735   2.344  0.00  0.00     0.159 C 
ENDROOT
BRANCH   6  11
ATOM     11  N6  ADK d          26.192 -20.644   2.052  0.00  0.00    -0.382 N 
ATOM     12  H2  ADK d          26.028 -19.639   2.207  0.00  0.00     0.157 HD
ATOM     13  H3  ADK d          25.400 -21.269   1.844  0.00  0.00     0.157 HD
ENDBRANCH   6  11
TORSDOF 1
