REMARK  5 active torsions:
REMARK  status: ('A' for Active; 'I' for Inactive)
REMARK    1  A    between atoms: C14_10  and  C18_11 
REMARK    2  A    between atoms: C24_14  and  N27_15 
REMARK    3  A    between atoms: C17_23  and  C31_24 
REMARK    4  A    between atoms: C17_23  and  O3_27 
REMARK    5  A    between atoms: C31_24  and  C30_25 
ROOT
ATOM      1  O30 486 d          -4.583  18.217   3.520  0.00  0.00    -0.293 OA
ATOM      2  C2  486 d          -3.993  17.199   3.713  0.00  0.00     0.150 C 
ATOM      3  C1  486 d          -4.701  15.838   4.087  0.00  0.00     0.087 C 
ATOM      4  C3  486 d          -2.502  17.082   3.534  0.00  0.00     0.057 C 
ATOM      5  C4  486 d          -1.997  15.856   3.229  0.00  0.00    -0.048 C 
ATOM      6  C7  486 d          -0.439  15.746   3.105  0.00  0.00     0.040 C 
ATOM      7  C5  486 d          -2.936  14.701   3.175  0.00  0.00    -0.048 C 
ATOM      8  C6  486 d          -4.475  15.066   2.840  0.00  0.00     0.047 C 
ATOM      9  C10 486 d          -2.412  13.438   3.488  0.00  0.00    -0.060 C 
ATOM     10  C14 486 d          -3.239  12.007   3.531  0.00  0.00     0.049 C 
ATOM     11  C13 486 d          -2.646  11.054   4.596  0.00  0.00     0.026 C 
ATOM     12  C12 486 d          -1.136  11.038   5.007  0.00  0.00    -0.003 C 
ATOM     13  C19 486 d          -0.417  10.110   3.858  0.00  0.00     0.019 C 
ATOM     14  C17 486 d          -0.853  10.348   6.380  0.00  0.00     0.094 C 
ATOM     15  C16 486 d           0.623  10.861   6.467  0.00  0.00     0.044 C 
ATOM     16  C15 486 d           0.684  12.259   5.776  0.00  0.00     0.009 C 
ATOM     17  C11 486 d          -0.762  12.555   5.197  0.00  0.00     0.005 C 
ATOM     18  C9  486 d          -0.819  13.359   3.895  0.00  0.00     0.021 C 
ATOM     19  C8  486 d          -0.045  14.723   4.134  0.00  0.00     0.014 C 
ENDROOT
BRANCH  10  20
ATOM     20  C18 486 d          -3.191  11.406   2.071  0.00  0.00    -0.050 A 
ATOM     21  C22 486 d          -2.334  12.025   1.058  0.00  0.00     0.010 A 
ATOM     22  C23 486 d          -2.173  11.511  -0.211  0.00  0.00     0.030 A 
ATOM     23  C24 486 d          -2.835  10.288  -0.595  0.00  0.00     0.029 A 
ATOM     24  C25 486 d          -3.712   9.657   0.418  0.00  0.00     0.030 A 
ATOM     25  C26 486 d          -3.862  10.189   1.721  0.00  0.00     0.010 A 
BRANCH  23  26
ATOM     26  N27 486 d          -2.779   9.715  -1.926  0.00  0.00    -0.390 N 
ATOM     27  C29 486 d          -3.542   8.490  -2.177  0.00  0.00     0.149 C 
ATOM     28  C28 486 d          -2.371  10.510  -3.114  0.00  0.00     0.149 C 
ENDBRANCH  23  26
ENDBRANCH  10  20
BRANCH  14  29
ATOM     29  C31 486 d          -1.587  10.882   7.598  0.00  0.00    -0.007 C 
BRANCH  29  30
ATOM     30  C30 486 d          -2.485  11.042   8.391  0.00  0.00    -0.045 C 
ATOM     31  C32 486 d          -3.164  11.448   9.656  0.00  0.00     0.049 C 
ENDBRANCH  29  30
ENDBRANCH  14  29
BRANCH  14  32
ATOM     32  O3  486 d          -0.920   8.898   6.308  0.00  0.00    -0.384 OA
ATOM     33  H27 486 d          -0.453   8.598   5.537  0.00  0.00     0.211 HD
ENDBRANCH  14  32
TORSDOF 5
