REMARK  14 active torsions:
REMARK  status: ('A' for Active; 'I' for Inactive)
REMARK    1  A    between atoms: PA_1  and  O3A_8 
REMARK    2  A    between atoms: O01_9  and  PA_1 
REMARK    3  A    between atoms: O3A_8  and  PB_5 
REMARK    4  A    between atoms: C01_10  and  O01_9 
REMARK    5  A    between atoms: C05_11  and  C01_10 
REMARK    6  A    between atoms: C04_12  and  C05_11 
REMARK    7  A    between atoms: C7_32  and  C02_16 
REMARK    8  A    between atoms: N3_17  and  C18_18 
REMARK    9  A    between atoms: C18_18  and  C19_19 
REMARK   10  A    between atoms: C21_21  and  N22_22 
REMARK   11  A    between atoms: P8_28  and  O9_30 
REMARK   12  A    between atoms: P8_28  and  C7_32 
REMARK   13  A    between atoms: C7_32  and  O7_33 
REMARK   14  A    between atoms: C7_32  and  C2_34 
ROOT
ATOM      1  C04 D7K d           0.021 -46.096 -28.172  0.00  0.00     0.082 A 
ATOM      2  C03 D7K d           1.535 -45.934 -28.553  0.00  0.00     0.200 A 
ATOM      3  CM4 D7K d           2.169 -46.363 -29.881  0.00  0.00     0.041 C 
ATOM      4  S1  D7K d          -0.243 -45.512 -26.644  0.00  0.00    -0.125 SA
ATOM      5  C02 D7K d           1.400 -45.021 -26.240  0.00  0.00     0.298 A 
ATOM      6  N3  D7K d           2.346 -45.276 -27.401  0.00  0.00    -0.046 N 
ATOM      7  H11 D7K d           2.183 -44.350 -27.765  0.00  0.00     0.282 HD
ENDROOT
BRANCH   6   8
ATOM      8  C18 D7K d           3.781 -45.001 -27.472  0.00  0.00     0.276 C 
BRANCH   8   9
ATOM      9  C19 D7K d           4.609 -46.288 -27.448  0.00  0.00     0.018 A 
ATOM     10  C20 D7K d           5.510 -46.618 -28.584  0.00  0.00     0.093 A 
ATOM     11  N25 D7K d           6.307 -47.845 -28.485  0.00  0.00    -0.372 N 
ATOM     12  C24 D7K d           6.251 -48.746 -27.281  0.00  0.00     0.282 A 
ATOM     13  H22 D7K d           6.927 -48.099 -29.267  0.00  0.00     0.161 HD
ATOM     14  N23 D7K d           5.349 -48.390 -26.175  0.00  0.00    -0.022 N 
ATOM     15  CM2 D7K d           7.056 -50.031 -27.181  0.00  0.00     0.063 C 
ATOM     16  C21 D7K d           4.556 -47.193 -26.247  0.00  0.00     0.415 A 
ATOM     17  H19 D7K d           4.706 -49.158 -26.066  0.00  0.00     0.282 HD
ATOM     18  H20 D7K d           5.920 -48.310 -25.348  0.00  0.00     0.282 HD
BRANCH  16  19
ATOM     19  N22 D7K d           3.720 -46.917 -25.124  0.00  0.00    -0.046 N 
ATOM     20  H16 D7K d           3.834 -47.643 -24.434  0.00  0.00     0.277 HD
ATOM     21  H17 D7K d           2.757 -46.884 -25.422  0.00  0.00     0.277 HD
ATOM     22  H18 D7K d           3.978 -46.029 -24.723  0.00  0.00     0.277 HD
ENDBRANCH  16  19
ENDBRANCH   8   9
ENDBRANCH   6   8
BRANCH   5  23
ATOM     23  C7  D7K d           1.653 -44.168 -24.964  0.00  0.00     0.204 C 
BRANCH  23  24
ATOM     24  P8  D7K d           1.662 -42.330 -25.385  0.00  0.00     0.288 P 
ATOM     25  O12 D7K d           2.827 -42.212 -26.524  0.00  0.00    -0.644 OA
ATOM     26  O11 D7K d           0.365 -41.858 -25.919  0.00  0.00    -0.644 OA
BRANCH  24  27
ATOM     27  O9  D7K d           2.031 -41.484 -23.972  0.00  0.00    -0.315 OA
ATOM     28  C10 D7K d           1.033 -40.881 -23.180  0.00  0.00     0.213 C 
ENDBRANCH  24  27
ENDBRANCH  23  24
BRANCH  23  29
ATOM     29  O7  D7K d           2.962 -44.434 -24.467  0.00  0.00    -0.374 OA
ATOM     30  H29 D7K d           3.602 -44.229 -25.138  0.00  0.00     0.211 HD
ENDBRANCH  23  29
BRANCH  23  31
ATOM     31  C2  D7K d           0.530 -44.512 -23.919  0.00  0.00     0.036 A 
ATOM     32  C3  D7K d           0.756 -45.613 -22.837  0.00  0.00     0.008 A 
ATOM     33  C4  D7K d          -0.319 -45.957 -21.804  0.00  0.00     0.001 A 
ATOM     34  C5  D7K d          -1.682 -45.216 -21.823  0.00  0.00     0.000 A 
ATOM     35  C6  D7K d          -1.928 -44.124 -22.878  0.00  0.00     0.001 A 
ATOM     36  C1  D7K d          -0.834 -43.781 -23.922  0.00  0.00     0.008 A 
ENDBRANCH  23  31
ENDBRANCH   5  23
BRANCH   1  37
ATOM     37  C05 D7K d          -1.056 -46.694 -29.085  0.00  0.00     0.044 C 
BRANCH  37  38
ATOM     38  C01 D7K d          -1.348 -48.159 -28.776  0.00  0.00     0.182 C 
BRANCH  38  39
ATOM     39  O01 D7K d          -2.140 -48.573 -29.852  0.00  0.00    -0.289 OA
BRANCH  39  40
ATOM     40  PA  D7K d          -2.935 -50.003 -29.790  0.00  0.00     0.418 P 
ATOM     41  O1A D7K d          -3.469 -50.392 -31.299  0.00  0.00    -0.624 OA
ATOM     42  O2A D7K d          -2.151 -51.196 -29.377  0.00  0.00    -0.624 OA
BRANCH  40  43
ATOM     43  O3A D7K d          -4.087 -49.816 -28.644  0.00  0.00    -0.173 OA
BRANCH  43  44
ATOM     44  PB  D7K d          -5.228 -48.622 -28.719  0.00  0.00     0.431 P 
ATOM     45  O1B D7K d          -6.532 -49.379 -28.037  0.00  0.00    -0.616 OA
ATOM     46  O2B D7K d          -5.371 -48.181 -30.311  0.00  0.00    -0.616 OA
ATOM     47  O3B D7K d          -4.788 -47.428 -27.944  0.00  0.00    -0.616 OA
ENDBRANCH  43  44
ENDBRANCH  40  43
ENDBRANCH  39  40
ENDBRANCH  38  39
ENDBRANCH  37  38
ENDBRANCH   1  37
TORSDOF 14
