REMARK  7 active torsions:
REMARK  status: ('A' for Active; 'I' for Inactive)
REMARK    1  A    between atoms: C15_6  and  C31_1 
REMARK    2  A    between atoms: C31_1  and  C1_24 
REMARK       I    between atoms: N_2  and  C47_3 
REMARK    3  A    between atoms: N_2  and  C15_6 
REMARK    4  A    between atoms: C15_6  and  C14_7 
REMARK       I    between atoms: C14_7  and  N1_9 
REMARK    5  A    between atoms: C32_13  and  C7_14 
REMARK       I    between atoms: C7_14  and  N23_15 
REMARK    6  A    between atoms: N23_15  and  C24_16 
REMARK    7  A    between atoms: C24_16  and  C25_17 
ROOT
ATOM      1  C14 MOL d          17.269 -13.532  22.462  0.00  0.00     0.243 C 
ATOM      2  O32 MOL d          16.222 -13.073  22.902  0.00  0.00    -0.271 OA
ATOM      3  N1  MOL d          17.929 -12.993  21.393  0.00  0.00    -0.337 N 
ATOM      4  C33 MOL d          19.090 -13.678  20.801  0.00  0.00     0.127 C 
ATOM      5  C34 MOL d          19.578 -12.604  19.799  0.00  0.00     0.022 C 
ATOM      6  C35 MOL d          18.260 -11.909  19.392  0.00  0.00     0.037 C 
ATOM      7  C32 MOL d          17.484 -11.776  20.739  0.00  0.00     0.179 C 
ENDROOT
BRANCH   1   8
ATOM      8  C15 MOL d          17.804 -14.742  23.194  0.00  0.00     0.177 C 
BRANCH   8   9
ATOM      9  C31 MOL d          18.066 -14.425  24.704  0.00  0.00     0.039 C 
BRANCH   9  10
ATOM     10  C1  MOL d          19.596 -14.369  25.012  0.00  0.00    -0.012 C 
ATOM     11  C6  MOL d          20.434 -14.473  23.703  0.00  0.00     0.005 C 
ATOM     12  C5  MOL d          21.931 -14.671  24.048  0.00  0.00     0.000 C 
ATOM     13  C4  MOL d          22.432 -13.532  24.955  0.00  0.00     0.000 C 
ATOM     14  C3  MOL d          21.535 -13.261  26.178  0.00  0.00     0.000 C 
ATOM     15  C2  MOL d          20.041 -13.096  25.782  0.00  0.00     0.005 C 
ENDBRANCH   9  10
ENDBRANCH   8   9
BRANCH   8  16
ATOM     16  N   MOL d          16.897 -15.896  23.139  0.00  0.00    -0.348 N 
ATOM     17  C47 MOL d          17.246 -17.062  23.764  0.00  0.00     0.214 C 
ATOM     18  C49 MOL d          16.673 -17.510  25.083  0.00  0.00     0.117 C 
ATOM     19  O48 MOL d          18.083 -17.793  23.247  0.00  0.00    -0.274 OA
ATOM     20  H3  MOL d          16.029 -15.830  22.647  0.00  0.00     0.163 HD
ENDBRANCH   8  16
ENDBRANCH   1   8
BRANCH   7  21
ATOM     21  C7  MOL d          15.999 -11.737  20.460  0.00  0.00     0.240 C 
ATOM     22  N23 MOL d          15.308 -10.583  20.646  0.00  0.00    -0.355 N 
ATOM     23  H15 MOL d          15.763  -9.754  20.970  0.00  0.00     0.162 HD
ATOM     24  O22 MOL d          15.420 -12.743  20.072  0.00  0.00    -0.271 OA
BRANCH  22  25
ATOM     25  C24 MOL d          13.873 -10.596  20.356  0.00  0.00     0.161 C 
BRANCH  25  26
ATOM     26  C25 MOL d          13.016 -10.495  21.623  0.00  0.00    -0.039 A 
ATOM     27  C30 MOL d          13.073  -9.343  22.423  0.00  0.00     0.032 A 
ATOM     28  C29 MOL d          12.322  -9.271  23.607  0.00  0.00     0.034 A 
ATOM     29  C28 MOL d          11.428 -10.292  23.942  0.00  0.00     0.024 A 
ATOM     30 CL21 MOL d          12.457  -7.854  24.634  0.00  0.00    -0.084 Cl
ATOM     31  C27 MOL d          11.370 -11.447  23.135  0.00  0.00     0.002 A 
ATOM     32  C26 MOL d          12.144 -11.525  21.971  0.00  0.00     0.009 A 
ENDBRANCH  25  26
ENDBRANCH  22  25
ENDBRANCH   7  21
TORSDOF 7
