3sbi_ligand

Created by X-TOOL on Fri Sep 26 17:34:53 2014
 31 32  0  0  0  0  0  0  0  0999 V2000
   -1.4790    7.6830   14.3790  N 0  0  0  1  0  2
   -1.4180    7.8330   13.0180  C 0  0  0  1  0  3
   -1.1600    8.9920   12.3710  N 0  0  0  1  0  2
   -0.9880   10.1100   13.1510  C 0  0  0  2  0  3
   -0.9810   10.0090   14.5590  C 0  0  0  2  0  3
   -1.3000    8.7590   15.1460  C 0  0  0  2  0  3
   -1.5940    6.5000   11.9640  S 0  0  0  1  0  2
   -2.1290    5.1910   13.1300  C 0  0  0  3  0  4
   -3.6070    5.3290   13.5370  C 0  0  0  1  0  3
   -4.3230    6.2820   13.1760  O 0  0  0  1  0  1
   -4.2050    4.2530   14.3930  C 0  0  0  1  0  3
   -3.4050    3.1720   14.8040  C 0  0  0  2  0  3
   -3.9480    2.1640   15.5630  C 0  0  0  2  0  3
   -5.3020    2.2080   15.8730  C 0  0  0  1  0  3
   -6.1250    3.2320   15.4790  C 0  0  0  2  0  3
   -5.5450    4.2850   14.7680  C 0  0  0  2  0  3
   -5.9470    0.8670   16.8390  S 0  0  0  1  0  4
   -5.3920    1.0640   18.1650  O 0  0  0  1  0  1
   -7.4020    0.9580   16.7000  O 0  0  0  1  0  1
   -5.3270   -0.5120   16.2250  N 0  0  0  3  0  3
   -0.8565   11.0780   12.6811  H 0  0  0  1  0  1
   -0.7376   10.8664   15.1761  H 0  0  0  1  0  1
   -1.3988    8.6774   16.2224  H 0  0  0  1  0  1
   -1.5073    5.2501   14.0355  H 0  0  0  1  0  1
   -1.9857    4.2116   12.6501  H 0  0  0  1  0  1
   -2.3591    3.1341   14.5217  H 0  0  0  1  0  1
   -3.3295    1.3463   15.9150  H 0  0  0  1  0  1
   -7.1840    3.2244   15.7103  H 0  0  0  1  0  1
   -6.1505    5.1442   14.5030  H 0  0  0  1  0  1
   -5.5685   -1.3932   16.6314  H 0  0  0  1  0  1
   -4.7056   -0.4758   15.4424  H 0  0  0  1  0  1
  1  2  4  0  0  1
  1  6  4  0  0  1
  2  3  4  0  0  1
  2  7  1  0  0  2
  3  4  4  0  0  1
  4  5  4  0  0  1
  5  6  4  0  0  1
  7  8  1  0  0  2
  8  9  1  0  0  2
  9 10  2  0  0  2
  9 11  1  0  0  2
 11 12  4  0  0  1
 11 16  4  0  0  1
 12 13  4  0  0  1
 13 14  4  0  0  1
 14 15  4  0  0  1
 14 17  1  0  0  2
 15 16  4  0  0  1
 17 18  2  0  0  2
 17 19  2  0  0  2
 17 20  1  0  0  2
  4 21  1  0  0  2
  5 22  1  0  0  2
  6 23  1  0  0  2
  8 24  1  0  0  2
  8 25  1  0  0  2
 12 26  1  0  0  2
 13 27  1  0  0  2
 15 28  1  0  0  2
 16 29  1  0  0  2
 20 30  1  0  0  2
 20 31  1  0  0  2
M  END
> <MOLECULAR_FORMULA>
C12H11N3O3S2

> <MOLECULAR_WEIGHT>
309.3

> <NUM_HB_ATOMS>
7  

> <NUM_ROTOR>
4  

> <XLOGP2>
1.06 

$$$$
