REMARK  14 active torsions:
REMARK  status: ('A' for Active; 'I' for Inactive)
REMARK    1  A    between atoms: CAO_2  and  CBG_3 
REMARK    2  A    between atoms: CBG_3  and  CAZ_4 
REMARK    3  A    between atoms: CBG_3  and  OAX_8 
REMARK    4  A    between atoms: OAX_8  and  CBB_9 
REMARK    5  A    between atoms: CBA_14  and  CAT_15 
REMARK    6  A    between atoms: CAT_15  and  CAV_16 
REMARK    7  A    between atoms: CAV_16  and  NBF_17 
REMARK    8  A    between atoms: NBF_17  and  CAU_18 
REMARK    9  A    between atoms: NBF_17  and  CBC_25 
REMARK   10  A    between atoms: CAU_18  and  CAS_19 
REMARK   11  A    between atoms: CAS_19  and  CAR_20 
REMARK   12  A    between atoms: CAR_20  and  CAQ_21 
REMARK   13  A    between atoms: CAQ_21  and  CAP_22 
REMARK   14  A    between atoms: CAP_22  and  CAN_23 
ROOT
ATOM      1  NBF DRJ d          15.246  16.356  12.950  0.00  0.00    -0.345 N 
ENDROOT
BRANCH   1   2
ATOM      2  CAV DRJ d          15.827  16.631  14.268  0.00  0.00     0.131 C 
BRANCH   2   3
ATOM      3  CAT DRJ d          16.810  15.516  14.637  0.00  0.00     0.058 C 
BRANCH   3   4
ATOM      4  CBA DRJ d          17.822  16.045  15.651  0.00  0.00    -0.057 A 
ATOM      5  CAI DRJ d          17.479  16.150  16.998  0.00  0.00     0.010 A 
ATOM      6  CAK DRJ d          18.359  16.752  17.889  0.00  0.00     0.037 A 
ATOM      7  CBB DRJ d          19.584  17.250  17.444  0.00  0.00     0.070 A 
ATOM      8  CAJ DRJ d          19.930  17.123  16.103  0.00  0.00     0.037 A 
ATOM      9  CAH DRJ d          19.050  16.521  15.206  0.00  0.00     0.010 A 
BRANCH   7  10
ATOM     10  OAX DRJ d          20.457  17.871  18.287  0.00  0.00    -0.330 OA
BRANCH  10  11
ATOM     11  CBG DRJ d          19.978  18.666  19.381  0.00  0.00     0.151 C 
ATOM     12  CAC DRJ d          18.985  19.715  18.869  0.00  0.00     0.059 C 
BRANCH  11  13
ATOM     13  CAO DRJ d          21.195  19.343  20.018  0.00  0.00     0.045 C 
ATOM     14  CAB DRJ d          20.846  20.195  21.242  0.00  0.00     0.009 C 
ENDBRANCH  11  13
BRANCH  11  15
ATOM     15  CAZ DRJ d          19.314  17.769  20.431  0.00  0.00     0.209 C 
ATOM     16  OAE DRJ d          20.050  16.929  20.994  0.00  0.00    -0.646 OA
ATOM     17  OAD DRJ d          18.095  17.935  20.649  0.00  0.00    -0.646 OA
ENDBRANCH  11  15
ENDBRANCH  10  11
ENDBRANCH   7  10
ENDBRANCH   3   4
ENDBRANCH   2   3
ENDBRANCH   1   2
BRANCH   1  18
ATOM     18  CAU DRJ d          13.913  15.734  12.838  0.00  0.00     0.126 C 
BRANCH  18  19
ATOM     19  CAS DRJ d          13.573  14.968  14.119  0.00  0.00     0.020 C 
BRANCH  19  20
ATOM     20  CAR DRJ d          12.180  14.332  14.080  0.00  0.00     0.002 C 
BRANCH  20  21
ATOM     21  CAQ DRJ d          11.814  13.812  15.475  0.00  0.00     0.000 C 
BRANCH  21  22
ATOM     22  CAP DRJ d          10.323  13.470  15.575  0.00  0.00    -0.000 C 
BRANCH  22  23
ATOM     23  CAN DRJ d           9.932  13.298  17.047  0.00  0.00    -0.005 C 
ATOM     24  CAA DRJ d           8.559  12.635  17.180  0.00  0.00     0.005 C 
ENDBRANCH  22  23
ENDBRANCH  21  22
ENDBRANCH  20  21
ENDBRANCH  19  20
ENDBRANCH  18  19
ENDBRANCH   1  18
BRANCH   1  25
ATOM     25  CBC DRJ d          15.986  16.651  11.888  0.00  0.00     0.250 A 
ATOM     26  OAY DRJ d          17.257  17.137  11.994  0.00  0.00    -0.276 OA
ATOM     27  CBE DRJ d          17.726  17.281  10.721  0.00  0.00     0.108 A 
ATOM     28  CAM DRJ d          18.935  17.728  10.213  0.00  0.00     0.040 A 
ATOM     29  CBD DRJ d          16.702  16.873   9.864  0.00  0.00     0.095 A 
ATOM     30  CAG DRJ d          19.136  17.774   8.831  0.00  0.00     0.003 A 
ATOM     31  CAF DRJ d          18.121  17.371   7.977  0.00  0.00     0.002 A 
ATOM     32  CAL DRJ d          16.903  16.920   8.495  0.00  0.00     0.034 A 
ATOM     33  NAW DRJ d          15.662  16.497  10.610  0.00  0.00    -0.206 NA
ENDBRANCH   1  25
TORSDOF 14
