REMARK  6 active torsions:
REMARK  status: ('A' for Active; 'I' for Inactive)
REMARK    1  A    between atoms: C8_8  and  C4_4 
REMARK    2  A    between atoms: N12_12  and  C7_7 
REMARK       I    between atoms: N11_11  and  C8_8 
REMARK    3  A    between atoms: C10_10  and  C9_9 
REMARK    4  A    between atoms: C9_9  and  N11_11 
REMARK    5  A    between atoms: C10_10  and  N12_12 
REMARK    6  A    between atoms: N12_12  and  O15_15 
ROOT
ATOM      1  C8  MOL d          26.435  -5.090   5.692  0.00  0.00     0.253 C 
ATOM      2  N11 MOL d          27.667  -5.568   5.351  0.00  0.00    -0.355 N 
ATOM      3  O14 MOL d          25.680  -4.533   4.906  0.00  0.00    -0.268 OA
ATOM      4  H9  MOL d          28.244  -6.009   6.038  0.00  0.00     0.162 HD
ENDROOT
BRANCH   1   5
ATOM      5  C4  MOL d          26.049  -5.338   7.096  0.00  0.00     0.055 A 
ATOM      6  C2  MOL d          25.520  -6.572   7.401  0.00  0.00     0.019 A 
ATOM      7  C1  MOL d          25.139  -6.863   8.688  0.00  0.00     0.003 A 
ATOM      8  C3  MOL d          25.286  -5.925   9.685  0.00  0.00     0.026 A 
ATOM      9  C5  MOL d          25.819  -4.697   9.371  0.00  0.00     0.056 A 
ATOM     10  C6  MOL d          26.205  -4.388   8.083  0.00  0.00     0.071 A 
ATOM     11 CL16 MOL d          25.981  -3.560  10.649  0.00  0.00    -0.083 Cl
ATOM     12 CL17 MOL d          26.871  -2.830   7.719  0.00  0.00    -0.081 Cl
ENDBRANCH   1   5
BRANCH   2  13
ATOM     13  C9  MOL d          28.130  -5.432   3.991  0.00  0.00     0.145 C 
BRANCH  13  14
ATOM     14  C10 MOL d          28.303  -3.979   3.593  0.00  0.00     0.178 C 
BRANCH  14  15
ATOM     15  N12 MOL d          29.447  -3.396   4.248  0.00  0.00    -0.234 N 
BRANCH  15  16
ATOM     16  C7  MOL d          29.519  -2.186   4.880  0.00  0.00     0.376 C 
ATOM     17  O13 MOL d          30.511  -1.720   5.418  0.00  0.00    -0.281 OA
ENDBRANCH  15  16
BRANCH  15  18
ATOM     18  O15 MOL d          30.635  -4.139   4.246  0.00  0.00    -0.285 OA
ATOM     19  H10 MOL d          31.311  -3.654   4.704  0.00  0.00     0.245 HD
ENDBRANCH  15  18
ENDBRANCH  14  15
ENDBRANCH  13  14
ENDBRANCH   2  13
TORSDOF 6
