REMARK  14 active torsions:
REMARK  status: ('A' for Active; 'I' for Inactive)
REMARK    1  A    between atoms: C2_2  and  N1_1 
REMARK    2  A    between atoms: S8_8  and  C5_5 
REMARK    3  A    between atoms: N11_11  and  S8_8 
REMARK    4  A    between atoms: N11_11  and  C12_12 
REMARK    5  A    between atoms: C16_16  and  N11_11 
REMARK    6  A    between atoms: C12_12  and  C13_13 
REMARK    7  A    between atoms: C17_17  and  C16_16 
REMARK    8  A    between atoms: C17_17  and  O18_18 
REMARK    9  A    between atoms: C19_19  and  C17_17 
REMARK   10  A    between atoms: C19_19  and  N20_20 
REMARK   11  A    between atoms: C32_32  and  C19_19 
REMARK       I    between atoms: N20_20  and  C21_21 
REMARK   12  A    between atoms: C21_21  and  O23_23 
REMARK   13  A    between atoms: O23_23  and  C24_24 
REMARK   14  A    between atoms: C38_38  and  C32_32 
ROOT
ATOM      1  C17 MOL d          13.753  62.097  18.113  0.00  0.00     0.160 C 
ENDROOT
BRANCH   1   2
ATOM      2  C16 MOL d          12.614  61.177  17.566  0.00  0.00     0.169 C 
BRANCH   2   3
ATOM      3  N11 MOL d          11.306  61.857  17.590  0.00  0.00    -0.304 N 
BRANCH   3   4
ATOM      4  S8  MOL d          10.644  62.218  15.953  0.00  0.00     0.260 S 
ATOM      5  O9  MOL d          11.853  62.498  15.029  0.00  0.00    -0.200 OA
ATOM      6  O10 MOL d           9.662  63.393  16.179  0.00  0.00    -0.200 OA
BRANCH   4   7
ATOM      7  C5  MOL d           9.766  60.715  15.428  0.00  0.00     0.079 A 
ATOM      8  C4  MOL d          10.581  59.833  14.707  0.00  0.00     0.027 A 
ATOM      9  C3  MOL d          10.010  58.663  14.271  0.00  0.00     0.030 A 
ATOM     10  C2  MOL d           8.673  58.423  14.571  0.00  0.00     0.025 A 
ATOM     11  C7  MOL d           7.837  59.282  15.292  0.00  0.00     0.030 A 
ATOM     12  C6  MOL d           8.429  60.481  15.734  0.00  0.00     0.027 A 
BRANCH  10  13
ATOM     13  N1  MOL d           8.199  57.263  14.113  0.00  0.00    -0.399 N 
ATOM     14  H1  MOL d           8.813  56.629  13.582  0.00  0.00     0.156 HD
ATOM     15  H2  MOL d           7.219  57.001  14.290  0.00  0.00     0.156 HD
ENDBRANCH  10  13
ENDBRANCH   4   7
ENDBRANCH   3   4
BRANCH   3  16
ATOM     16  C12 MOL d          10.286  61.594  18.641  0.00  0.00     0.139 C 
BRANCH  16  17
ATOM     17  C13 MOL d          10.792  62.188  19.986  0.00  0.00    -0.004 C 
ATOM     18  C14 MOL d          10.779  63.699  19.852  0.00  0.00     0.011 C 
ATOM     19  C15 MOL d           9.874  61.739  21.095  0.00  0.00     0.011 C 
ENDBRANCH  16  17
ENDBRANCH   3  16
ENDBRANCH   2   3
ENDBRANCH   1   2
BRANCH   1  20
ATOM     20  O18 MOL d          14.918  61.281  18.305  0.00  0.00    -0.392 OA
ATOM     21  H19 MOL d          15.628  61.818  18.638  0.00  0.00     0.210 HD
ENDBRANCH   1  20
BRANCH   1  22
ATOM     22  C19 MOL d          14.114  63.216  17.078  0.00  0.00     0.121 C 
BRANCH  22  23
ATOM     23  N20 MOL d          14.971  64.131  17.772  0.00  0.00    -0.329 N 
ATOM     24  C21 MOL d          14.630  65.388  18.105  0.00  0.00     0.361 C 
ATOM     25  O22 MOL d          13.536  65.949  17.824  0.00  0.00    -0.238 OA
ATOM     26  H21 MOL d          15.884  63.813  18.026  0.00  0.00     0.165 HD
BRANCH  24  27
ATOM     27  O23 MOL d          15.742  65.916  18.815  0.00  0.00    -0.296 OA
BRANCH  27  28
ATOM     28  C24 MOL d          15.631  67.385  19.022  0.00  0.00     0.166 C 
ATOM     29  C25 MOL d          16.276  67.573  20.417  0.00  0.00     0.204 C 
ATOM     30  O26 MOL d          17.703  67.492  20.220  0.00  0.00    -0.358 OA
ATOM     31  C27 MOL d          17.945  67.923  18.890  0.00  0.00     0.266 C 
ATOM     32  O28 MOL d          18.855  67.057  18.182  0.00  0.00    -0.361 OA
ATOM     33  C31 MOL d          16.682  68.100  18.165  0.00  0.00     0.075 C 
ATOM     34  C29 MOL d          18.078  66.545  17.107  0.00  0.00     0.171 C 
ATOM     35  C30 MOL d          17.033  67.625  16.763  0.00  0.00     0.038 C 
ENDBRANCH  27  28
ENDBRANCH  24  27
ENDBRANCH  22  23
BRANCH  22  36
ATOM     36  C32 MOL d          14.824  62.710  15.783  0.00  0.00     0.066 C 
BRANCH  36  37
ATOM     37  C38 MOL d          15.259  63.920  14.913  0.00  0.00    -0.056 A 
ATOM     38  C33 MOL d          16.591  64.328  14.797  0.00  0.00     0.007 A 
ATOM     39  C34 MOL d          16.959  65.449  13.988  0.00  0.00     0.001 A 
ATOM     40  C35 MOL d          15.941  66.122  13.321  0.00  0.00     0.000 A 
ATOM     41  C36 MOL d          14.609  65.734  13.421  0.00  0.00     0.001 A 
ATOM     42  C37 MOL d          14.289  64.642  14.218  0.00  0.00     0.007 A 
ENDBRANCH  36  37
ENDBRANCH  22  36
ENDBRANCH   1  22
TORSDOF 14
