REMARK  2 active torsions:
REMARK  status: ('A' for Active; 'I' for Inactive)
REMARK    1  A    between atoms: C3_4  and  C6_5 
REMARK    2  A    between atoms: N1_11  and  O2_12 
ROOT
ATOM      1  S1  MOL d          14.783   0.371  16.982  0.00  0.00    -0.058 SA
ATOM      2  C1  MOL d          15.448   1.379  15.756  0.00  0.00     0.129 A 
ATOM      3  C2  MOL d          15.203   2.818  15.780  0.00  0.00     0.060 A 
ATOM      4  C3  MOL d          15.723   3.603  14.821  0.00  0.00     0.052 A 
ATOM      5  C4  MOL d          16.504   3.035  13.794  0.00  0.00     0.036 A 
ATOM      6  C5  MOL d          16.737   1.654  13.773  0.00  0.00     0.125 A 
ATOM      7  N1  MOL d          16.198   0.838  14.769  0.00  0.00    -0.225 N 
ENDROOT
BRANCH   4   8
ATOM      8  C6  MOL d          15.466   5.132  14.842  0.00  0.00     0.417 C 
ATOM      9  F1  MOL d          14.947   5.459  15.950  0.00  0.00    -0.166 F 
ATOM     10  F2  MOL d          16.637   5.788  14.682  0.00  0.00    -0.166 F 
ATOM     11  F3  MOL d          14.671   5.443  13.893  0.00  0.00    -0.166 F 
ENDBRANCH   4   8
BRANCH   7  12
ATOM     12  O2  MOL d          16.422  -0.479  14.746  0.00  0.00    -0.282 OA
ATOM     13  H4  MOL d          16.079  -0.843  13.938  0.00  0.00     0.245 HD
ENDBRANCH   7  12
TORSDOF 2
