REMARK  14 active torsions:
REMARK  status: ('A' for Active; 'I' for Inactive)
REMARK       I    between atoms: C4_5  and  N1_1 
REMARK    1  A    between atoms: N1_1  and  C5_7 
REMARK       I    between atoms: C13_25  and  N3_4 
REMARK    2  A    between atoms: N3_4  and  C14_27 
REMARK    3  A    between atoms: CA_18  and  C4_5 
REMARK    4  A    between atoms: N_14  and  O4_6 
REMARK    5  A    between atoms: C5_7  and  C6_8 
REMARK    6  A    between atoms: C5_7  and  C10_11 
REMARK       I    between atoms: C10_11  and  N2_24 
REMARK    7  A    between atoms: N2_24  and  C11_12 
REMARK    8  A    between atoms: C11_12  and  C13_25 
REMARK       I    between atoms: C_15  and  N_14 
REMARK    9  A    between atoms: C0_17  and  C_15 
REMARK   10  A    between atoms: CA_18  and  C0_17 
REMARK   11  A    between atoms: CB_19  and  CA_18 
REMARK   12  A    between atoms: CB_19  and  C1_20 
REMARK   13  A    between atoms: C14_27  and  C15_28 
REMARK   14  A    between atoms: C15_28  and  N4_29 
ROOT
ATOM      1  C5  INN d           6.186   4.902  24.001  0.00  0.00     0.184 C 
ENDROOT
BRANCH   1   2
ATOM      2  N1  INN d           6.722   6.206  24.406  0.00  0.00    -0.347 N 
ATOM      3  C4  INN d           5.935   7.185  24.983  0.00  0.00     0.223 C 
ATOM      4  O1  INN d           4.746   7.077  25.215  0.00  0.00    -0.273 OA
ATOM      5  H1  INN d           7.693   6.394  24.259  0.00  0.00     0.163 HD
BRANCH   3   6
ATOM      6  CA  INN d           6.646   8.533  25.309  0.00  0.00     0.087 C 
BRANCH   6   7
ATOM      7  C0  INN d           5.839   9.492  24.427  0.00  0.00     0.119 C 
BRANCH   7   8
ATOM      8  C   INN d           6.546  10.703  24.216  0.00  0.00     0.241 C 
ATOM      9  N   INN d           5.753  11.729  24.530  0.00  0.00    -0.237 N 
ATOM     10  H18 INN d           4.758  11.767  24.438  0.00  0.00     0.197 HD
ATOM     11  O   INN d           7.719  10.717  23.857  0.00  0.00    -0.271 OA
BRANCH   9  12
ATOM     12  O4  INN d           6.580  12.731  25.008  0.00  0.00    -0.287 OA
ATOM     13  H6  INN d           7.202  12.976  24.333  0.00  0.00     0.244 HD
ENDBRANCH   9  12
ENDBRANCH   7   8
ENDBRANCH   6   7
BRANCH   6  14
ATOM     14  CB  INN d           6.610   9.014  26.768  0.00  0.00     0.018 C 
BRANCH  14  15
ATOM     15  C1  INN d           7.452   7.993  27.619  0.00  0.00    -0.022 C 
ATOM     16  C2  INN d           8.967   8.112  27.504  0.00  0.00     0.009 C 
ATOM     17  C3  INN d           7.104   8.300  29.083  0.00  0.00     0.009 C 
ENDBRANCH  14  15
ENDBRANCH   6  14
ENDBRANCH   3   6
ENDBRANCH   1   2
BRANCH   1  18
ATOM     18  C6  INN d           6.401   4.682  22.459  0.00  0.00    -0.022 C 
ATOM     19  C8  INN d           5.592   5.764  21.634  0.00  0.00     0.017 C 
ATOM     20  C9  INN d           7.923   4.733  22.088  0.00  0.00     0.017 C 
ATOM     21  C7  INN d           5.870   3.291  22.098  0.00  0.00     0.017 C 
ENDBRANCH   1  18
BRANCH   1  22
ATOM     22  C10 INN d           6.766   3.810  24.928  0.00  0.00     0.241 C 
ATOM     23  O2  INN d           7.982   3.693  25.148  0.00  0.00    -0.271 OA
ATOM     24  N2  INN d           5.800   2.999  25.480  0.00  0.00    -0.346 N 
ATOM     25  H31 INN d           4.843   3.183  25.257  0.00  0.00     0.163 HD
BRANCH  24  26
ATOM     26  C11 INN d           6.099   1.884  26.374  0.00  0.00     0.172 C 
ATOM     27  C12 INN d           5.272   1.958  27.670  0.00  0.00     0.042 C 
BRANCH  26  28
ATOM     28  C13 INN d           5.576   0.720  25.543  0.00  0.00     0.240 C 
ATOM     29  N3  INN d           6.495  -0.203  25.033  0.00  0.00    -0.358 N 
ATOM     30  H5  INN d           7.471  -0.084  25.213  0.00  0.00     0.162 HD
ATOM     31  O3  INN d           4.377   0.644  25.366  0.00  0.00    -0.271 OA
BRANCH  29  32
ATOM     32  C14 INN d           6.032  -1.348  24.232  0.00  0.00     0.150 C 
BRANCH  32  33
ATOM     33  C15 INN d           7.042  -1.870  23.213  0.00  0.00     0.249 C 
BRANCH  33  34
ATOM     34  N4  INN d           6.429  -1.895  21.875  0.00  0.00    -0.078 N 
ATOM     35  H36 INN d           7.098  -2.240  21.205  0.00  0.00     0.274 HD
ATOM     36  H37 INN d           6.146  -0.962  21.617  0.00  0.00     0.274 HD
ATOM     37  H38 INN d           5.623  -2.500  21.886  0.00  0.00     0.274 HD
ENDBRANCH  33  34
ENDBRANCH  32  33
ENDBRANCH  29  32
ENDBRANCH  26  28
ENDBRANCH  24  26
ENDBRANCH   1  22
TORSDOF 14
