REMARK  3 active torsions:
REMARK  status: ('A' for Active; 'I' for Inactive)
REMARK    1  A    between atoms: C1_1  and  O1_17 
REMARK    2  A    between atoms: C4_4  and  N4_19 
REMARK    3  A    between atoms: C22_11  and  O22_18 
ROOT
ATOM      1  C1  HNA d          25.473   3.551  18.002  0.00  0.00     0.081 A 
ATOM      2  C2  HNA d          24.712   4.767  17.875  0.00  0.00     0.065 A 
ATOM      3  C3  HNA d          23.966   5.270  19.004  0.00  0.00     0.065 A 
ATOM      4  C4  HNA d          23.997   4.544  20.221  0.00  0.00     0.118 A 
ATOM      5  C5  HNA d          24.751   3.341  20.310  0.00  0.00     0.040 A 
ATOM      6  C6  HNA d          25.488   2.846  19.218  0.00  0.00     0.040 A 
ATOM      7  C13 HNA d          23.193   6.565  18.822  0.00  0.00     0.197 A 
ATOM      8  C14 HNA d          23.188   7.281  17.530  0.00  0.00     0.032 A 
ATOM      9  C15 HNA d          23.913   6.776  16.407  0.00  0.00     0.062 A 
ATOM     10  C16 HNA d          24.700   5.509  16.564  0.00  0.00     0.199 A 
ATOM     11  C22 HNA d          23.874   7.506  15.161  0.00  0.00     0.080 A 
ATOM     12  C23 HNA d          23.123   8.705  15.070  0.00  0.00     0.037 A 
ATOM     13  C24 HNA d          22.412   9.200  16.192  0.00  0.00     0.004 A 
ATOM     14  C25 HNA d          22.442   8.492  17.411  0.00  0.00     0.017 A 
ATOM     15  O16 HNA d          25.334   5.062  15.610  0.00  0.00    -0.286 OA
ATOM     16  O13 HNA d          22.532   7.067  19.728  0.00  0.00    -0.286 OA
ENDROOT
BRANCH   4  17
ATOM     17  N4  HNA d          23.309   4.891  21.433  0.00  0.00    -0.115 N 
ATOM     18  O4B HNA d          22.082   4.492  21.549  0.00  0.00    -0.532 OA
ATOM     19  O4A HNA d          23.802   5.561  22.375  0.00  0.00    -0.532 OA
ENDBRANCH   4  17
BRANCH   1  20
ATOM     20  O1  HNA d          26.207   3.038  16.947  0.00  0.00    -0.360 OA
ATOM     21  H6  HNA d          26.112   3.605  16.191  0.00  0.00     0.217 HD
ENDBRANCH   1  20
BRANCH  11  22
ATOM     22  O22 HNA d          24.542   7.067  14.028  0.00  0.00    -0.360 OA
ATOM     23  H7  HNA d          25.002   6.260  14.226  0.00  0.00     0.217 HD
ENDBRANCH  11  22
TORSDOF 3
