REMARK  4 active torsions:
REMARK  status: ('A' for Active; 'I' for Inactive)
REMARK    1  A    between atoms: C2_16  and  C1_17 
REMARK    2  A    between atoms: C1_17  and  N2_18 
REMARK    3  A    between atoms: N2_18  and  S1_19 
REMARK    4  A    between atoms: S1_19  and  N1_22 
ROOT
ATOM      1  C11 B19 d          -5.973   6.282  13.158  0.00  0.00     0.078 C 
ATOM      2  C10 B19 d          -4.780   5.426  12.705  0.00  0.00     0.161 C 
ATOM      3  C12 B19 d          -3.698   6.274  12.010  0.00  0.00     0.078 C 
ATOM      4  O3  B19 d          -4.205   4.751  13.833  0.00  0.00    -0.315 OA
ATOM      5  O4  B19 d          -5.254   4.435  11.823  0.00  0.00    -0.342 OA
ATOM      6  C3  B19 d          -5.360   3.199  12.546  0.00  0.00     0.221 C 
ATOM      7  C4  B19 d          -5.079   2.124  11.466  0.00  0.00     0.191 C 
ATOM      8  O5  B19 d          -4.930   0.773  11.980  0.00  0.00    -0.345 OA
ATOM      9  C7  B19 d          -4.118   0.107  11.017  0.00  0.00     0.158 C 
ATOM     10  C8  B19 d          -4.986  -0.693  10.043  0.00  0.00     0.078 C 
ATOM     11  C9  B19 d          -3.152  -0.804  11.748  0.00  0.00     0.078 C 
ATOM     12  O6  B19 d          -3.368   1.124  10.276  0.00  0.00    -0.346 OA
ATOM     13  C5  B19 d          -3.735   2.398  10.803  0.00  0.00     0.180 C 
ATOM     14  C6  B19 d          -2.652   2.846  11.804  0.00  0.00     0.206 C 
ATOM     15  O2  B19 d          -3.024   2.823  13.218  0.00  0.00    -0.349 OA
ATOM     16  C2  B19 d          -4.309   3.377  13.626  0.00  0.00     0.213 C 
ENDROOT
BRANCH  16  17
ATOM     17  C1  B19 d          -4.813   2.900  14.969  0.00  0.00     0.205 C 
BRANCH  17  18
ATOM     18  N2  B19 d          -4.553   1.476  15.085  0.00  0.00    -0.298 N 
ATOM     19  H20 B19 d          -3.957   0.958  14.471  0.00  0.00     0.173 HD
BRANCH  18  20
ATOM     20  S1  B19 d          -5.370   0.825  16.362  0.00  0.00     0.312 S 
ATOM     21  O7  B19 d          -4.740   1.167  17.667  0.00  0.00    -0.183 OA
ATOM     22  O8  B19 d          -6.799   1.243  16.447  0.00  0.00    -0.183 OA
BRANCH  20  23
ATOM     23  N1  B19 d          -5.192  -0.763  16.105  0.00  0.00    -0.312 N 
ATOM     24  H21 B19 d          -5.596  -1.421  16.741  0.00  0.00     0.170 HD
ATOM     25  H22 B19 d          -4.678  -1.086  15.310  0.00  0.00     0.170 HD
ENDBRANCH  20  23
ENDBRANCH  18  20
ENDBRANCH  17  18
ENDBRANCH  16  17
TORSDOF 4
