REMARK  3 active torsions:
REMARK  status: ('A' for Active; 'I' for Inactive)
REMARK    1  A    between atoms: P_2  and  C_5 
REMARK    2  A    between atoms: C_5  and  N_6 
REMARK    3  A    between atoms: C_5  and  C1_7 
ROOT
ATOM      1  C   Q03 d           0.192  -3.672  13.946  0.00  0.00     0.316 C 
ENDROOT
BRANCH   1   2
ATOM      2  P   Q03 d           1.263  -2.688  12.835  0.00  0.00     0.291 P 
ATOM      3  O2  Q03 d           2.596  -3.334  12.775  0.00  0.00    -0.638 OA
ATOM      4  O   Q03 d           1.375  -1.278  13.639  0.00  0.00    -0.638 OA
ATOM      5  O1  Q03 d           0.562  -2.418  11.436  0.00  0.00    -0.638 OA
ENDBRANCH   1   2
BRANCH   1   6
ATOM      6  N   Q03 d          -0.850  -2.814  14.461  0.00  0.00    -0.062 N 
ATOM      7  H2  Q03 d          -1.448  -3.344  15.075  0.00  0.00     0.275 HD
ATOM      8  H3  Q03 d          -1.394  -2.449  13.695  0.00  0.00     0.275 HD
ATOM      9  H4  Q03 d          -0.435  -2.051  14.972  0.00  0.00     0.275 HD
ENDBRANCH   1   6
BRANCH   1  10
ATOM     10  C1  Q03 d          -0.244  -5.034  13.354  0.00  0.00     0.030 C 
ATOM     11  C6  Q03 d          -1.595  -4.963  12.678  0.00  0.00     0.007 C 
ATOM     12  C5  Q03 d          -1.917  -6.264  12.005  0.00  0.00     0.000 C 
ATOM     13  C4  Q03 d          -1.416  -7.506  12.688  0.00  0.00     0.000 C 
ATOM     14  C3  Q03 d          -0.104  -7.443  13.360  0.00  0.00     0.000 C 
ATOM     15  C2  Q03 d          -0.122  -6.194  14.199  0.00  0.00     0.007 C 
ENDBRANCH   1  10
TORSDOF 3
