REMARK  8 active torsions:
REMARK  status: ('A' for Active; 'I' for Inactive)
REMARK    1  A    between atoms: N3_7  and  C5_8 
REMARK    2  A    between atoms: C5_8  and  C3_9 
REMARK    3  A    between atoms: N1_11  and  S1_12 
REMARK    4  A    between atoms: S1_12  and  C6_15 
REMARK    5  A    between atoms: N2_22  and  C10_23 
REMARK    6  A    between atoms: C13_28  and  C16_29 
REMARK    7  A    between atoms: C16_29  and  C23_30 
REMARK    8  A    between atoms: C16_29  and  O3_35 
ROOT
ATOM      1  C3  1YY d          37.518 -23.971  15.718  0.00  0.00     0.124 C 
ATOM      2  C2  1YY d          38.258 -25.245  15.180  0.00  0.00     0.134 C 
ATOM      3  N1  1YY d          39.721 -25.017  15.096  0.00  0.00    -0.203 NA
ATOM      4  C1  1YY d          40.141 -25.033  16.475  0.00  0.00     0.127 C 
ATOM      5  C4  1YY d          39.399 -23.986  17.320  0.00  0.00     0.139 C 
ATOM      6  N2  1YY d          38.015 -23.715  17.018  0.00  0.00    -0.372 N 
ENDROOT
BRANCH   6   7
ATOM      7  C10 1YY d          37.296 -22.903  17.887  0.00  0.00     0.030 A 
ATOM      8  C15 1YY d          37.801 -22.622  19.149  0.00  0.00     0.030 A 
ATOM      9  C14 1YY d          37.120 -21.824  20.036  0.00  0.00     0.013 A 
ATOM     10  C13 1YY d          35.891 -21.286  19.662  0.00  0.00    -0.015 A 
ATOM     11  C12 1YY d          35.373 -21.549  18.419  0.00  0.00     0.013 A 
ATOM     12  C11 1YY d          36.083 -22.363  17.550  0.00  0.00     0.030 A 
BRANCH  10  13
ATOM     13  C16 1YY d          35.167 -20.389  20.622  0.00  0.00     0.179 C 
ATOM     14  C17 1YY d          36.268 -19.535  21.245  0.00  0.00     0.061 C 
BRANCH  13  15
ATOM     15  C23 1YY d          34.487 -21.103  21.746  0.00  0.00     0.422 C 
ATOM     16  F2  1YY d          33.703 -20.252  22.436  0.00  0.00    -0.167 F 
ATOM     17  F3  1YY d          35.446 -21.632  22.555  0.00  0.00    -0.167 F 
ATOM     18  F1  1YY d          33.699 -21.980  21.197  0.00  0.00    -0.167 F 
ENDBRANCH  13  15
BRANCH  13  19
ATOM     19  O3  1YY d          34.230 -19.629  19.908  0.00  0.00    -0.376 OA
ATOM     20  H31 1YY d          34.667 -19.178  19.195  0.00  0.00     0.211 HD
ENDBRANCH  13  19
ENDBRANCH  10  13
ENDBRANCH   6   7
BRANCH   1  21
ATOM     21  C5  1YY d          37.974 -22.727  14.927  0.00  0.00     0.261 C 
BRANCH  21  22
ATOM     22  N3  1YY d          37.007 -22.240  13.925  0.00  0.00    -0.061 N 
ATOM     23  C21 1YY d          36.981 -20.768  13.908  0.00  0.00     0.208 C 
ATOM     24  C22 1YY d          38.361 -20.146  13.512  0.00  0.00     0.042 C 
ATOM     25  C20 1YY d          35.876 -20.336  12.932  0.00  0.00     0.200 C 
ATOM     26  O4  1YY d          36.026 -20.925  11.616  0.00  0.00    -0.387 OA
ATOM     27  C19 1YY d          36.256 -22.358  11.580  0.00  0.00     0.195 C 
ATOM     28  C18 1YY d          37.381 -22.694  12.580  0.00  0.00     0.261 C 
ATOM     29  H11 1YY d          36.091 -22.591  14.156  0.00  0.00     0.280 HD
ENDBRANCH  21  22
ENDBRANCH   1  21
BRANCH   3  30
ATOM     30  S1  1YY d          40.454 -26.177  14.261  0.00  0.00     0.250 S 
ATOM     31  O1  1YY d          41.910 -26.151  14.555  0.00  0.00    -0.205 OA
ATOM     32  O2  1YY d          40.044 -25.979  12.843  0.00  0.00    -0.205 OA
BRANCH  30  33
ATOM     33  C6  1YY d          39.867 -27.752  14.718  0.00  0.00     0.115 A 
ATOM     34  C7  1YY d          38.901 -28.465  14.116  0.00  0.00     0.033 A 
ATOM     35  C8  1YY d          38.645 -29.623  14.751  0.00  0.00     0.009 A 
ATOM     36  C9  1YY d          39.389 -29.902  15.855  0.00  0.00     0.051 A 
ATOM     37  S2  1YY d          40.470 -28.587  16.037  0.00  0.00    -0.089 SA
ENDBRANCH  30  33
ENDBRANCH   3  30
TORSDOF 8
