REMARK  0 active torsions:
REMARK  status: ('A' for Active; 'I' for Inactive)
ROOT
ATOM      1  N   SAU d          18.320  -8.904  23.778  0.00  0.00    -0.379 N 
ATOM      2  C1  SAU d          23.295 -11.575  21.007  0.00  0.00     0.352 C 
ATOM      3  O1  SAU d          22.698 -10.680  22.077  0.00  0.00    -0.323 OA
ATOM      4  C2  SAU d          21.190 -10.990  20.393  0.00  0.00     0.105 A 
ATOM      5  O2  SAU d          22.377 -11.487  19.846  0.00  0.00    -0.323 OA
ATOM      6  C3  SAU d          21.381 -10.520  21.707  0.00  0.00     0.105 A 
ATOM      7  O3  SAU d          12.856  -7.287  25.230  0.00  0.00    -0.323 OA
ATOM      8  C4  SAU d          19.936 -10.921  19.795  0.00  0.00     0.052 A 
ATOM      9  O4  SAU d          14.952  -7.406  26.028  0.00  0.00    -0.322 OA
ATOM     10  C5  SAU d          18.859 -10.398  20.513  0.00  0.00    -0.021 A 
ATOM     11  C6  SAU d          19.068  -9.936  21.786  0.00  0.00     0.004 A 
ATOM     12  C7  SAU d          20.333  -9.985  22.384  0.00  0.00     0.054 A 
ATOM     13  C8  SAU d          17.568 -10.326  19.963  0.00  0.00     0.013 A 
ATOM     14  C9  SAU d          16.463  -9.833  20.685  0.00  0.00     0.015 A 
ATOM     15  C10 SAU d          18.021  -9.388  22.476  0.00  0.00     0.052 A 
ATOM     16  C12 SAU d          17.239  -8.446  24.527  0.00  0.00     0.165 A 
ATOM     17  C13 SAU d          15.969  -8.405  23.966  0.00  0.00     0.007 A 
ATOM     18  C14 SAU d          15.705  -8.831  22.670  0.00  0.00    -0.013 A 
ATOM     19  C15 SAU d          16.733  -9.342  21.951  0.00  0.00     0.002 A 
ATOM     20  C18 SAU d          14.424  -8.847  22.150  0.00  0.00     0.016 A 
ATOM     21  C19 SAU d          13.376  -8.297  22.922  0.00  0.00     0.040 A 
ATOM     22  C20 SAU d          13.639  -7.839  24.230  0.00  0.00     0.105 A 
ATOM     23  C21 SAU d          14.929  -7.900  24.741  0.00  0.00     0.113 A 
ATOM     24  C23 SAU d          13.555  -7.470  26.451  0.00  0.00     0.352 C 
ATOM     25  C25 SAU d          19.693  -9.040  24.350  0.00  0.00     0.150 C 
ENDROOT
TORSDOF 0
