REMARK  19 active torsions:
REMARK  status: ('A' for Active; 'I' for Inactive)
REMARK    1  A    between atoms: C1_1  and  O1_2 
REMARK    2  A    between atoms: C1_1  and  C2_3 
REMARK    3  A    between atoms: O1_2  and  P22_22 
REMARK    4  A    between atoms: C2_3  and  N2_4 
REMARK    5  A    between atoms: C2_3  and  C3_5 
REMARK    6  A    between atoms: C3_5  and  O3_6 
REMARK    7  A    between atoms: C3_5  and  C4_7 
REMARK    8  A    between atoms: C5_8  and  C6_9 
REMARK    9  A    between atoms: C6_9  and  C7_10 
REMARK   10  A    between atoms: C7_10  and  C8_11 
REMARK   11  A    between atoms: C8_11  and  C9_12 
REMARK   12  A    between atoms: C9_12  and  C10_13 
REMARK   13  A    between atoms: C10_13  and  C11_14 
REMARK   14  A    between atoms: C11_14  and  C12_15 
REMARK   15  A    between atoms: C12_15  and  C13_16 
REMARK   16  A    between atoms: C13_16  and  C14_17 
REMARK   17  A    between atoms: C14_17  and  C15_18 
REMARK   18  A    between atoms: C15_18  and  C16_19 
REMARK   19  A    between atoms: C16_19  and  C17_20 
ROOT
ATOM      1  C4  S1P d           0.619  14.958  34.749  0.00  0.00     0.003 C 
ATOM      2  C5  S1P d           1.576  15.002  33.828  0.00  0.00    -0.028 C 
ENDROOT
BRANCH   1   3
ATOM      3  C3  S1P d           0.926  15.438  36.154  0.00  0.00     0.173 C 
BRANCH   3   4
ATOM      4  C2  S1P d           0.688  14.320  37.182  0.00  0.00     0.239 C 
BRANCH   4   5
ATOM      5  C1  S1P d           1.176  14.756  38.557  0.00  0.00     0.218 C 
BRANCH   5   6
ATOM      6  O1  S1P d           2.576  15.024  38.468  0.00  0.00    -0.281 OA
BRANCH   6   7
ATOM      7  P22 S1P d           3.627  14.289  39.455  0.00  0.00     0.422 P 
ATOM      8  O23 S1P d           3.053  14.337  40.809  0.00  0.00    -0.617 OA
ATOM      9  O24 S1P d           4.897  15.019  39.186  0.00  0.00    -0.617 OA
ATOM     10  O25 S1P d           3.775  12.880  38.888  0.00  0.00    -0.617 OA
ENDBRANCH   6   7
ENDBRANCH   5   6
ENDBRANCH   4   5
BRANCH   4  11
ATOM     11  N2  S1P d           1.387  13.099  36.758  0.00  0.00    -0.070 N 
ATOM     12  H4  S1P d           1.056  12.821  35.848  0.00  0.00     0.274 HD
ATOM     13  H5  S1P d           1.207  12.361  37.421  0.00  0.00     0.274 HD
ATOM     14  H6  S1P d           2.378  13.277  36.715  0.00  0.00     0.274 HD
ENDBRANCH   4  11
ENDBRANCH   3   4
BRANCH   3  15
ATOM     15  O3  S1P d           0.042  16.520  36.452  0.00  0.00    -0.390 OA
ATOM     16  H8  S1P d           0.177  17.220  35.824  0.00  0.00     0.210 HD
ENDBRANCH   3  15
ENDBRANCH   1   3
BRANCH   2  17
ATOM     17  C6  S1P d           1.297  14.528  32.422  0.00  0.00     0.027 C 
BRANCH  17  18
ATOM     18  C7  S1P d           1.727  15.648  31.470  0.00  0.00     0.004 C 
BRANCH  18  19
ATOM     19  C8  S1P d           0.517  16.100  30.691  0.00  0.00     0.000 C 
BRANCH  19  20
ATOM     20  C9  S1P d          -0.211  17.316  31.203  0.00  0.00     0.000 C 
BRANCH  20  21
ATOM     21  C10 S1P d          -0.685  18.029  29.949  0.00  0.00     0.000 C 
BRANCH  21  22
ATOM     22  C11 S1P d          -2.190  17.987  29.693  0.00  0.00     0.000 C 
BRANCH  22  23
ATOM     23  C12 S1P d          -2.461  18.528  28.287  0.00  0.00     0.000 C 
BRANCH  23  24
ATOM     24  C13 S1P d          -3.474  19.662  28.391  0.00  0.00     0.000 C 
BRANCH  24  25
ATOM     25  C14 S1P d          -3.533  20.629  27.190  0.00  0.00     0.000 C 
BRANCH  25  26
ATOM     26  C15 S1P d          -2.735  21.920  27.414  0.00  0.00     0.000 C 
BRANCH  26  27
ATOM     27  C16 S1P d          -3.160  22.741  28.632  0.00  0.00    -0.000 C 
BRANCH  27  28
ATOM     28  C17 S1P d          -2.258  23.951  28.796  0.00  0.00    -0.005 C 
ATOM     29  C18 S1P d          -2.816  24.962  29.780  0.00  0.00     0.005 C 
ENDBRANCH  27  28
ENDBRANCH  26  27
ENDBRANCH  25  26
ENDBRANCH  24  25
ENDBRANCH  23  24
ENDBRANCH  22  23
ENDBRANCH  21  22
ENDBRANCH  20  21
ENDBRANCH  19  20
ENDBRANCH  18  19
ENDBRANCH  17  18
ENDBRANCH   2  17
TORSDOF 19
