REMARK  2 active torsions:
REMARK  status: ('A' for Active; 'I' for Inactive)
REMARK    1  A    between atoms: C9_14  and  N3_2 
REMARK    2  A    between atoms: C6_11  and  C9_14 
ROOT
ATOM      1  N2  N2Y d           1.507  22.898  16.861  0.00  0.00    -0.369 N 
ATOM      2  N3  N2Y d           2.329  22.410  14.681  0.00  0.00    -0.322 N 
ATOM      3  C1  N2Y d           2.154  23.244  15.820  0.00  0.00     0.201 A 
ATOM      4  N4  N2Y d           2.786  24.482  15.631  0.00  0.00    -0.226 NA
ATOM      5  C2  N2Y d           3.421  24.510  14.319  0.00  0.00     0.137 A 
ATOM      6  C3  N2Y d           3.121  23.147  13.685  0.00  0.00     0.113 A 
ATOM      7  H1  N2Y d           1.418  23.551  17.652  0.00  0.00     0.159 HD
ATOM      8  H2  N2Y d           1.073  21.965  16.911  0.00  0.00     0.159 HD
ENDROOT
BRANCH   2   9
ATOM      9  C9  N2Y d           1.821  21.035  14.469  0.00  0.00     0.171 C 
BRANCH   9  10
ATOM     10  C6  N2Y d           2.845  19.891  14.347  0.00  0.00    -0.022 A 
ATOM     11  C5  N2Y d           4.185  19.993  14.856  0.00  0.00     0.127 A 
ATOM     12  N6  N2Y d           5.054  18.970  14.729  0.00  0.00    -0.248 NA
ATOM     13  C4  N2Y d           4.704  17.812  14.124  0.00  0.00     0.125 A 
ATOM     14 CL1  N2Y d           5.862  16.533  13.987  0.00  0.00    -0.062 Cl
ATOM     15  C8  N2Y d           3.400  17.620  13.591  0.00  0.00     0.045 A 
ATOM     16  C7  N2Y d           2.473  18.675  13.711  0.00  0.00     0.013 A 
ENDBRANCH   9  10
ENDBRANCH   2   9
TORSDOF 2
