REMARK  5 active torsions:
REMARK  status: ('A' for Active; 'I' for Inactive)
REMARK    1  A    between atoms: CAW_6  and  C2_7 
REMARK    2  A    between atoms: CAU_12  and  NAQ_13 
REMARK       I    between atoms: NAQ_13  and  CAT_14 
REMARK    3  A    between atoms: CAT_14  and  CAC_16 
REMARK    4  A    between atoms: C6_21  and  NAR_22 
REMARK    5  A    between atoms: NAR_22  and  CAV_23 
ROOT
ATOM      1  C2  G97 d          23.153  -0.993 -19.306  0.00  0.00     0.162 A 
ATOM      2  N1  G97 d          23.002   0.198 -19.931  0.00  0.00    -0.210 NA
ATOM      3  N3  G97 d          22.797  -1.146 -18.015  0.00  0.00    -0.228 NA
ATOM      4  C4  G97 d          22.271  -0.125 -17.325  0.00  0.00     0.075 A 
ATOM      5  CAM G97 d          21.900  -0.324 -15.995  0.00  0.00     0.062 A 
ATOM      6  CAU G97 d          21.338   0.714 -15.255  0.00  0.00     0.037 A 
ATOM      7  CAK G97 d          21.158   1.967 -15.869  0.00  0.00     0.030 A 
ATOM      8  CAL G97 d          21.535   2.166 -17.205  0.00  0.00     0.020 A 
ATOM      9  C5  G97 d          22.095   1.117 -17.945  0.00  0.00     0.039 A 
ATOM     10  C6  G97 d          22.478   1.263 -19.289  0.00  0.00     0.144 A 
ENDROOT
BRANCH  10  11
ATOM     11  NAR G97 d          22.333   2.437 -19.939  0.00  0.00    -0.325 N 
ATOM     12  H13 G97 d          22.111   3.273 -19.380  0.00  0.00     0.169 HD
BRANCH  11  13
ATOM     13  CAV G97 d          22.461   2.586 -21.281  0.00  0.00     0.124 A 
ATOM     14  CAJ G97 d          22.571   3.756 -21.905  0.00  0.00     0.071 A 
ATOM     15  CAG G97 d          22.667   3.455 -23.203  0.00  0.00     0.142 A 
ATOM     16  NAS G97 d          22.604   2.119 -23.325  0.00  0.00    -0.186 NA
ATOM     17  NAN G97 d          22.484   1.609 -22.200  0.00  0.00    -0.263 N 
ATOM     18  H16 G97 d          22.414   0.600 -22.004  0.00  0.00     0.190 HD
ENDBRANCH  11  13
ENDBRANCH  10  11
BRANCH   1  19
ATOM     19  CAW G97 d          23.715  -2.091 -19.950  0.00  0.00     0.012 A 
ATOM     20  CAH G97 d          24.752  -1.909 -20.876  0.00  0.00     0.015 A 
ATOM     21  CAE G97 d          25.351  -2.998 -21.508  0.00  0.00     0.001 A 
ATOM     22  CAD G97 d          24.897  -4.275 -21.201  0.00  0.00     0.000 A 
ATOM     23  CAF G97 d          23.876  -4.474 -20.269  0.00  0.00     0.001 A 
ATOM     24  CAI G97 d          23.276  -3.380 -19.638  0.00  0.00     0.015 A 
ENDBRANCH   1  19
BRANCH   6  25
ATOM     25  NAQ G97 d          21.019   0.453 -13.971  0.00  0.00    -0.324 N 
ATOM     26  CAT G97 d          20.193   1.145 -13.176  0.00  0.00     0.244 C 
ATOM     27  OAB G97 d          19.570   2.154 -13.524  0.00  0.00    -0.268 OA
ATOM     28  H7  G97 d          21.450  -0.352 -13.565  0.00  0.00     0.169 HD
BRANCH  26  29
ATOM     29  CAC G97 d          20.026   0.675 -11.871  0.00  0.00     0.064 C 
ATOM     30  CAA G97 d          19.183   1.324 -10.970  0.00  0.00     0.017 C 
ENDBRANCH  26  29
ENDBRANCH   6  25
TORSDOF 5
