REMARK  2 active torsions:
REMARK  status: ('A' for Active; 'I' for Inactive)
REMARK    1  A    between atoms: C09_9  and  N10_10 
REMARK    2  A    between atoms: N10_10  and  C11_11 
ROOT
ATOM      1  N01 P04 d          19.852   9.785  20.267  0.00  0.00    -0.163 NA
ATOM      2  C02 P04 d          20.068  10.114  18.967  0.00  0.00     0.151 A 
ATOM      3  C03 P04 d          21.043   9.265  18.414  0.00  0.00     0.010 A 
ATOM      4  C04 P04 d          21.407   8.369  19.494  0.00  0.00     0.196 A 
ATOM      5  N05 P04 d          20.664   8.737  20.579  0.00  0.00    -0.042 N 
ATOM      6  N06 P04 d          22.267   7.339  19.612  0.00  0.00    -0.041 NA
ATOM      7  C07 P04 d          22.354   6.732  20.796  0.00  0.00     0.744 A 
ATOM      8  N08 P04 d          21.637   7.092  21.858  0.00  0.00     0.130 NA
ATOM      9  C09 P04 d          20.788   8.106  21.727  0.00  0.00     0.741 A 
ATOM     10  N17 P04 d          23.188   5.678  21.022  0.00  0.00    -0.188 N 
ATOM     11  C18 P04 d          23.980   4.991  20.153  0.00  0.00     0.051 A 
ATOM     12  C19 P04 d          24.113   5.302  18.799  0.00  0.00     0.059 A 
ATOM     13  C20 P04 d          24.929   4.571  17.937  0.00  0.00     0.036 A 
ATOM     14  C21 P04 d          25.629   3.490  18.467  0.00  0.00     0.029 A 
ATOM     15  C22 P04 d          25.522   3.151  19.816  0.00  0.00     0.004 A 
ATOM     16  C23 P04 d          24.698   3.905  20.650  0.00  0.00     0.030 A 
ATOM     17  N27 P04 d          25.085   4.827  16.610  0.00  0.00    -0.327 N 
ATOM     18  C28 P04 d          25.023   5.971  15.893  0.00  0.00     0.222 C 
ATOM     19  O29 P04 d          25.102   5.979  14.670  0.00  0.00    -0.273 OA
ATOM     20  C30 P04 d          24.856   7.317  16.584  0.00  0.00     0.103 C 
ATOM     21  C31 P04 d          23.367   7.675  16.596  0.00  0.00     0.010 C 
ATOM     22  C32 P04 d          23.069   9.130  16.956  0.00  0.00     0.005 C 
ATOM     23  C33 P04 d          21.560   9.376  16.999  0.00  0.00     0.044 C 
ATOM     24  H8  P04 d          23.225   5.352  21.998  0.00  0.00     0.184 HD
ATOM     25  H13 P04 d          25.283   4.015  16.061  0.00  0.00     0.169 HD
ENDROOT
BRANCH   9  26
ATOM     26  N10 P04 d          20.024   8.514  22.768  0.00  0.00    -0.217 N 
ATOM     27  H2  P04 d          19.396   9.325  22.669  0.00  0.00     0.178 HD
BRANCH  26  28
ATOM     28  C11 P04 d          20.102   7.788  24.035  0.00  0.00     0.099 A 
ATOM     29  C12 P04 d          21.127   8.459  24.954  0.00  0.00     0.028 A 
ATOM     30  C13 P04 d          19.625   8.674  25.189  0.00  0.00     0.028 A 
ENDBRANCH  26  28
ENDBRANCH   9  26
TORSDOF 2
