REMARK  9 active torsions:
REMARK  status: ('A' for Active; 'I' for Inactive)
REMARK    1  A    between atoms: N1_1  and  C2_2 
REMARK    2  A    between atoms: C2_2  and  C3_3 
REMARK    3  A    between atoms: C3_3  and  C4_4 
REMARK    4  A    between atoms: C4_4  and  C5_5 
REMARK    5  A    between atoms: C5_5  and  N6_6 
REMARK    6  A    between atoms: N6_6  and  C7_7 
REMARK    7  A    between atoms: C7_7  and  C8_8 
REMARK    8  A    between atoms: C8_8  and  C9_9 
REMARK    9  A    between atoms: C9_9  and  N10_10 
ROOT
ATOM      1  N6  SPD d          65.052  43.298   8.880  0.00  0.00    -0.075 N 
ATOM      2  H12 SPD d          64.145  42.976   8.579  0.00  0.00     0.277 HD
ATOM      3  H13 SPD d          65.424  43.940   8.198  0.00  0.00     0.277 HD
ENDROOT
BRANCH   1   4
ATOM      4  C5  SPD d          65.902  42.141   8.805  0.00  0.00     0.232 C 
BRANCH   4   5
ATOM      5  C4  SPD d          65.893  41.673   7.391  0.00  0.00     0.029 C 
BRANCH   5   6
ATOM      6  C3  SPD d          66.467  40.284   7.196  0.00  0.00     0.029 C 
BRANCH   6   7
ATOM      7  C2  SPD d          65.922  39.794   5.822  0.00  0.00     0.229 C 
BRANCH   7   8
ATOM      8  N1  SPD d          66.799  40.400   4.755  0.00  0.00    -0.079 N 
ATOM      9  H1  SPD d          66.476  40.105   3.847  0.00  0.00     0.274 HD
ATOM     10  H2  SPD d          67.750  40.095   4.889  0.00  0.00     0.274 HD
ATOM     11  H3  SPD d          66.757  41.405   4.816  0.00  0.00     0.274 HD
ENDBRANCH   7   8
ENDBRANCH   6   7
ENDBRANCH   5   6
ENDBRANCH   4   5
ENDBRANCH   1   4
BRANCH   1  12
ATOM     12  C7  SPD d          64.801  44.079  10.013  0.00  0.00     0.233 C 
BRANCH  12  13
ATOM     13  C8  SPD d          65.935  45.024  10.285  0.00  0.00     0.055 C 
BRANCH  13  14
ATOM     14  C9  SPD d          65.754  45.736  11.550  0.00  0.00     0.231 C 
BRANCH  14  15
ATOM     15  N10 SPD d          66.548  47.027  11.569  0.00  0.00    -0.079 N 
ATOM     16  H20 SPD d          66.406  47.496  12.450  0.00  0.00     0.274 HD
ATOM     17  H21 SPD d          66.239  47.623  10.817  0.00  0.00     0.274 HD
ATOM     18  H22 SPD d          67.528  46.821  11.453  0.00  0.00     0.274 HD
ENDBRANCH  14  15
ENDBRANCH  13  14
ENDBRANCH  12  13
ENDBRANCH   1  12
TORSDOF 9
