REMARK  9 active torsions:
REMARK  status: ('A' for Active; 'I' for Inactive)
REMARK    1  A    between atoms: C2_2  and  C7_9 
REMARK    2  A    between atoms: C4_4  and  O1_7 
REMARK    3  A    between atoms: C6_6  and  O2_8 
REMARK    4  A    between atoms: O1_7  and  C21_22 
REMARK    5  A    between atoms: O2_8  and  C11_12 
REMARK    6  A    between atoms: C13_14  and  C17_18 
REMARK    7  A    between atoms: C16_17  and  O11_21 
REMARK    8  A    between atoms: C17_18  and  N11_19 
REMARK    9  A    between atoms: C25_26  and  C27_28 
ROOT
ATOM      1  C1  MOL d           8.436  25.098  19.790  0.00  0.00     0.077 C 
ATOM      2  C2  MOL d           9.262  26.194  19.385  0.00  0.00     0.049 C 
ATOM      3  C3  MOL d          10.650  25.933  19.285  0.00  0.00     0.077 C 
ATOM      4  C4  MOL d          11.078  24.573  19.286  0.00  0.00     0.173 C 
ATOM      5  N5  MOL d          10.264  23.549  19.569  0.00  0.00    -0.200 NA
ATOM      6  C6  MOL d           8.936  23.795  19.704  0.00  0.00     0.173 C 
ENDROOT
BRANCH   6   7
ATOM      7  O2  MOL d           8.179  22.717  20.060  0.00  0.00    -0.289 OA
BRANCH   7   8
ATOM      8  C11 MOL d           8.777  21.557  20.501  0.00  0.00     0.112 A 
ATOM      9  C16 MOL d           9.514  21.337  21.666  0.00  0.00     0.099 A 
ATOM     10  C15 MOL d          10.026  20.043  21.951  0.00  0.00     0.040 A 
ATOM     11  C14 MOL d           9.772  18.971  21.062  0.00  0.00     0.018 A 
ATOM     12  C13 MOL d           9.019  19.208  19.872  0.00  0.00     0.010 A 
ATOM     13  C12 MOL d           8.549  20.491  19.610  0.00  0.00     0.055 A 
BRANCH   9  14
ATOM     14  O11 MOL d           9.817  22.335  22.553  0.00  0.00    -0.358 OA
ATOM     15  H10 MOL d           9.423  23.148  22.260  0.00  0.00     0.217 HD
ENDBRANCH   9  14
BRANCH  12  16
ATOM     16  C17 MOL d           8.772  18.159  18.940  0.00  0.00     0.102 C 
ATOM     17  N12 MOL d           9.308  16.950  19.089  0.00  0.00    -0.385 N 
ATOM     18  H8  MOL d           9.919  16.753  19.895  0.00  0.00     0.157 HD
ATOM     19  H9  MOL d           9.112  16.211  18.399  0.00  0.00     0.157 HD
BRANCH  16  20
ATOM     20  N11 MOL d           8.023  18.243  17.867  0.00  0.00    -0.385 N 
ATOM     21  H6  MOL d           7.907  17.423  17.254  0.00  0.00     0.157 HD
ATOM     22  H7  MOL d           7.550  19.129  17.637  0.00  0.00     0.157 HD
ENDBRANCH  16  20
ENDBRANCH  12  16
ENDBRANCH   7   8
ENDBRANCH   6   7
BRANCH   2  23
ATOM     23  C7  MOL d           8.786  27.479  19.486  0.00  0.00     0.209 C 
ATOM     24  O4  MOL d           7.478  27.686  19.686  0.00  0.00    -0.644 OA
ATOM     25  O3  MOL d           9.517  28.453  19.413  0.00  0.00    -0.644 OA
ENDBRANCH   2  23
BRANCH   4  26
ATOM     26  O1  MOL d          12.338  24.264  18.891  0.00  0.00    -0.292 OA
BRANCH  26  27
ATOM     27  C21 MOL d          13.442  25.043  18.822  0.00  0.00     0.078 A 
ATOM     28  C26 MOL d          14.378  24.860  17.776  0.00  0.00     0.052 A 
ATOM     29  C25 MOL d          15.520  25.699  17.762  0.00  0.00     0.013 A 
ATOM     30  C24 MOL d          15.663  26.687  18.747  0.00  0.00     0.015 A 
ATOM     31  C23 MOL d          14.723  26.887  19.769  0.00  0.00     0.004 A 
ATOM     32  C22 MOL d          13.578  26.061  19.788  0.00  0.00     0.037 A 
BRANCH  29  33
ATOM     33  C27 MOL d          16.435  25.449  16.716  0.00  0.00     0.137 C 
ATOM     34  N22 MOL d          16.518  24.226  16.137  0.00  0.00    -0.241 NA
ATOM     35  C28 MOL d          17.670  24.124  15.319  0.00  0.00     0.136 C 
ATOM     36  C29 MOL d          18.244  25.555  15.333  0.00  0.00     0.109 C 
ATOM     37  N21 MOL d          17.525  26.145  16.394  0.00  0.00    -0.349 N 
ATOM     38  H15 MOL d          17.810  27.015  16.866  0.00  0.00     0.167 HD
ENDBRANCH  29  33
ENDBRANCH  26  27
ENDBRANCH   4  26
TORSDOF 9
