REMARK  11 active torsions:
REMARK  status: ('A' for Active; 'I' for Inactive)
REMARK    1  A    between atoms: O3B_8  and  PG_1 
REMARK    2  A    between atoms: PB_5  and  O3B_8 
REMARK    3  A    between atoms: O3A_12  and  PB_5 
REMARK    4  A    between atoms: PA_9  and  O3A_12 
REMARK    5  A    between atoms: PA_9  and  O5'_13 
REMARK    6  A    between atoms: O5'_13  and  C5'_14 
REMARK    7  A    between atoms: C5'_14  and  C4'_15 
REMARK    8  A    between atoms: C3'_17  and  O3'_18 
REMARK    9  A    between atoms: C2'_19  and  O2'_20 
REMARK   10  A    between atoms: C1'_21  and  N9_22 
REMARK   11  A    between atoms: C6_26  and  N6_27 
ROOT
ATOM      1  C4' ATP d          -1.653   7.286  52.604  0.00  0.00     0.180 C 
ATOM      2  O4' ATP d          -0.988   6.764  53.787  0.00  0.00    -0.353 OA
ATOM      3  C3' ATP d          -3.103   6.806  52.725  0.00  0.00     0.182 C 
ATOM      4  C2' ATP d          -3.000   5.631  53.677  0.00  0.00     0.198 C 
ATOM      5  C1' ATP d          -1.848   5.930  54.597  0.00  0.00     0.262 C 
ENDROOT
BRANCH   1   6
ATOM      6  C5' ATP d          -1.402   8.780  52.469  0.00  0.00     0.216 C 
BRANCH   6   7
ATOM      7  O5' ATP d          -2.098   9.582  53.461  0.00  0.00    -0.287 OA
BRANCH   7   8
ATOM      8  PA  ATP d          -3.304  10.529  53.094  0.00  0.00     0.417 P 
ATOM      9  O1A ATP d          -3.597  11.262  54.370  0.00  0.00    -0.624 OA
ATOM     10  O2A ATP d          -4.422   9.805  52.515  0.00  0.00    -0.624 OA
BRANCH   8  11
ATOM     11  O3A ATP d          -2.617  11.466  51.869  0.00  0.00    -0.180 OA
BRANCH  11  12
ATOM     12  PB  ATP d          -2.932  12.645  50.800  0.00  0.00     0.428 P 
ATOM     13  O1B ATP d          -1.477  12.636  50.615  0.00  0.00    -0.624 OA
ATOM     14  O2B ATP d          -3.839  13.363  51.689  0.00  0.00    -0.624 OA
BRANCH  12  15
ATOM     15  O3B ATP d          -3.716  11.589  49.809  0.00  0.00    -0.173 OA
BRANCH  15  16
ATOM     16  PG  ATP d          -4.404  12.062  48.356  0.00  0.00     0.431 P 
ATOM     17  O1G ATP d          -5.821  11.623  48.287  0.00  0.00    -0.616 OA
ATOM     18  O2G ATP d          -3.536  11.443  47.356  0.00  0.00    -0.616 OA
ATOM     19  O3G ATP d          -4.348  13.579  48.282  0.00  0.00    -0.616 OA
ENDBRANCH  15  16
ENDBRANCH  12  15
ENDBRANCH  11  12
ENDBRANCH   8  11
ENDBRANCH   7   8
ENDBRANCH   6   7
ENDBRANCH   1   6
BRANCH   3  20
ATOM     20  O3' ATP d          -3.562   6.501  51.391  0.00  0.00    -0.390 OA
ATOM     21  H5  ATP d          -3.014   5.822  51.016  0.00  0.00     0.210 HD
ENDBRANCH   3  20
BRANCH   5  22
ATOM     22  N9  ATP d          -2.127   6.663  55.876  0.00  0.00    -0.294 N 
ATOM     23  C8  ATP d          -2.589   7.954  56.100  0.00  0.00     0.214 A 
ATOM     24  N7  ATP d          -2.700   8.291  57.352  0.00  0.00    -0.236 NA
ATOM     25  C5  ATP d          -2.278   7.135  58.010  0.00  0.00     0.149 A 
ATOM     26  C6  ATP d          -2.127   6.802  59.406  0.00  0.00     0.155 A 
ATOM     27  C4  ATP d          -1.934   6.126  57.112  0.00  0.00     0.167 A 
ATOM     28  N1  ATP d          -1.674   5.541  59.758  0.00  0.00    -0.222 NA
ATOM     29  C2  ATP d          -1.374   4.625  58.790  0.00  0.00     0.237 A 
ATOM     30  N3  ATP d          -1.468   4.821  57.423  0.00  0.00    -0.222 NA
BRANCH  26  31
ATOM     31  N6  ATP d          -2.420   7.710  60.356  0.00  0.00    -0.382 N 
ATOM     32  H10 ATP d          -2.311   7.468  61.351  0.00  0.00     0.157 HD
ATOM     33  H11 ATP d          -2.753   8.647  60.088  0.00  0.00     0.157 HD
ENDBRANCH  26  31
ENDBRANCH   5  22
BRANCH   4  34
ATOM     34  O2' ATP d          -2.746   4.420  52.996  0.00  0.00    -0.388 OA
ATOM     35  H7  ATP d          -3.453   4.247  52.385  0.00  0.00     0.210 HD
ENDBRANCH   4  34
TORSDOF 11
