REMARK  3 active torsions:
REMARK  status: ('A' for Active; 'I' for Inactive)
REMARK    1  A    between atoms: OAR_2  and  CAX_3 
REMARK    2  A    between atoms: CAV_18  and  SAY_19 
REMARK    3  A    between atoms: SAY_19  and  NAC_22 
ROOT
ATOM      1  CAX MOL d          -5.844   8.399  10.956  0.00  0.00     0.068 A 
ATOM      2  CAM MOL d          -4.519   8.538  11.312  0.00  0.00     0.044 A 
ATOM      3  CAW MOL d          -6.480   7.188  11.220  0.00  0.00     0.037 A 
ATOM      4  CAL MOL d          -5.731   6.265  11.890  0.00  0.00     0.013 A 
ATOM      5  CAG MOL d          -4.428   6.361  12.377  0.00  0.00    -0.017 A 
ATOM      6  CAT MOL d          -3.800   7.561  11.997  0.00  0.00    -0.045 A 
ATOM      7  CAO MOL d          -2.453   7.811  12.233  0.00  0.00     0.066 C 
ATOM      8  CAN MOL d          -1.726   6.463  12.430  0.00  0.00     0.238 C 
ATOM      9  NAP MOL d          -2.457   5.734  13.512  0.00  0.00    -0.062 N 
ATOM     10  CAS MOL d          -3.785   5.488  13.261  0.00  0.00     0.252 C 
ATOM     11  CAU MOL d          -4.262   4.409  13.994  0.00  0.00    -0.023 A 
ATOM     12  CAI MOL d          -5.572   4.305  14.444  0.00  0.00     0.011 A 
ATOM     13  CAK MOL d          -6.046   3.227  15.173  0.00  0.00     0.026 A 
ATOM     14  CAH MOL d          -3.427   3.328  14.341  0.00  0.00     0.011 A 
ATOM     15  CAJ MOL d          -3.890   2.227  15.092  0.00  0.00     0.026 A 
ATOM     16  CAV MOL d          -5.219   2.173  15.540  0.00  0.00     0.079 A 
ATOM     17  H11 MOL d          -2.396   6.284  14.354  0.00  0.00     0.278 HD
ATOM     18  H12 MOL d          -1.998   4.848  13.656  0.00  0.00     0.278 HD
ENDROOT
BRANCH   1  19
ATOM     19  OAR MOL d          -6.582   9.393  10.432  0.00  0.00    -0.356 OA
ATOM     20  CAB MOL d          -5.818  10.581  10.229  0.00  0.00     0.210 C 
ENDBRANCH   1  19
BRANCH  16  21
ATOM     21  SAY MOL d          -5.807   0.832  16.593  0.00  0.00     0.256 S 
ATOM     22  OAE MOL d          -5.241   1.141  17.921  0.00  0.00    -0.201 OA
ATOM     23  OAF MOL d          -7.318   1.014  16.557  0.00  0.00    -0.201 OA
BRANCH  21  24
ATOM     24  NAC MOL d          -5.348  -0.511  16.129  0.00  0.00    -0.324 N 
ATOM     25  H18 MOL d          -5.612  -1.332  16.635  0.00  0.00     0.169 HD
ATOM     26  H19 MOL d          -4.776  -0.589  15.312  0.00  0.00     0.169 HD
ENDBRANCH  21  24
ENDBRANCH  16  21
TORSDOF 3
