REMARK  7 active torsions:
REMARK  status: ('A' for Active; 'I' for Inactive)
REMARK    1  A    between atoms: C9_10  and  C8_11 
REMARK    2  A    between atoms: N1_15  and  C1_16 
REMARK    3  A    between atoms: C5_18  and  C6_19 
REMARK    4  A    between atoms: C6_19  and  O6_20 
REMARK    5  A    between atoms: C4_21  and  O4_22 
REMARK    6  A    between atoms: C3_23  and  O3_24 
REMARK    7  A    between atoms: C2_25  and  O2_26 
ROOT
ATOM      1  C8  LEW d          35.104  24.860  29.969  0.00  0.00     0.109 A 
ATOM      2  C7  LEW d          35.055  24.212  28.810  0.00  0.00     0.151 A 
ATOM      3  N3  LEW d          33.919  24.691  30.538  0.00  0.00    -0.130 NA
ATOM      4  N2  LEW d          33.220  23.989  29.810  0.00  0.00    -0.063 NA
ATOM      5  N1  LEW d          33.836  23.680  28.789  0.00  0.00    -0.228 N 
ENDROOT
BRANCH   5   6
ATOM      6  C1  LEW d          33.158  22.847  27.772  0.00  0.00     0.278 C 
ATOM      7  O5  LEW d          33.205  21.442  28.070  0.00  0.00    -0.352 OA
ATOM      8  C5  LEW d          32.186  20.747  27.305  0.00  0.00     0.179 C 
ATOM      9  C4  LEW d          32.384  20.930  25.774  0.00  0.00     0.180 C 
ATOM     10  C3  LEW d          32.637  22.402  25.386  0.00  0.00     0.182 C 
ATOM     11  C2  LEW d          33.648  23.039  26.330  0.00  0.00     0.200 C 
BRANCH   8  12
ATOM     12  C6  LEW d          32.225  19.286  27.756  0.00  0.00     0.198 C 
BRANCH  12  13
ATOM     13  O6  LEW d          33.391  18.620  27.236  0.00  0.00    -0.398 OA
ATOM     14  H13 LEW d          33.395  17.716  27.528  0.00  0.00     0.209 HD
ENDBRANCH  12  13
ENDBRANCH   8  12
BRANCH   9  15
ATOM     15  O4  LEW d          31.229  20.480  25.081  0.00  0.00    -0.390 OA
ATOM     16  H15 LEW d          31.357  20.595  24.147  0.00  0.00     0.210 HD
ENDBRANCH   9  15
BRANCH  10  17
ATOM     17  O3  LEW d          33.099  22.497  24.038  0.00  0.00    -0.390 OA
ATOM     18  H17 LEW d          33.248  23.409  23.819  0.00  0.00     0.210 HD
ENDBRANCH  10  17
BRANCH  11  19
ATOM     19  O2  LEW d          33.817  24.434  26.024  0.00  0.00    -0.388 OA
ATOM     20  H19 LEW d          34.450  24.814  26.622  0.00  0.00     0.210 HD
ENDBRANCH  11  19
ENDBRANCH   5   6
BRANCH   1  21
ATOM     21  C9  LEW d          36.113  25.655  30.512  0.00  0.00     0.007 A 
ATOM     22  C18 LEW d          36.665  26.687  29.724  0.00  0.00    -0.013 A 
ATOM     23  C17 LEW d          36.266  26.868  28.382  0.00  0.00     0.013 A 
ATOM     24  C13 LEW d          37.649  27.524  30.273  0.00  0.00    -0.025 A 
ATOM     25  C16 LEW d          36.838  27.869  27.602  0.00  0.00     0.001 A 
ATOM     26  C15 LEW d          37.818  28.703  28.155  0.00  0.00     0.001 A 
ATOM     27  C14 LEW d          38.214  28.533  29.487  0.00  0.00     0.012 A 
ATOM     28  C12 LEW d          38.057  27.352  31.603  0.00  0.00     0.012 A 
ATOM     29  C11 LEW d          37.485  26.343  32.393  0.00  0.00     0.002 A 
ATOM     30  C10 LEW d          36.504  25.504  31.848  0.00  0.00     0.015 A 
ENDBRANCH   1  21
TORSDOF 7
