REMARK  7 active torsions:
REMARK  status: ('A' for Active; 'I' for Inactive)
REMARK    1  A    between atoms: O3_14  and  P1_1 
REMARK    2  A    between atoms: O5_9  and  P2_5 
REMARK    3  A    between atoms: C5_10  and  O5_9 
REMARK    4  A    between atoms: C4_11  and  C5_10 
REMARK    5  A    between atoms: C3_13  and  O3_14 
REMARK    6  A    between atoms: C2_15  and  O2_16 
REMARK    7  A    between atoms: C1_17  and  N9_18 
ROOT
ATOM      1  C4  A3P d          13.774  17.313  12.394  0.00  0.00     0.181 C 
ATOM      2  O4  A3P d          14.705  18.458  12.488  0.00  0.00    -0.353 OA
ATOM      3  C3  A3P d          12.698  17.760  11.350  0.00  0.00     0.199 C 
ATOM      4  C2  A3P d          13.486  18.719  10.493  0.00  0.00     0.199 C 
ATOM      5  C1  A3P d          14.246  19.500  11.587  0.00  0.00     0.262 C 
ENDROOT
BRANCH   5   6
ATOM      6  N9  A3P d          15.387  20.315  11.043  0.00  0.00    -0.294 N 
ATOM      7  C8  A3P d          15.564  20.824   9.759  0.00  0.00     0.214 A 
ATOM      8  N7  A3P d          16.674  21.513   9.574  0.00  0.00    -0.236 NA
ATOM      9  C5  A3P d          17.300  21.478  10.811  0.00  0.00     0.149 A 
ATOM     10  C6  A3P d          18.542  22.035  11.295  0.00  0.00     0.155 A 
ATOM     11  C4  A3P d          16.527  20.735  11.762  0.00  0.00     0.167 A 
ATOM     12  N6  A3P d          19.354  22.743  10.524  0.00  0.00    -0.382 N 
ATOM     13  N1  A3P d          18.897  21.815  12.635  0.00  0.00    -0.222 NA
ATOM     14  H9  A3P d          20.230  23.122  10.910  0.00  0.00     0.157 HD
ATOM     15  H10 A3P d          19.109  22.915   9.538  0.00  0.00     0.157 HD
ATOM     16  C2  A3P d          18.065  21.078  13.461  0.00  0.00     0.237 A 
ATOM     17  N3  A3P d          16.854  20.493  13.112  0.00  0.00    -0.222 NA
ENDBRANCH   5   6
BRANCH   4  18
ATOM     18  O2  A3P d          12.734  19.517   9.582  0.00  0.00    -0.388 OA
ATOM     19  H6  A3P d          13.324  20.081   9.096  0.00  0.00     0.210 HD
ENDBRANCH   4  18
BRANCH   1  20
ATOM     20  C5  A3P d          14.638  16.068  11.995  0.00  0.00     0.217 C 
BRANCH  20  21
ATOM     21  O5  A3P d          13.926  15.158  11.117  0.00  0.00    -0.280 OA
BRANCH  21  22
ATOM     22  P2  A3P d          14.439  14.632   9.639  0.00  0.00     0.422 P 
ATOM     23  O4P A3P d          15.690  13.926  10.051  0.00  0.00    -0.617 OA
ATOM     24  O5P A3P d          13.280  13.743   9.338  0.00  0.00    -0.617 OA
ATOM     25  O6P A3P d          14.518  15.922   8.955  0.00  0.00    -0.617 OA
ENDBRANCH  21  22
ENDBRANCH  20  21
ENDBRANCH   1  20
BRANCH   3  26
ATOM     26  O3  A3P d          11.532  18.389  12.004  0.00  0.00    -0.272 OA
BRANCH  26  27
ATOM     27  P1  A3P d          10.096  17.755  12.385  0.00  0.00     0.422 P 
ATOM     28  O1P A3P d          10.514  16.344  12.662  0.00  0.00    -0.617 OA
ATOM     29  O2P A3P d           9.438  17.985  11.056  0.00  0.00    -0.617 OA
ATOM     30  O3P A3P d           9.792  18.632  13.534  0.00  0.00    -0.617 OA
ENDBRANCH  26  27
ENDBRANCH   3  26
TORSDOF 7
