REMARK  5 active torsions:
REMARK  status: ('A' for Active; 'I' for Inactive)
REMARK       I    between atoms: C7_2  and  N2_4 
REMARK    1  A    between atoms: N2_4  and  C2_5 
REMARK    2  A    between atoms: C5_8  and  C6_9 
REMARK    3  A    between atoms: C6_9  and  O6_10 
REMARK    4  A    between atoms: C4_11  and  O4_12 
REMARK    5  A    between atoms: C3_13  and  O3_14 
ROOT
ATOM      1  C2  NOK d          35.113  18.146 -17.201  0.00  0.00     0.141 C 
ATOM      2  C1  NOK d          35.925  19.250 -16.502  0.00  0.00     0.260 C 
ATOM      3  N5  NOK d          37.189  18.674 -15.988  0.00  0.00    -0.064 N 
ATOM      4  C5  NOK d          36.893  17.743 -14.875  0.00  0.00     0.240 C 
ATOM      5  C4  NOK d          36.039  16.564 -15.379  0.00  0.00     0.181 C 
ATOM      6  C3  NOK d          34.812  16.982 -16.234  0.00  0.00     0.173 C 
ATOM      7  H8  NOK d          37.785  19.416 -15.656  0.00  0.00     0.277 HD
ATOM      8  H9  NOK d          37.656  18.174 -16.729  0.00  0.00     0.277 HD
ENDROOT
BRANCH   1   9
ATOM      9  N2  NOK d          33.916  18.758 -17.836  0.00  0.00    -0.353 N 
ATOM     10  C7  NOK d          33.020  19.508 -17.169  0.00  0.00     0.214 C 
ATOM     11  C8  NOK d          31.888  20.074 -18.012  0.00  0.00     0.117 C 
ATOM     12  O7  NOK d          33.066  19.747 -15.965  0.00  0.00    -0.274 OA
ATOM     13  H4  NOK d          33.769  18.604 -18.813  0.00  0.00     0.163 HD
ENDBRANCH   1   9
BRANCH   6  14
ATOM     14  O3  NOK d          34.422  15.834 -16.992  0.00  0.00    -0.391 OA
ATOM     15  H17 NOK d          33.670  16.052 -17.530  0.00  0.00     0.210 HD
ENDBRANCH   6  14
BRANCH   5  16
ATOM     16  O4  NOK d          35.578  15.787 -14.264  0.00  0.00    -0.391 OA
ATOM     17  H15 NOK d          35.052  15.062 -14.581  0.00  0.00     0.210 HD
ENDBRANCH   5  16
BRANCH   4  18
ATOM     18  C6  NOK d          38.206  17.235 -14.277  0.00  0.00     0.199 C 
BRANCH  18  19
ATOM     19  O6  NOK d          39.038  16.723 -15.324  0.00  0.00    -0.399 OA
ATOM     20  H13 NOK d          39.854  16.407 -14.953  0.00  0.00     0.209 HD
ENDBRANCH  18  19
ENDBRANCH   4  18
TORSDOF 5
