REMARK  9 active torsions:
REMARK  status: ('A' for Active; 'I' for Inactive)
REMARK    1  A    between atoms: C13_2  and  C15_6 
REMARK    2  A    between atoms: N1_15  and  C2_16 
REMARK       I    between atoms: C31_32  and  N1_15 
REMARK    3  A    between atoms: C2_16  and  C3_17 
REMARK    4  A    between atoms: C2_16  and  C4_18 
REMARK    5  A    between atoms: C4_18  and  C5_19 
REMARK    6  A    between atoms: C29_30  and  C25_26 
REMARK    7  A    between atoms: C26_27  and  N27_28 
REMARK    8  A    between atoms: C30_31  and  C31_32 
REMARK    9  A    between atoms: C39_39  and  N40_40 
ROOT
ATOM      1  C2  MOL d          12.348  19.915 -39.376  0.00  0.00     0.158 C 
ENDROOT
BRANCH   1   2
ATOM      2  N1  MOL d          13.724  19.449 -39.549  0.00  0.00    -0.346 N 
ATOM      3  C31 MOL d          14.251  18.612 -38.631  0.00  0.00     0.241 C 
ATOM      4  O32 MOL d          13.570  18.155 -37.711  0.00  0.00    -0.269 OA
ATOM      5  H9  MOL d          14.266  19.746 -40.335  0.00  0.00     0.163 HD
BRANCH   3   6
ATOM      6  C30 MOL d          15.665  18.219 -38.835  0.00  0.00     0.075 C 
ATOM      7  C29 MOL d          16.473  18.475 -39.862  0.00  0.00     0.019 C 
BRANCH   7   8
ATOM      8  C25 MOL d          17.877  18.038 -39.934  0.00  0.00    -0.005 A 
ATOM      9  C24 MOL d          18.734  18.505 -38.930  0.00  0.00     0.037 A 
ATOM     10  C23 MOL d          20.063  18.134 -38.933  0.00  0.00     0.035 A 
ATOM     11  C22 MOL d          20.577  17.309 -39.913  0.00  0.00     0.026 A 
ATOM     12 CL1  MOL d          21.117  18.752 -37.690  0.00  0.00    -0.084 Cl
ATOM     13  C21 MOL d          19.743  16.860 -40.928  0.00  0.00     0.034 A 
ATOM     14  C26 MOL d          18.390  17.194 -40.940  0.00  0.00     0.071 A 
BRANCH  14  15
ATOM     15  N27 MOL d          17.599  16.856 -42.078  0.00  0.00    -0.205 N 
ATOM     16  C33 MOL d          17.847  16.860 -43.398  0.00  0.00     0.262 A 
ATOM     17  N34 MOL d          16.829  16.369 -44.048  0.00  0.00    -0.122 NA
ATOM     18  N35 MOL d          15.928  16.019 -43.095  0.00  0.00    -0.023 NA
ATOM     19  N36 MOL d          16.377  16.291 -41.908  0.00  0.00    -0.040 NA
ENDBRANCH  14  15
ENDBRANCH   7   8
ENDBRANCH   3   6
ENDBRANCH   1   2
BRANCH   1  20
ATOM     20  C3  MOL d          11.314  18.876 -39.703  0.00  0.00     0.128 A 
ATOM     21  N14 MOL d          10.464  18.392 -38.812  0.00  0.00    -0.231 NA
ATOM     22  C13 MOL d           9.658  17.495 -39.492  0.00  0.00     0.084 A 
ATOM     23  C12 MOL d          10.051  17.442 -40.795  0.00  0.00     0.122 A 
ATOM     24  N11 MOL d          11.085  18.328 -40.918  0.00  0.00    -0.350 N 
ATOM     25  H18 MOL d          11.600  18.541 -41.785  0.00  0.00     0.166 HD
BRANCH  22  26
ATOM     26  C15 MOL d           8.623  16.733 -38.768  0.00  0.00    -0.004 A 
ATOM     27  C16 MOL d           8.067  15.587 -39.337  0.00  0.00     0.045 A 
ATOM     28  C17 MOL d           6.977  14.982 -38.717  0.00  0.00     0.065 A 
ATOM     29  C18 MOL d           6.405  15.514 -37.545  0.00  0.00     0.039 A 
ATOM     30  N37 MOL d           6.256  13.879 -39.036  0.00  0.00    -0.275 N 
ATOM     31  C19 MOL d           6.997  16.638 -36.970  0.00  0.00     0.018 A 
ATOM     32  C39 MOL d           5.259  14.641 -37.241  0.00  0.00     0.153 A 
ATOM     33  C20 MOL d           8.089  17.233 -37.575  0.00  0.00     0.015 A 
ATOM     34  N38 MOL d           5.225  13.676 -38.161  0.00  0.00    -0.156 NA
ATOM     35  H21 MOL d           6.460  13.268 -39.840  0.00  0.00     0.189 HD
BRANCH  32  36
ATOM     36  N40 MOL d           4.345  14.723 -36.255  0.00  0.00    -0.382 N 
ATOM     37  H22 MOL d           3.597  14.018 -36.186  0.00  0.00     0.157 HD
ATOM     38  H23 MOL d           4.394  15.491 -35.570  0.00  0.00     0.157 HD
ENDBRANCH  32  36
ENDBRANCH  22  26
ENDBRANCH   1  20
BRANCH   1  39
ATOM     39  C4  MOL d          12.095  21.227 -40.144  0.00  0.00     0.071 C 
BRANCH  39  40
ATOM     40  C5  MOL d          10.759  21.864 -39.835  0.00  0.00    -0.056 A 
ATOM     41  C6  MOL d          10.038  22.501 -40.837  0.00  0.00     0.007 A 
ATOM     42  C7  MOL d           8.817  23.092 -40.559  0.00  0.00     0.001 A 
ATOM     43  C8  MOL d           8.302  23.067 -39.277  0.00  0.00     0.000 A 
ATOM     44  C9  MOL d           9.004  22.440 -38.272  0.00  0.00     0.001 A 
ATOM     45  C10 MOL d          10.224  21.843 -38.547  0.00  0.00     0.007 A 
ENDBRANCH  39  40
ENDBRANCH   1  39
TORSDOF 9
