REMARK  6 active torsions:
REMARK  status: ('A' for Active; 'I' for Inactive)
REMARK    1  A    between atoms: C9_2  and  C13_3 
REMARK    2  A    between atoms: C8_4  and  C44_5 
REMARK    3  A    between atoms: C42_6  and  C3_8 
REMARK    4  A    between atoms: C5_10  and  C23_18 
REMARK    5  A    between atoms: C1_12  and  C10_14 
REMARK    6  A    between atoms: C14_22  and  C12_23 
ROOT
ATOM      1  C3  ARL d          24.764  29.865   7.591  0.00  0.00    -0.029 A 
ATOM      2  C4  ARL d          23.443  29.241   7.655  0.00  0.00     0.020 A 
ATOM      3  C5  ARL d          22.203  29.897   7.185  0.00  0.00    -0.049 A 
ATOM      4  C6  ARL d          22.361  31.237   6.627  0.00  0.00     0.015 A 
ATOM      5  C1  ARL d          23.641  31.939   6.523  0.00  0.00    -0.049 A 
ATOM      6  C2  ARL d          24.818  31.211   7.016  0.00  0.00     0.020 A 
ENDROOT
BRANCH   1   7
ATOM      7  C42 ARL d          26.039  29.163   8.103  0.00  0.00    -0.052 C 
ATOM      8  C44 ARL d          25.972  27.948   8.779  0.00  0.00     0.007 C 
ATOM      9  C7  ARL d          27.413  29.868   7.865  0.00  0.00     0.049 C 
BRANCH   8  10
ATOM     10  C8  ARL d          27.065  27.157   9.353  0.00  0.00     0.001 C 
ATOM     11  C13 ARL d          27.101  25.830   9.547  0.00  0.00     0.007 C 
BRANCH  11  12
ATOM     12  C9  ARL d          28.212  25.027  10.146  0.00  0.00    -0.056 C 
ATOM     13  C16 ARL d          29.473  25.820  10.596  0.00  0.00     0.048 C 
ATOM     14  C14 ARL d          28.032  23.671  10.248  0.00  0.00     0.091 C 
BRANCH  14  15
ATOM     15  C12 ARL d          28.943  22.607  10.800  0.00  0.00     0.199 C 
ATOM     16  O2  ARL d          30.023  22.810  11.263  0.00  0.00    -0.644 OA
ATOM     17  O3  ARL d          28.535  21.467  10.754  0.00  0.00    -0.644 OA
ENDBRANCH  14  15
ENDBRANCH  11  12
ENDBRANCH   8  10
ENDBRANCH   1   7
BRANCH   3  18
ATOM     18  C23 ARL d          20.787  29.180   7.277  0.00  0.00    -0.024 C 
ATOM     19  C24 ARL d          20.037  29.021   5.938  0.00  0.00     0.019 C 
ATOM     20  C28 ARL d          19.836  29.969   8.191  0.00  0.00     0.019 C 
ATOM     21  C32 ARL d          20.907  27.790   7.886  0.00  0.00     0.019 C 
ENDBRANCH   3  18
BRANCH   5  22
ATOM     22  C10 ARL d          23.789  33.401   5.915  0.00  0.00    -0.024 C 
ATOM     23  C11 ARL d          22.454  34.123   5.553  0.00  0.00     0.019 C 
ATOM     24  C15 ARL d          24.625  33.362   4.630  0.00  0.00     0.019 C 
ATOM     25  C19 ARL d          24.479  34.334   6.943  0.00  0.00     0.019 C 
ENDBRANCH   5  22
TORSDOF 6
