REMARK  6 active torsions:
REMARK  status: ('A' for Active; 'I' for Inactive)
REMARK    1  A    between atoms: N1_9  and  C1'_10 
REMARK    2  A    between atoms: C2'_12  and  O2'_13 
REMARK    3  A    between atoms: C3'_14  and  O3'_15 
REMARK    4  A    between atoms: C4'_16  and  C5'_17 
REMARK    5  A    between atoms: C5'_17  and  O5'_18 
REMARK    6  A    between atoms: O5'_18  and  P_19 
ROOT
ATOM      1  C1' 5FU d           9.936   2.130   2.243  0.00  0.00     0.264 C 
ATOM      2  O4' 5FU d           9.074   0.991   1.999  0.00  0.00    -0.353 OA
ATOM      3  C2' 5FU d          10.623   1.832   3.560  0.00  0.00     0.198 C 
ATOM      4  C3' 5FU d          10.677   0.342   3.580  0.00  0.00     0.182 C 
ATOM      5  C4' 5FU d           9.405  -0.071   2.917  0.00  0.00     0.180 C 
ENDROOT
BRANCH   1   6
ATOM      6  N1  5FU d           9.117   3.360   2.179  0.00  0.00    -0.277 N 
ATOM      7  C2  5FU d           7.993   3.568   2.989  0.00  0.00     0.331 C 
ATOM      8  N3  5FU d           7.224   4.681   2.762  0.00  0.00    -0.273 N 
ATOM      9  O2  5FU d           7.671   2.783   3.890  0.00  0.00    -0.246 OA
ATOM     10  C4  5FU d           7.511   5.547   1.761  0.00  0.00     0.289 C 
ATOM     11  H1  5FU d           6.434   4.857   3.349  0.00  0.00     0.173 HD
ATOM     12  C5  5FU d           8.629   5.351   0.988  0.00  0.00     0.199 C 
ATOM     13  O4  5FU d           6.704   6.514   1.586  0.00  0.00    -0.265 OA
ATOM     14  F5  5FU d           8.924   6.190  -0.076  0.00  0.00    -0.199 F 
ATOM     15  C6  5FU d           9.482   4.294   1.266  0.00  0.00     0.146 C 
ENDBRANCH   1   6
BRANCH   3  16
ATOM     16  O2' 5FU d          11.904   2.439   3.689  0.00  0.00    -0.388 OA
ATOM     17  H5  5FU d          12.473   2.126   2.996  0.00  0.00     0.210 HD
ENDBRANCH   3  16
BRANCH   5  18
ATOM     18  C5' 5FU d           8.237  -0.241   3.880  0.00  0.00     0.217 C 
BRANCH  18  19
ATOM     19  O5' 5FU d           8.490  -1.431   4.618  0.00  0.00    -0.280 OA
BRANCH  19  20
ATOM     20  P   5FU d           7.487  -1.961   5.761  0.00  0.00     0.422 P 
ATOM     21  O1P 5FU d           8.425  -2.728   6.635  0.00  0.00    -0.617 OA
ATOM     22  O2P 5FU d           6.876  -0.773   6.453  0.00  0.00    -0.617 OA
ATOM     23  O3P 5FU d           6.488  -2.844   5.082  0.00  0.00    -0.617 OA
ENDBRANCH  19  20
ENDBRANCH  18  19
ENDBRANCH   5  18
BRANCH   4  24
ATOM     24  O3' 5FU d          11.823  -0.107   2.839  0.00  0.00    -0.390 OA
ATOM     25  H7  5FU d          12.612   0.244   3.235  0.00  0.00     0.210 HD
ENDBRANCH   4  24
TORSDOF 6
