REMARK  16 active torsions:
REMARK  status: ('A' for Active; 'I' for Inactive)
REMARK       I    between atoms: C2_2  and  N4_4 
REMARK    1  A    between atoms: N4_4  and  C5_5 
REMARK    2  A    between atoms: C5_5  and  C9_9 
REMARK    3  A    between atoms: C5_5  and  C6_6 
REMARK       I    between atoms: C9_9  and  N11_11 
REMARK    4  A    between atoms: N11_11  and  C12_12 
REMARK    5  A    between atoms: C12_12  and  C20_20 
REMARK    6  A    between atoms: C12_12  and  C13_13 
REMARK    7  A    between atoms: C13_13  and  C14_14 
REMARK    8  A    between atoms: C20_20  and  C22_22 
REMARK    9  A    between atoms: C20_20  and  O21_21 
REMARK   10  A    between atoms: C22_22  and  N23_23 
REMARK   11  A    between atoms: N23_23  and  N31_31 
REMARK   12  A    between atoms: N23_23  and  C24_24 
REMARK   13  A    between atoms: C24_24  and  C25_25 
REMARK       I    between atoms: N31_31  and  C32_32 
REMARK   14  A    between atoms: C32_32  and  C34_34 
REMARK   15  A    between atoms: C34_34  and  C36_36 
REMARK   16  A    between atoms: C34_34  and  N35_35 
REMARK       I    between atoms: N35_35  and  C39_39 
ROOT
ATOM      1  C20 C20 d           4.810  -0.572  15.688  0.00  0.00     0.169 C 
ENDROOT
BRANCH   1   2
ATOM      2  C12 C20 d           4.699  -2.107  15.577  0.00  0.00     0.119 C 
BRANCH   2   3
ATOM      3  N11 C20 d           5.813  -2.801  16.199  0.00  0.00    -0.352 N 
ATOM      4  C9  C20 d           6.598  -3.629  15.519  0.00  0.00     0.241 C 
ATOM      5  O10 C20 d           6.499  -3.803  14.307  0.00  0.00    -0.271 OA
ATOM      6  H13 C20 d           5.995  -2.651  17.171  0.00  0.00     0.163 HD
BRANCH   4   7
ATOM      7  C5  C20 d           7.712  -4.325  16.310  0.00  0.00     0.179 C 
BRANCH   7   8
ATOM      8  N4  C20 d           7.337  -5.736  16.529  0.00  0.00    -0.348 N 
ATOM      9  C2  C20 d           7.181  -6.301  17.728  0.00  0.00     0.214 C 
ATOM     10  C1  C20 d           6.772  -7.777  17.737  0.00  0.00     0.117 C 
ATOM     11  O3  C20 d           7.332  -5.692  18.787  0.00  0.00    -0.274 OA
ATOM     12  H4  C20 d           7.190  -6.309  15.723  0.00  0.00     0.163 HD
ENDBRANCH   7   8
BRANCH   7  13
ATOM     13  C6  C20 d           9.051  -4.224  15.524  0.00  0.00     0.009 C 
ATOM     14  C8  C20 d          10.166  -4.949  16.294  0.00  0.00     0.012 C 
ATOM     15  C7  C20 d           9.445  -2.778  15.247  0.00  0.00     0.012 C 
ENDBRANCH   7  13
ENDBRANCH   4   7
ENDBRANCH   2   3
BRANCH   2  16
ATOM     16  C13 C20 d           3.408  -2.577  16.233  0.00  0.00     0.066 C 
BRANCH  16  17
ATOM     17  C14 C20 d           3.297  -4.086  16.275  0.00  0.00    -0.056 A 
ATOM     18  C19 C20 d           3.020  -4.834  15.060  0.00  0.00     0.007 A 
ATOM     19  C18 C20 d           2.852  -6.205  15.135  0.00  0.00     0.001 A 
ATOM     20  C17 C20 d           2.949  -6.868  16.347  0.00  0.00     0.000 A 
ATOM     21  C16 C20 d           3.215  -6.185  17.540  0.00  0.00     0.001 A 
ATOM     22  C15 C20 d           3.392  -4.829  17.551  0.00  0.00     0.007 A 
ENDBRANCH  16  17
ENDBRANCH   2  16
ENDBRANCH   1   2
BRANCH   1  23
ATOM     23  C22 C20 d           5.952  -0.050  14.842  0.00  0.00     0.296 C 
BRANCH  23  24
ATOM     24  N23 C20 d           5.694  -0.219  13.426  0.00  0.00     0.014 N 
ATOM     25  H26 C20 d           5.515  -1.184  13.195  0.00  0.00     0.309 HD
BRANCH  24  26
ATOM     26  N31 C20 d           4.524   0.562  13.069  0.00  0.00    -0.185 N 
ATOM     27  C32 C20 d           3.611   0.148  12.191  0.00  0.00     0.264 C 
ATOM     28  O33 C20 d           3.599  -0.997  11.710  0.00  0.00    -0.269 OA
ATOM     29  H40 C20 d           4.397   1.454  13.503  0.00  0.00     0.197 HD
BRANCH  27  30
ATOM     30  C34 C20 d           2.578   1.196  11.770  0.00  0.00     0.181 C 
BRANCH  30  31
ATOM     31  C36 C20 d           1.167   0.574  11.648  0.00  0.00     0.009 C 
ATOM     32  C38 C20 d           0.134   1.692  11.343  0.00  0.00     0.012 C 
ATOM     33  C37 C20 d           0.783  -0.161  12.923  0.00  0.00     0.012 C 
ENDBRANCH  30  31
BRANCH  30  34
ATOM     34  N35 C20 d           2.986   1.849  10.520  0.00  0.00    -0.348 N 
ATOM     35  C39 C20 d           3.218   3.154  10.449  0.00  0.00     0.214 C 
ATOM     36  C41 C20 d           3.709   3.732   9.148  0.00  0.00     0.117 C 
ATOM     37  O40 C20 d           3.036   3.910  11.408  0.00  0.00    -0.274 OA
ATOM     38  H42 C20 d           3.092   1.293   9.696  0.00  0.00     0.163 HD
ENDBRANCH  30  34
ENDBRANCH  27  30
ENDBRANCH  24  26
BRANCH  24  39
ATOM     39  C24 C20 d           6.976   0.200  12.849  0.00  0.00     0.267 C 
BRANCH  39  40
ATOM     40  C25 C20 d           7.055   0.777  11.447  0.00  0.00     0.014 C 
ATOM     41  C30 C20 d           6.568   2.217  11.593  0.00  0.00     0.006 C 
ATOM     42  C29 C20 d           7.077   3.163  10.540  0.00  0.00     0.000 C 
ATOM     43  C28 C20 d           8.596   3.143  10.491  0.00  0.00     0.000 C 
ATOM     44  C27 C20 d           9.084   1.740  10.189  0.00  0.00     0.000 C 
ATOM     45  C26 C20 d           8.577   0.775  11.247  0.00  0.00     0.006 C 
ENDBRANCH  39  40
ENDBRANCH  24  39
ENDBRANCH  23  24
ENDBRANCH   1  23
BRANCH   1  46
ATOM     46  O21 C20 d           5.081  -0.184  17.037  0.00  0.00    -0.392 OA
ATOM     47  H23 C20 d           4.383  -0.495  17.601  0.00  0.00     0.210 HD
ENDBRANCH   1  46
TORSDOF 16
