REMARK  5 active torsions:
REMARK  status: ('A' for Active; 'I' for Inactive)
REMARK    1  A    between atoms: C4_2  and  C3_3 
REMARK    2  A    between atoms: C3_3  and  C2_4 
REMARK    3  A    between atoms: C2_4  and  C3A_5 
REMARK    4  A    between atoms: C2_4  and  C1_8 
REMARK    5  A    between atoms: C3A_5  and  C4A_6 
ROOT
ATOM      1  C2  VPR d          23.964  36.650  60.994  0.00  0.00     0.063 C 
ENDROOT
BRANCH   1   2
ATOM      2  C3  VPR d          24.598  37.638  60.016  0.00  0.00     0.012 C 
BRANCH   2   3
ATOM      3  C4  VPR d          26.117  37.615  60.044  0.00  0.00    -0.004 C 
ATOM      4  C5  VPR d          26.564  37.977  58.654  0.00  0.00     0.005 C 
ENDBRANCH   2   3
ENDBRANCH   1   2
BRANCH   1   5
ATOM      5  C3A VPR d          22.440  36.734  60.981  0.00  0.00     0.012 C 
BRANCH   5   6
ATOM      6  C4A VPR d          21.943  38.159  61.206  0.00  0.00    -0.004 C 
ATOM      7  C5A VPR d          20.918  38.480  60.148  0.00  0.00     0.005 C 
ENDBRANCH   5   6
ENDBRANCH   1   5
BRANCH   1   8
ATOM      8  C1  VPR d          24.405  35.240  60.717  0.00  0.00     0.153 C 
ATOM      9  N   VPR d          24.107  34.672  59.636  0.00  0.00    -0.381 N 
ATOM     10  H16 VPR d          24.407  33.733  59.465  0.00  0.00     0.158 HD
ATOM     11  H17 VPR d          23.570  35.159  58.947  0.00  0.00     0.158 HD
ATOM     12  O   VPR d          25.116  34.617  61.635  0.00  0.00    -0.177 OA
ENDBRANCH   1   8
TORSDOF 5
