REMARK  8 active torsions:
REMARK  status: ('A' for Active; 'I' for Inactive)
REMARK    1  A    between atoms: O3A_8  and  PB_1 
REMARK    2  A    between atoms: PA_5  and  O3A_8 
REMARK    3  A    between atoms: PA_5  and  O5_9 
REMARK    4  A    between atoms: O5_9  and  C5_10 
REMARK    5  A    between atoms: C5_10  and  C4_11 
REMARK    6  A    between atoms: C3_13  and  O3_14 
REMARK    7  A    between atoms: C2_15  and  O2_16 
REMARK    8  A    between atoms: C1_17  and  N9_18 
ROOT
ATOM      1  C4  ADP d          13.298  79.229  -3.241  0.00  0.00     0.180 C 
ATOM      2  O4  ADP d          14.105  79.253  -2.029  0.00  0.00    -0.353 OA
ATOM      3  C3  ADP d          12.992  80.725  -3.544  0.00  0.00     0.182 C 
ATOM      4  C2  ADP d          13.969  81.468  -2.616  0.00  0.00     0.198 C 
ATOM      5  C1  ADP d          14.080  80.527  -1.420  0.00  0.00     0.262 C 
ENDROOT
BRANCH   5   6
ATOM      6  N9  ADP d          15.348  80.721  -0.606  0.00  0.00    -0.294 N 
ATOM      7  C8  ADP d          16.501  81.357  -0.968  0.00  0.00     0.214 A 
ATOM      8  N7  ADP d          17.439  81.352   0.001  0.00  0.00    -0.236 NA
ATOM      9  C5  ADP d          16.845  80.676   1.022  0.00  0.00     0.149 A 
ATOM     10  C6  ADP d          17.325  80.326   2.357  0.00  0.00     0.155 A 
ATOM     11  C4  ADP d          15.550  80.276   0.668  0.00  0.00     0.167 A 
ATOM     12  N6  ADP d          18.481  80.611   2.850  0.00  0.00    -0.382 N 
ATOM     13  N1  ADP d          16.403  79.618   3.122  0.00  0.00    -0.222 NA
ATOM     14  H10 ADP d          18.720  80.315   3.807  0.00  0.00     0.157 HD
ATOM     15  H11 ADP d          19.166  81.134   2.287  0.00  0.00     0.157 HD
ATOM     16  C2  ADP d          15.132  79.269   2.667  0.00  0.00     0.237 A 
ATOM     17  N3  ADP d          14.676  79.583   1.446  0.00  0.00    -0.222 NA
ENDBRANCH   5   6
BRANCH   4  18
ATOM     18  O2  ADP d          13.497  82.760  -2.200  0.00  0.00    -0.388 OA
ATOM     19  H7  ADP d          12.678  82.660  -1.729  0.00  0.00     0.210 HD
ENDBRANCH   4  18
BRANCH   1  20
ATOM     20  C5  ADP d          14.054  78.451  -4.328  0.00  0.00     0.216 C 
BRANCH  20  21
ATOM     21  O5  ADP d          14.755  79.308  -5.287  0.00  0.00    -0.287 OA
BRANCH  21  22
ATOM     22  PA  ADP d          16.201  78.940  -5.842  0.00  0.00     0.418 P 
ATOM     23  O1A ADP d          17.047  78.845  -4.593  0.00  0.00    -0.624 OA
ATOM     24  O2A ADP d          16.729  79.877  -6.903  0.00  0.00    -0.624 OA
BRANCH  22  25
ATOM     25  O3A ADP d          16.007  77.494  -6.425  0.00  0.00    -0.173 OA
BRANCH  25  26
ATOM     26  PB  ADP d          15.182  76.981  -7.695  0.00  0.00     0.431 P 
ATOM     27  O1B ADP d          14.597  75.686  -7.268  0.00  0.00    -0.616 OA
ATOM     28  O2B ADP d          16.196  76.853  -8.800  0.00  0.00    -0.616 OA
ATOM     29  O3B ADP d          14.059  78.047  -8.020  0.00  0.00    -0.616 OA
ENDBRANCH  25  26
ENDBRANCH  22  25
ENDBRANCH  21  22
ENDBRANCH  20  21
ENDBRANCH   1  20
BRANCH   3  30
ATOM     30  O3  ADP d          11.585  80.958  -3.302  0.00  0.00    -0.390 OA
ATOM     31  H5  ADP d          11.380  81.868  -3.482  0.00  0.00     0.210 HD
ENDBRANCH   3  30
TORSDOF 8
