REMARK  4 active torsions:
REMARK  status: ('A' for Active; 'I' for Inactive)
REMARK    1  A    between atoms: C2_2  and  C5_9 
REMARK    2  A    between atoms: C2_2  and  C6_10 
REMARK    3  A    between atoms: C3_4  and  N3_6 
REMARK    4  A    between atoms: C10_14  and  C12_16 
ROOT
ATOM      1  C1  MOL d          22.550  11.831  22.817  0.00  0.00     0.272 A 
ATOM      2  C2  MOL d          22.373  10.662  21.814  0.00  0.00     0.160 A 
ATOM      3  N1  MOL d          22.591   9.454  22.684  0.00  0.00    -0.203 N 
ATOM      4  C3  MOL d          22.706   9.877  23.968  0.00  0.00     0.677 A 
ATOM      5  N2  MOL d          22.744  11.280  24.061  0.00  0.00    -0.153 N 
ATOM      6  C4  MOL d          22.951  12.064  25.277  0.00  0.00     0.178 C 
ATOM      7  O1  MOL d          22.540  13.022  22.565  0.00  0.00    -0.269 OA
ATOM      8  H1  MOL d          22.644   8.477  22.361  0.00  0.00     0.179 HD
ENDROOT
BRANCH   2   9
ATOM      9  C5  MOL d          23.457  10.736  20.740  0.00  0.00    -0.019 A 
ATOM     10  C7  MOL d          23.127  10.951  19.404  0.00  0.00     0.010 A 
ATOM     11  C8  MOL d          24.121  11.101  18.451  0.00  0.00     0.002 A 
ATOM     12  C9  MOL d          25.453  11.063  18.827  0.00  0.00     0.012 A 
ATOM     13  C10 MOL d          25.813  10.851  20.164  0.00  0.00    -0.024 A 
ATOM     14  C11 MOL d          24.802  10.662  21.106  0.00  0.00     0.022 A 
BRANCH  13  15
ATOM     15  C12 MOL d          27.244  10.852  20.588  0.00  0.00    -0.007 A 
ATOM     16  C13 MOL d          28.184  11.705  20.024  0.00  0.00     0.128 A 
ATOM     17  N5  MOL d          29.445  11.828  20.456  0.00  0.00    -0.271 NA
ATOM     18  C15 MOL d          29.827  11.080  21.503  0.00  0.00     0.140 A 
ATOM     19  C19 MOL d          28.961  10.183  22.093  0.00  0.00     0.052 A 
ATOM     20  C16 MOL d          27.667  10.040  21.644  0.00  0.00     0.039 A 
ATOM     21 CL1  MOL d          29.510   9.203  23.420  0.00  0.00    -0.083 Cl
ENDBRANCH  13  15
ENDBRANCH   2   9
BRANCH   2  22
ATOM     22  C6  MOL d          20.914  10.747  21.348  0.00  0.00     0.029 A 
ATOM     23  C17 MOL d          20.201   9.473  20.996  0.00  0.00     0.008 A 
ATOM     24  C18 MOL d          19.771  10.272  22.186  0.00  0.00     0.008 A 
ENDBRANCH   2  22
BRANCH   4  25
ATOM     25  N3  MOL d          22.849   9.112  25.043  0.00  0.00    -0.234 N 
ATOM     26  H2  MOL d          22.818   8.086  24.953  0.00  0.00     0.174 HD
ATOM     27  H3  MOL d          22.991   9.544  25.967  0.00  0.00     0.174 HD
ENDBRANCH   4  25
TORSDOF 4
