REMARK  6 active torsions:
REMARK  status: ('A' for Active; 'I' for Inactive)
REMARK    1  A    between atoms: C6_6  and  C7_7 
REMARK    2  A    between atoms: C8_8  and  C9_9 
REMARK    3  A    between atoms: C10_10  and  C11_11 
REMARK    4  A    between atoms: C12_12  and  C13_13 
REMARK    5  A    between atoms: C14_14  and  C15_15 
REMARK    6  A    between atoms: C15_15  and  O1_16 
ROOT
ATOM      1  C7  RTL d          10.061  -0.727  57.206  0.00  0.00     0.009 C 
ATOM      2  C8  RTL d           8.795  -1.108  57.183  0.00  0.00     0.007 C 
ENDROOT
BRANCH   2   3
ATOM      3  C9  RTL d           7.561  -0.502  56.735  0.00  0.00    -0.062 C 
ATOM      4  C10 RTL d           6.429  -1.215  56.902  0.00  0.00     0.007 C 
ATOM      5  C19 RTL d           7.595   0.903  56.151  0.00  0.00     0.048 C 
BRANCH   4   6
ATOM      6  C11 RTL d           5.090  -0.821  56.520  0.00  0.00     0.001 C 
ATOM      7  C12 RTL d           3.976  -1.559  56.658  0.00  0.00     0.006 C 
BRANCH   7   8
ATOM      8  C13 RTL d           2.627  -1.130  56.295  0.00  0.00    -0.064 C 
ATOM      9  C14 RTL d           2.018  -0.296  57.149  0.00  0.00     0.005 C 
ATOM     10  C20 RTL d           2.035  -1.659  55.029  0.00  0.00     0.048 C 
BRANCH   9  11
ATOM     11  C15 RTL d           0.675   0.329  57.032  0.00  0.00     0.192 C 
BRANCH  11  12
ATOM     12  O1  RTL d          -0.235  -0.364  57.709  0.00  0.00    -0.397 OA
ATOM     13  H15 RTL d          -1.083   0.055  57.618  0.00  0.00     0.209 HD
ENDBRANCH  11  12
ENDBRANCH   9  11
ENDBRANCH   7   8
ENDBRANCH   4   6
ENDBRANCH   2   3
BRANCH   1  14
ATOM     14  C6  RTL d          11.299  -1.388  57.663  0.00  0.00    -0.048 C 
ATOM     15  C1  RTL d          12.192  -2.058  56.596  0.00  0.00    -0.020 C 
ATOM     16  C2  RTL d          13.666  -2.121  57.070  0.00  0.00     0.014 C 
ATOM     17  C16 RTL d          12.217  -1.201  55.306  0.00  0.00     0.020 C 
ATOM     18  C17 RTL d          11.703  -3.462  56.222  0.00  0.00     0.020 C 
ATOM     19  C3  RTL d          13.827  -2.429  58.532  0.00  0.00     0.005 C 
ATOM     20  C4  RTL d          13.217  -1.296  59.332  0.00  0.00     0.034 C 
ATOM     21  C5  RTL d          11.838  -0.951  58.837  0.00  0.00    -0.077 C 
ATOM     22  C18 RTL d          11.236   0.159  59.677  0.00  0.00     0.044 C 
ENDBRANCH   1  14
TORSDOF 6
