REMARK  8 active torsions:
REMARK  status: ('A' for Active; 'I' for Inactive)
REMARK    1  A    between atoms: C4_7  and  S_1 
REMARK    2  A    between atoms: S_1  and  N3S_25 
REMARK       I    between atoms: N'_2  and  C7_10 
REMARK    3  A    between atoms: C1'_20  and  N'_2 
REMARK    4  A    between atoms: C7_10  and  C1_4 
REMARK    5  A    between atoms: C2'_22  and  C1'_20 
REMARK    6  A    between atoms: C3'_24  and  C2'_22 
REMARK    7  A    between atoms: C4'_26  and  C3'_24 
REMARK    8  A    between atoms: C4'_26  and  C5'_27 
ROOT
ATOM      1  N'  RZ1 d          18.438   5.795  13.516  0.00  0.00    -0.351 N 
ATOM      2  O'  RZ1 d          16.357   6.641  13.525  0.00  0.00    -0.268 OA
ATOM      3  C7  RZ1 d          17.151   5.717  13.842  0.00  0.00     0.251 C 
ATOM      4  H1  RZ1 d          19.058   5.074  13.825  0.00  0.00     0.162 HD
ENDROOT
BRANCH   1   5
ATOM      5  C1' RZ1 d          18.973   6.886  12.731  0.00  0.00     0.208 C 
BRANCH   5   6
ATOM      6  C2' RZ1 d          19.469   7.962  13.702  0.00  0.00     0.330 C 
ATOM      7  F2' RZ1 d          20.428   7.484  14.446  0.00  0.00    -0.198 F 
ATOM      8  F2' RZ1 d          18.562   8.357  14.573  0.00  0.00    -0.198 F 
BRANCH   6   9
ATOM      9  C3' RZ1 d          19.865   9.231  13.006  0.00  0.00     0.382 C 
ATOM     10  F3' RZ1 d          18.809   9.678  12.275  0.00  0.00    -0.192 F 
ATOM     11  F3' RZ1 d          20.794   8.881  12.147  0.00  0.00    -0.192 F 
BRANCH   9  12
ATOM     12  C4' RZ1 d          20.259  10.259  14.131  0.00  0.00     0.409 C 
ATOM     13  F4' RZ1 d          20.763   9.901  15.395  0.00  0.00    -0.189 F 
ATOM     14  F4' RZ1 d          19.146  11.004  14.199  0.00  0.00    -0.189 F 
BRANCH  12  15
ATOM     15  C5' RZ1 d          21.437  10.998  13.624  0.00  0.00     0.461 C 
ATOM     16  F5' RZ1 d          22.409  10.031  13.755  0.00  0.00    -0.165 F 
ATOM     17  F5' RZ1 d          21.608  12.020  14.473  0.00  0.00    -0.165 F 
ATOM     18  F5' RZ1 d          21.073  11.397  12.379  0.00  0.00    -0.165 F 
ENDBRANCH  12  15
ENDBRANCH   9  12
ENDBRANCH   6   9
ENDBRANCH   5   6
ENDBRANCH   1   5
BRANCH   3  19
ATOM     19  C1  RZ1 d          16.617   4.557  14.622  0.00  0.00     0.032 A 
ATOM     20  C3  RZ1 d          17.501   3.555  15.060  0.00  0.00     0.018 A 
ATOM     21  C2  RZ1 d          17.045   2.441  15.783  0.00  0.00     0.026 A 
ATOM     22  C4  RZ1 d          15.640   2.320  16.037  0.00  0.00     0.079 A 
ATOM     23  C6  RZ1 d          14.753   3.369  15.585  0.00  0.00     0.026 A 
ATOM     24  C5  RZ1 d          15.240   4.463  14.881  0.00  0.00     0.018 A 
BRANCH  22  25
ATOM     25  S   RZ1 d          15.032   0.963  16.895  0.00  0.00     0.256 S 
ATOM     26  O1S RZ1 d          13.569   0.998  16.756  0.00  0.00    -0.201 OA
ATOM     27  O2S RZ1 d          15.581   1.044  18.236  0.00  0.00    -0.201 OA
BRANCH  25  28
ATOM     28  N3S RZ1 d          15.655  -0.349  16.182  0.00  0.00    -0.324 N 
ATOM     29  H8  RZ1 d          15.429  -1.260  16.526  0.00  0.00     0.169 HD
ATOM     30  H9  RZ1 d          16.266  -0.249  15.397  0.00  0.00     0.169 HD
ENDBRANCH  25  28
ENDBRANCH  22  25
ENDBRANCH   3  19
TORSDOF 8
