REMARK  5 active torsions:
REMARK  status: ('A' for Active; 'I' for Inactive)
REMARK    1  A    between atoms: CAM_6  and  CAJ_7 
REMARK    2  A    between atoms: CAJ_7  and  CAN_8 
REMARK    3  A    between atoms: CAN_8  and  CAL_9 
REMARK    4  A    between atoms: CAN_8  and  CAK_12 
REMARK    5  A    between atoms: CAK_12  and  NAO_13 
ROOT
ATOM      1  CAN MOL d          11.993 -10.056  22.386  0.00  0.00     0.109 C 
ENDROOT
BRANCH   1   2
ATOM      2  CAJ MOL d          10.997 -11.185  22.018  0.00  0.00     0.055 C 
BRANCH   2   3
ATOM      3  CAM MOL d           9.712 -10.454  21.642  0.00  0.00    -0.057 A 
ATOM      4  CAH MOL d           9.481 -10.073  20.323  0.00  0.00     0.007 A 
ATOM      5  CAF MOL d           8.325  -9.372  19.980  0.00  0.00     0.001 A 
ATOM      6  CAE MOL d           7.387  -9.052  20.968  0.00  0.00     0.000 A 
ATOM      7  CAG MOL d           7.626  -9.438  22.287  0.00  0.00     0.001 A 
ATOM      8  CAI MOL d           8.786 -10.129  22.629  0.00  0.00     0.007 A 
ENDBRANCH   2   3
ENDBRANCH   1   2
BRANCH   1   9
ATOM      9  CAL MOL d          12.372 -10.018  23.886  0.00  0.00     0.178 C 
ATOM     10  OAD MOL d          12.249  -8.902  24.401  0.00  0.00    -0.648 OA
ATOM     11  OAA MOL d          12.762 -11.054  24.483  0.00  0.00    -0.648 OA
ENDBRANCH   1   9
BRANCH   1  12
ATOM     12  CAK MOL d          13.213  -9.933  21.460  0.00  0.00     0.175 C 
BRANCH  12  13
ATOM     13  NAO MOL d          13.785  -8.583  21.685  0.00  0.00    -0.000 NA
ATOM     14  OAC MOL d          14.805  -8.627  22.694  0.00  0.00    -0.089 OA
ATOM     15  OAB MOL d          14.358  -7.968  20.507  0.00  0.00    -0.089 OA
ENDBRANCH  12  13
ENDBRANCH   1  12
TORSDOF 5
