REMARK  3 active torsions:
REMARK  status: ('A' for Active; 'I' for Inactive)
REMARK    1  A    between atoms: C2_2  and  C21_7 
REMARK    2  A    between atoms: C3_3  and  O31_11 
REMARK    3  A    between atoms: C21_7  and  C22_8 
ROOT
ATOM      1  N1  PRZ d          50.222  22.733  42.644  0.00  0.00    -0.260 NA
ATOM      2  C2  PRZ d          50.227  23.422  41.479  0.00  0.00     0.087 A 
ATOM      3  C3  PRZ d          51.399  23.467  40.723  0.00  0.00     0.189 A 
ATOM      4  N4  PRZ d          52.499  22.835  41.181  0.00  0.00    -0.234 NA
ATOM      5  C5  PRZ d          52.475  22.147  42.328  0.00  0.00     0.138 A 
ATOM      6  C6  PRZ d          51.313  22.101  43.085  0.00  0.00     0.136 A 
ENDROOT
BRANCH   2   7
ATOM      7  C21 PRZ d          48.937  24.074  41.014  0.00  0.00     0.067 C 
BRANCH   7   8
ATOM      8  C22 PRZ d          48.853  25.579  41.128  0.00  0.00    -0.017 C 
ATOM      9  C23 PRZ d          48.656  26.031  42.568  0.00  0.00     0.010 C 
ATOM     10  C24 PRZ d          47.678  26.035  40.272  0.00  0.00     0.010 C 
ENDBRANCH   7   8
ENDBRANCH   2   7
BRANCH   3  11
ATOM     11  O31 PRZ d          51.449  24.180  39.554  0.00  0.00    -0.338 OA
ATOM     12  C31 PRZ d          52.630  24.212  38.745  0.00  0.00     0.211 C 
ENDBRANCH   3  11
TORSDOF 3
