1xge_ligand

Created by X-TOOL on Fri Sep 26 17:34:28 2014
 16 16  0  0  0  0  0  0  0  0999 V2000
   24.9080   37.3920   72.7780  O 0  0  0  1  0  1
   25.6880   38.3340   72.6590  C 0  0  0  1  0  3
   25.2210   39.5770   72.5990  N 0  0  0  2  0  3
   27.0050   38.1320   72.5030  N 0  0  0  2  0  3
   27.8820   39.1010   72.1160  C 0  0  0  1  0  3
   29.0800   38.8910   71.8900  O 0  0  0  1  0  1
   27.3820   40.5310   71.9870  C 0  0  0  3  0  4
   26.1050   40.7070   72.7980  C 0  0  0  2  0  4
   25.4200   41.9610   72.3630  C 0  5  0  1  0  3
   26.0130   43.0460   72.4880  O 0  0  0  1  0  1
   24.2740   41.8500   71.8910  O 0  0  0  1  0  1
   24.2506   39.7334   72.4148  H 0  0  0  1  0  1
   27.3647   37.2161   72.6812  H 0  0  0  1  0  1
   27.1759   40.7517   70.9293  H 0  0  0  1  0  1
   28.1511   41.2219   72.3627  H 0  0  0  1  0  1
   26.3606   40.7815   73.8653  H 0  0  0  1  0  1
  1  2  2  0  0  2
  2  3  1  0  0  1
  2  4  1  0  0  1
  3  8  1  0  0  1
  4  5  1  0  0  1
  5  6  2  0  0  2
  5  7  1  0  0  1
  7  8  1  0  0  1
  8  9  1  0  0  2
  9 10  2  0  0  2
  9 11  2  0  0  2
  3 12  1  0  0  2
  4 13  1  0  0  2
  7 14  1  0  0  2
  7 15  1  0  0  2
  8 16  1  0  0  2
M  END
> <MOLECULAR_FORMULA>
C5H5N2O4

> <MOLECULAR_WEIGHT>
157.1

> <NUM_HB_ATOMS>
6  

> <NUM_ROTOR>
0  

> <XLOGP2>
-1.90

$$$$
