REMARK  19 active torsions:
REMARK  status: ('A' for Active; 'I' for Inactive)
REMARK    1  A    between atoms: OAZ_1  and  CBI_2 
REMARK    2  A    between atoms: PBR_28  and  OAZ_1 
REMARK    3  A    between atoms: CBG_5  and  OAG_6 
REMARK    4  A    between atoms: CBP_7  and  N9_8 
REMARK    5  A    between atoms: C6_16  and  N6_17 
REMARK    6  A    between atoms: N6_17  and  PBS_31 
REMARK    7  A    between atoms: CBK_21  and  CBF_19 
REMARK    8  A    between atoms: CBK_21  and  OAJ_22 
REMARK    9  A    between atoms: CBJ_23  and  CBK_21 
REMARK   10  A    between atoms: CBJ_23  and  OAI_24 
REMARK   11  A    between atoms: CBB_25  and  CBJ_23 
REMARK       I    between atoms: NAV_27  and  CBB_25 
REMARK   12  A    between atoms: NAV_27  and  PBR_28 
REMARK   13  A    between atoms: PBS_31  and  OBA_34 
REMARK   14  A    between atoms: OBA_34  and  CBO_35 
REMARK   15  A    between atoms: CBM_36  and  OAL_37 
REMARK   16  A    between atoms: CBL_38  and  OAK_39 
REMARK   17  A    between atoms: CBN_40  and  CAQ_41 
REMARK   18  A    between atoms: CAQ_41  and  OAF_42 
REMARK   19  A    between atoms: CBH_44  and  OAH_45 
ROOT
ATOM      1  N9  C84 d         -13.012 -28.137  24.916  0.00  0.00    -0.294 N 
ATOM      2  C8  C84 d         -12.373 -28.541  23.773  0.00  0.00     0.214 A 
ATOM      3  N7  C84 d         -13.080 -28.069  22.707  0.00  0.00    -0.236 NA
ATOM      4  C5  C84 d         -14.173 -27.320  23.199  0.00  0.00     0.150 A 
ATOM      5  C4  C84 d         -14.137 -27.349  24.610  0.00  0.00     0.167 A 
ATOM      6  N3  C84 d         -15.116 -26.652  25.334  0.00  0.00    -0.222 NA
ATOM      7  C2  C84 d         -16.093 -25.942  24.678  0.00  0.00     0.237 A 
ATOM      8  N1  C84 d         -16.156 -25.908  23.299  0.00  0.00    -0.222 NA
ATOM      9  C6  C84 d         -15.249 -26.587  22.535  0.00  0.00     0.167 A 
ENDROOT
BRANCH   1  10
ATOM     10  CBP C84 d         -12.751 -28.277  26.370  0.00  0.00     0.262 C 
ATOM     11  OAY C84 d         -11.862 -27.283  26.823  0.00  0.00    -0.333 OA
ATOM     12  CBI C84 d         -10.634 -27.918  27.320  0.00  0.00     0.277 C 
ATOM     13  CAR C84 d         -10.786 -29.363  27.077  0.00  0.00     0.097 C 
ATOM     14  CBG C84 d         -12.227 -29.577  26.922  0.00  0.00     0.172 C 
BRANCH  12  15
ATOM     15  OAZ C84 d          -9.600 -27.457  26.630  0.00  0.00    -0.264 OA
BRANCH  15  16
ATOM     16  PBR C84 d          -8.148 -27.262  27.199  0.00  0.00     0.368 P 
ATOM     17  OAM C84 d          -7.986 -27.991  28.582  0.00  0.00    -0.629 OA
ATOM     18  OAD C84 d          -7.062 -27.728  26.169  0.00  0.00    -0.629 OA
BRANCH  16  19
ATOM     19  NAV C84 d          -7.891 -25.633  27.477  0.00  0.00    -0.259 N 
ATOM     20  CBB C84 d          -6.598 -25.137  27.955  0.00  0.00     0.258 C 
ATOM     21  OAC C84 d          -5.717 -25.947  28.160  0.00  0.00    -0.270 OA
ATOM     22  H21 C84 d          -8.635 -24.985  27.314  0.00  0.00     0.175 HD
BRANCH  20  23
ATOM     23  CBJ C84 d          -6.413 -23.653  28.200  0.00  0.00     0.239 C 
BRANCH  23  24
ATOM     24  CBK C84 d          -4.961 -23.163  28.332  0.00  0.00     0.159 C 
BRANCH  24  25
ATOM     25  CBF C84 d          -4.180 -23.709  29.578  0.00  0.00     0.009 C 
ATOM     26  CAA C84 d          -2.742 -24.041  29.361  0.00  0.00     0.012 C 
ATOM     27  CAB C84 d          -4.516 -23.177  30.937  0.00  0.00     0.012 C 
ENDBRANCH  24  25
BRANCH  24  28
ATOM     28  OAJ C84 d          -4.921 -21.774  28.164  0.00  0.00    -0.392 OA
ATOM     29  H18 C84 d          -5.417 -21.535  27.390  0.00  0.00     0.210 HD
ENDBRANCH  24  28
ENDBRANCH  23  24
BRANCH  23  30
ATOM     30  OAI C84 d          -7.113 -22.936  27.260  0.00  0.00    -0.384 OA
ATOM     31  H20 C84 d          -7.130 -22.020  27.510  0.00  0.00     0.210 HD
ENDBRANCH  23  30
ENDBRANCH  20  23
ENDBRANCH  16  19
ENDBRANCH  15  16
ENDBRANCH  12  15
BRANCH  14  32
ATOM     32  OAG C84 d         -12.467 -30.643  26.123  0.00  0.00    -0.391 OA
ATOM     33  H5  C84 d         -12.084 -30.488  25.267  0.00  0.00     0.210 HD
ENDBRANCH  14  32
ENDBRANCH   1  10
BRANCH   9  34
ATOM     34  N6  C84 d         -15.264 -26.517  21.074  0.00  0.00    -0.273 N 
ATOM     35  H9  C84 d         -14.386 -26.606  20.603  0.00  0.00     0.173 HD
BRANCH  34  36
ATOM     36  PBS C84 d         -16.611 -26.303  20.133  0.00  0.00     0.365 P 
ATOM     37  OAN C84 d         -17.609 -27.409  20.459  0.00  0.00    -0.629 OA
ATOM     38  OAE C84 d         -17.277 -24.992  20.525  0.00  0.00    -0.629 OA
BRANCH  36  39
ATOM     39  OBA C84 d         -16.172 -26.333  18.603  0.00  0.00    -0.282 OA
BRANCH  39  40
ATOM     40  CBO C84 d         -15.838 -27.549  17.977  0.00  0.00     0.220 C 
ATOM     41  CBM C84 d         -14.362 -27.827  17.925  0.00  0.00     0.183 C 
ATOM     42  CBL C84 d         -14.012 -28.812  16.900  0.00  0.00     0.180 C 
ATOM     43  CBN C84 d         -14.699 -28.813  15.546  0.00  0.00     0.179 C 
ATOM     44  OAX C84 d         -15.970 -28.014  15.529  0.00  0.00    -0.349 OA
ATOM     45  CBH C84 d         -16.675 -27.794  16.726  0.00  0.00     0.289 C 
BRANCH  41  46
ATOM     46  OAL C84 d         -13.867 -28.294  19.224  0.00  0.00    -0.390 OA
ATOM     47  H24 C84 d         -12.934 -28.462  19.164  0.00  0.00     0.210 HD
ENDBRANCH  41  46
BRANCH  42  48
ATOM     48  OAK C84 d         -12.629 -29.159  16.853  0.00  0.00    -0.390 OA
ATOM     49  H26 C84 d         -12.488 -29.799  16.166  0.00  0.00     0.210 HD
ENDBRANCH  42  48
BRANCH  43  50
ATOM     50  CAQ C84 d         -15.019 -30.166  14.995  0.00  0.00     0.198 C 
BRANCH  50  51
ATOM     51  OAF C84 d         -14.547 -30.416  13.716  0.00  0.00    -0.398 OA
ATOM     52  H30 C84 d         -14.797 -31.294  13.453  0.00  0.00     0.209 HD
ENDBRANCH  50  51
ENDBRANCH  43  50
BRANCH  45  53
ATOM     53  OAH C84 d         -17.746 -26.924  16.523  0.00  0.00    -0.368 OA
ATOM     54  H32 C84 d         -17.420 -26.091  16.204  0.00  0.00     0.212 HD
ENDBRANCH  45  53
ENDBRANCH  39  40
ENDBRANCH  36  39
ENDBRANCH  34  36
ENDBRANCH   9  34
TORSDOF 19
