REMARK  12 active torsions:
REMARK  status: ('A' for Active; 'I' for Inactive)
REMARK    1  A    between atoms: N_1  and  CA_2 
REMARK    2  A    between atoms: CA_20  and  CB_23 
REMARK    3  A    between atoms: CB_23  and  CG_24 
REMARK    4  A    between atoms: CG_24  and  CD_25 
REMARK    5  A    between atoms: CD_25  and  NE_26 
REMARK       I    between atoms: NE_26  and  CZ_27 
REMARK       I    between atoms: CZ_27  and  NH1_28 
REMARK    6  A    between atoms: CA_31  and  CB_34 
REMARK    7  A    between atoms: CB_34  and  CG_35 
REMARK    8  A    between atoms: CA_52  and  CB_55 
REMARK    9  A    between atoms: CB_55  and  CG_56 
REMARK   10  A    between atoms: CA_60  and  CB_63 
REMARK   11  A    between atoms: CB_63  and  CG_64 
REMARK   12  A    between atoms: CA_74  and  C_75 
ROOT
ATOM      1  CA  CYS d         -26.974 -22.411   3.329  0.00  0.00     0.284 C 
ATOM      2  C   CYS d         -28.047 -23.225   4.057  0.00  0.00     0.252 C 
ATOM      3  O   CYS d         -28.692 -24.082   3.443  0.00  0.00    -0.271 OA
ATOM      4  CB  CYS d         -27.599 -21.189   2.628  0.00  0.00     0.129 C 
ATOM      5  SG  CYS d         -28.337 -21.512   1.010  0.00  0.00    -0.095 SA
ATOM      6  N   CYS d         -28.230 -22.971   5.370  0.00  0.00    -0.337 N 
ATOM      7  CA  CYS d         -29.296 -23.620   6.150  0.00  0.00     0.179 C 
ATOM      8  C   CYS d         -30.703 -23.314   5.640  0.00  0.00     0.241 C 
ATOM      9  O   CYS d         -30.924 -22.285   4.992  0.00  0.00    -0.271 OA
ATOM     10  CB  CYS d         -29.119 -23.039   7.560  0.00  0.00     0.037 C 
ATOM     11  CG  CYS d         -27.723 -22.546   7.616  0.00  0.00     0.022 C 
ATOM     12  CD  CYS d         -27.345 -22.152   6.220  0.00  0.00     0.127 C 
ATOM     13  N   CYS d         -31.645 -24.194   5.971  0.00  0.00    -0.346 N 
ATOM     14  CA  CYS d         -33.020 -24.118   5.478  0.00  0.00     0.172 C 
ATOM     15  C   CYS d         -33.770 -22.835   5.867  0.00  0.00     0.240 C 
ATOM     16  O   CYS d         -34.703 -22.436   5.172  0.00  0.00    -0.271 OA
ATOM     17  CB  CYS d         -33.809 -25.335   5.948  0.00  0.00     0.042 C 
ATOM     18  N   CYS d         -33.380 -22.209   6.977  0.00  0.00    -0.346 N 
ATOM     19  CA  CYS d         -34.007 -20.956   7.422  0.00  0.00     0.176 C 
ATOM     20  C   CYS d         -33.721 -19.792   6.467  0.00  0.00     0.241 C 
ATOM     21  O   CYS d         -34.482 -18.824   6.409  0.00  0.00    -0.271 OA
ATOM     22  N   CYS d         -32.666 -19.881   5.669  0.00  0.00    -0.346 N 
ATOM     23  CA  CYS d         -32.393 -18.863   4.644  0.00  0.00     0.180 C 
ATOM     24  C   CYS d         -33.181 -19.025   3.336  0.00  0.00     0.241 C 
ATOM     25  O   CYS d         -33.940 -19.927   3.189  0.00  0.00    -0.271 OA
ATOM     26  N   CYS d         -33.187 -18.107   2.495  0.00  0.00    -0.346 N 
ATOM     27  CA  CYS d         -34.203 -17.858   1.457  0.00  0.00     0.172 C 
ATOM     28  C   CYS d         -33.674 -17.973   0.032  0.00  0.00     0.240 C 
ATOM     29  O   CYS d         -34.481 -17.899  -0.827  0.00  0.00    -0.271 OA
ATOM     30  CB  CYS d         -34.988 -16.542   1.607  0.00  0.00     0.042 C 
ATOM     31  N   CYS d         -32.516 -18.247  -0.181  0.00  0.00    -0.346 N 
ATOM     32  CA  CYS d         -32.070 -18.592  -1.520  0.00  0.00     0.172 C 
ATOM     33  C   CYS d         -32.632 -19.935  -1.980  0.00  0.00     0.240 C 
ATOM     34  O   CYS d         -33.076 -20.693  -1.180  0.00  0.00    -0.271 OA
ATOM     35  CB  CYS d         -30.558 -18.507  -1.653  0.00  0.00     0.042 C 
ATOM     36  N   CYS d         -32.608 -20.114  -3.212  0.00  0.00    -0.346 N 
ATOM     37  CA  CYS d         -33.425 -21.172  -3.762  0.00  0.00     0.177 C 
ATOM     38  C   CYS d         -33.013 -22.587  -3.375  0.00  0.00     0.241 C 
ATOM     39  O   CYS d         -33.808 -23.454  -3.386  0.00  0.00    -0.271 OA
ATOM     40  N   CYS d         -31.845 -22.807  -3.035  0.00  0.00    -0.346 N 
ATOM     41  CA  CYS d         -31.336 -24.130  -2.670  0.00  0.00     0.181 C 
ATOM     42  C   CYS d         -30.840 -24.222  -1.225  0.00  0.00     0.241 C 
ATOM     43  O   CYS d         -30.109 -25.147  -0.867  0.00  0.00    -0.271 OA
ATOM     44  N   CYS d         -31.268 -23.276  -0.394  0.00  0.00    -0.344 N 
ATOM     45  CA  CYS d         -31.000 -23.329   1.037  0.00  0.00     0.195 C 
ATOM     46  CB  CYS d         -31.267 -21.965   1.679  0.00  0.00     0.122 C 
ATOM     47  SG  CYS d         -30.178 -20.638   1.112  0.00  0.00    -0.095 SA
ATOM     48  H14 CYS d         -31.401 -24.943   6.587  0.00  0.00     0.163 HD
ATOM     49  H19 CYS d         -32.640 -22.603   7.522  0.00  0.00     0.163 HD
ATOM     50  H32 CYS d         -32.043 -20.657   5.766  0.00  0.00     0.163 HD
ATOM     51  H41 CYS d         -32.418 -17.469   2.527  0.00  0.00     0.163 HD
ATOM     52  H46 CYS d         -31.858 -18.236   0.572  0.00  0.00     0.163 HD
ATOM     53  H51 CYS d         -32.040 -19.542  -3.804  0.00  0.00     0.163 HD
ATOM     54  H62 CYS d         -31.210 -22.035  -3.008  0.00  0.00     0.163 HD
ATOM     55  H72 CYS d         -31.789 -22.506  -0.762  0.00  0.00     0.163 HD
ENDROOT
BRANCH  19  56
ATOM     56  CB  CYS d         -33.580 -20.597   8.851  0.00  0.00     0.036 C 
BRANCH  56  57
ATOM     57  CG  CYS d         -32.102 -20.276   9.055  0.00  0.00     0.023 C 
BRANCH  57  58
ATOM     58  CD  CYS d         -31.769 -20.269  10.540  0.00  0.00     0.138 C 
BRANCH  58  59
ATOM     59  NE  CYS d         -30.385 -19.892  10.827  0.00  0.00    -0.227 N 
ATOM     60  CZ  CYS d         -29.351 -20.731  10.873  0.00  0.00     0.665 C 
ATOM     61  NH1 CYS d         -29.509 -22.033  10.638  0.00  0.00    -0.235 N 
ATOM     62  NH2 CYS d         -28.140 -20.264  11.158  0.00  0.00    -0.235 N 
ATOM     63  H28 CYS d         -28.697 -22.666  10.678  0.00  0.00     0.174 HD
ATOM     64  H29 CYS d         -30.443 -22.407  10.416  0.00  0.00     0.174 HD
ATOM     65  H30 CYS d         -28.006 -19.259  11.341  0.00  0.00     0.174 HD
ATOM     66  H31 CYS d         -27.336 -20.907  11.195  0.00  0.00     0.174 HD
ATOM     67  H27 CYS d         -30.194 -18.896  11.008  0.00  0.00     0.177 HD
ENDBRANCH  58  59
ENDBRANCH  57  58
ENDBRANCH  56  57
ENDBRANCH  19  56
BRANCH  23  68
ATOM     68  CB  CYS d         -30.892 -18.699   4.376  0.00  0.00     0.073 C 
BRANCH  68  69
ATOM     69  CG  CYS d         -30.120 -18.303   5.591  0.00  0.00    -0.056 A 
ATOM     70  CD1 CYS d         -29.714 -19.249   6.469  0.00  0.00     0.007 A 
ATOM     71  CE1 CYS d         -29.070 -18.916   7.603  0.00  0.00     0.001 A 
ATOM     72  CZ  CYS d         -28.793 -17.617   7.856  0.00  0.00     0.000 A 
ATOM     73  CE2 CYS d         -29.179 -16.649   6.982  0.00  0.00     0.001 A 
ATOM     74  CD2 CYS d         -29.843 -17.002   5.864  0.00  0.00     0.007 A 
ENDBRANCH  68  69
ENDBRANCH  23  68
BRANCH   1  75
ATOM     75  N   CYS d         -26.203 -23.258   2.368  0.00  0.00    -0.066 N 
ATOM     76  H1  CYS d         -25.507 -22.694   1.907  0.00  0.00     0.275 HD
ATOM     77  H2  CYS d         -26.832 -23.644   1.681  0.00  0.00     0.275 HD
ATOM     78  H3  CYS d         -25.751 -24.007   2.868  0.00  0.00     0.275 HD
ENDBRANCH   1  75
BRANCH  37  79
ATOM     79  CB  CYS d         -33.587 -20.986  -5.257  0.00  0.00     0.038 C 
BRANCH  79  80
ATOM     80  CG  CYS d         -34.365 -19.713  -5.607  0.00  0.00    -0.020 C 
ATOM     81  CD1 CYS d         -34.405 -19.449  -7.083  0.00  0.00     0.009 C 
ATOM     82  CD2 CYS d         -35.767 -19.886  -5.142  0.00  0.00     0.009 C 
ENDBRANCH  79  80
ENDBRANCH  37  79
BRANCH  45  83
ATOM     83  C   CYS d         -31.872 -24.395   1.693  0.00  0.00     0.197 C 
ATOM     84  O   CYS d         -33.007 -24.621   1.272  0.00  0.00    -0.646 OA
ATOM     85  OXT CYS d         -31.452 -25.043   2.652  0.00  0.00    -0.646 OA
ENDBRANCH  45  83
BRANCH  41  86
ATOM     86  CB  CYS d         -30.258 -24.531  -3.673  0.00  0.00     0.075 C 
BRANCH  86  87
ATOM     87  CG  CYS d         -30.808 -24.451  -5.057  0.00  0.00    -0.028 A 
ATOM     88  CD1 CYS d         -31.638 -25.351  -5.657  0.00  0.00     0.096 A 
ATOM     89  NE1 CYS d         -31.962 -24.929  -6.922  0.00  0.00    -0.365 N 
ATOM     90  CE2 CYS d         -31.364 -23.719  -7.153  0.00  0.00     0.042 A 
ATOM     91  H67 CYS d         -32.558 -25.439  -7.589  0.00  0.00     0.165 HD
ATOM     92  CD2 CYS d         -30.635 -23.380  -5.993  0.00  0.00    -0.002 A 
ATOM     93  CZ2 CYS d         -31.402 -22.899  -8.282  0.00  0.00     0.030 A 
ATOM     94  CE3 CYS d         -29.925 -22.173  -5.969  0.00  0.00     0.014 A 
ATOM     95  CZ3 CYS d         -29.964 -21.357  -7.094  0.00  0.00     0.001 A 
ATOM     96  CH2 CYS d         -30.699 -21.726  -8.234  0.00  0.00     0.002 A 
ENDBRANCH  86  87
ENDBRANCH  41  86
TORSDOF 12
