REMARK  10 active torsions:
REMARK  status: ('A' for Active; 'I' for Inactive)
REMARK    1  A    between atoms: C2_2  and  N2_32 
REMARK    2  A    between atoms: C6_9  and  C9_11 
REMARK    3  A    between atoms: C9_11  and  N10_12 
REMARK    4  A    between atoms: N10_12  and  C4'_13 
REMARK    5  A    between atoms: C1'_16  and  C11_19 
REMARK       I    between atoms: C11_19  and  N_20 
REMARK    6  A    between atoms: N_20  and  CA_21 
REMARK    7  A    between atoms: CA_21  and  C_22 
REMARK    8  A    between atoms: CA_21  and  CB_25 
REMARK    9  A    between atoms: CB_25  and  CG_26 
REMARK   10  A    between atoms: CG_26  and  CD_27 
ROOT
ATOM      1  N10 THG d          22.820  14.346  41.294  0.00  0.00    -0.388 N 
ATOM      2  H11 THG d          21.954  13.794  41.214  0.00  0.00     0.159 HD
ENDROOT
BRANCH   1   3
ATOM      3  C9  THG d          23.817  13.985  42.315  0.00  0.00     0.154 C 
BRANCH   3   4
ATOM      4  C6  THG d          25.023  13.309  41.696  0.00  0.00     0.222 C 
ATOM      5  C7  THG d          26.075  13.128  42.736  0.00  0.00     0.155 C 
ATOM      6  N8  THG d          27.239  12.764  42.052  0.00  0.00    -0.373 N 
ATOM      7  C8A THG d          27.101  11.610  41.244  0.00  0.00     0.159 A 
ATOM      8  H3  THG d          28.121  13.290  42.129  0.00  0.00     0.161 HD
ATOM      9  N1  THG d          28.167  10.921  40.877  0.00  0.00    -0.049 NA
ATOM     10  C4A THG d          25.840  11.213  40.808  0.00  0.00     0.347 A 
ATOM     11  C2  THG d          28.023   9.821  40.086  0.00  0.00     0.702 A 
ATOM     12  N3  THG d          26.819   9.392  39.647  0.00  0.00    -0.156 N 
ATOM     13  C4  THG d          25.765  10.101  40.023  0.00  0.00     0.274 A 
ATOM     14  H1  THG d          26.728   8.581  39.068  0.00  0.00     0.187 HD
ATOM     15  O4  THG d          24.664   9.731  39.633  0.00  0.00    -0.270 OA
ATOM     16  N5  THG d          24.695  11.984  41.206  0.00  0.00    -0.048 N 
ATOM     17  H7  THG d          24.214  11.485  41.938  0.00  0.00     0.279 HD
ATOM     18  H8  THG d          24.085  12.082  40.409  0.00  0.00     0.279 HD
BRANCH  11  19
ATOM     19  N2  THG d          29.171   9.099  39.714  0.00  0.00    -0.233 N 
ATOM     20  H22 THG d          30.100   9.406  40.036  0.00  0.00     0.174 HD
ATOM     21  H23 THG d          29.083   8.263  39.119  0.00  0.00     0.174 HD
ENDBRANCH  11  19
ENDBRANCH   3   4
ENDBRANCH   1   3
BRANCH   1  22
ATOM     22  C4' THG d          23.040  15.483  40.386  0.00  0.00     0.028 A 
ATOM     23  C3' THG d          24.086  16.414  40.634  0.00  0.00     0.030 A 
ATOM     24  C2' THG d          24.279  17.490  39.767  0.00  0.00     0.019 A 
ATOM     25  C1' THG d          23.427  17.640  38.643  0.00  0.00     0.032 A 
ATOM     26  C6' THG d          22.400  16.730  38.407  0.00  0.00     0.019 A 
ATOM     27  C5' THG d          22.203  15.644  39.285  0.00  0.00     0.030 A 
BRANCH  25  28
ATOM     28  C11 THG d          23.643  18.845  37.681  0.00  0.00     0.252 C 
ATOM     29  N   THG d          24.456  19.897  38.096  0.00  0.00    -0.342 N 
ATOM     30  H16 THG d          24.892  19.869  38.996  0.00  0.00     0.163 HD
ATOM     31  O11 THG d          23.108  18.881  36.592  0.00  0.00    -0.268 OA
BRANCH  29  32
ATOM     32  CA  THG d          24.665  21.009  37.239  0.00  0.00     0.186 C 
BRANCH  32  33
ATOM     33  C   THG d          25.911  20.761  36.411  0.00  0.00     0.196 C 
ATOM     34  OX2 THG d          26.922  20.188  36.921  0.00  0.00    -0.646 OA
ATOM     35  OX1 THG d          25.926  21.127  35.197  0.00  0.00    -0.646 OA
ENDBRANCH  32  33
BRANCH  32  36
ATOM     36  CB  THG d          24.842  22.240  38.093  0.00  0.00     0.046 C 
BRANCH  36  37
ATOM     37  CG  THG d          24.590  23.498  37.256  0.00  0.00     0.116 C 
BRANCH  37  38
ATOM     38  CD  THG d          25.003  24.701  38.090  0.00  0.00     0.172 C 
ATOM     39  OE1 THG d          25.034  24.608  39.345  0.00  0.00    -0.648 OA
ATOM     40  OE2 THG d          25.318  25.782  37.516  0.00  0.00    -0.648 OA
ENDBRANCH  37  38
ENDBRANCH  36  37
ENDBRANCH  32  36
ENDBRANCH  29  32
ENDBRANCH  25  28
ENDBRANCH   1  22
TORSDOF 10
