REMARK  4 active torsions:
REMARK  status: ('A' for Active; 'I' for Inactive)
REMARK    1  A    between atoms: P1_1  and  O2_5 
REMARK    2  A    between atoms: O2_5  and  C1_6 
REMARK    3  A    between atoms: C1_6  and  C2_7 
REMARK    4  A    between atoms: C2_7  and  N1_8 
ROOT
ATOM      1  C1   PC d          16.264  12.589  18.244  0.00  0.00     0.210 C 
ENDROOT
BRANCH   1   2
ATOM      2  O2   PC d          16.560  11.793  19.373  0.00  0.00    -0.281 OA
BRANCH   2   3
ATOM      3  P1   PC d          15.494  10.808  20.014  0.00  0.00     0.422 P 
ATOM      4  O1   PC d          14.254  11.626  20.323  0.00  0.00    -0.617 OA
ATOM      5  O3   PC d          16.156  10.251  21.251  0.00  0.00    -0.617 OA
ATOM      6  O4   PC d          15.220   9.712  19.000  0.00  0.00    -0.617 OA
ENDBRANCH   2   3
ENDBRANCH   1   2
BRANCH   1   7
ATOM      7  C2   PC d          17.408  13.530  17.842  0.00  0.00     0.262 C 
BRANCH   7   8
ATOM      8  N1   PC d          17.695  14.702  18.712  0.00  0.00    -0.077 N 
ATOM      9  C3   PC d          18.828  15.436  18.021  0.00  0.00     0.271 C 
ATOM     10  C4   PC d          17.953  14.285  20.082  0.00  0.00     0.271 C 
ATOM     11  C5   PC d          16.588  15.567  18.747  0.00  0.00     0.271 C 
ENDBRANCH   7   8
ENDBRANCH   1   7
TORSDOF 4
