REMARK  7 active torsions:
REMARK  status: ('A' for Active; 'I' for Inactive)
REMARK    1  A    between atoms: CA_2  and  N_1 
REMARK    2  A    between atoms: N_1  and  C1_8 
REMARK    3  A    between atoms: CA_2  and  CB_5 
REMARK    4  A    between atoms: CA_2  and  C_3 
REMARK    5  A    between atoms: CB_5  and  OG_6 
REMARK    6  A    between atoms: C2_9  and  N2_10 
REMARK    7  A    between atoms: C4_14  and  N4_15 
ROOT
ATOM      1  C1  SER d          37.308  53.538  77.733  0.00  0.00     0.062 A 
ATOM      2  C2  SER d          37.263  54.497  78.767  0.00  0.00     0.131 A 
ATOM      3  C3  SER d          38.143  54.493  79.820  0.00  0.00     0.074 A 
ATOM      4  C4  SER d          39.082  53.504  79.818  0.00  0.00     0.105 A 
ATOM      5  C5  SER d          39.227  52.481  78.848  0.00  0.00     0.038 A 
ATOM      6  C6  SER d          38.323  52.544  77.825  0.00  0.00     0.034 A 
ENDROOT
BRANCH   1   7
ATOM      7  N   SER d          36.275  53.592  76.675  0.00  0.00    -0.372 N 
ATOM      8  H1  SER d          35.519  54.291  76.677  0.00  0.00     0.160 HD
BRANCH   7   9
ATOM      9  CA  SER d          36.405  52.579  75.624  0.00  0.00     0.207 C 
BRANCH   9  10
ATOM     10  CB  SER d          35.569  51.345  75.979  0.00  0.00     0.200 C 
BRANCH  10  11
ATOM     11  OG  SER d          36.209  50.088  76.097  0.00  0.00    -0.398 OA
ATOM     12  H5  SER d          35.565  49.426  76.319  0.00  0.00     0.209 HD
ENDBRANCH  10  11
ENDBRANCH   9  10
BRANCH   9  13
ATOM     13  C   SER d          35.845  53.204  74.313  0.00  0.00     0.198 C 
ATOM     14  O   SER d          35.151  54.228  74.340  0.00  0.00    -0.646 OA
ATOM     15  OXT SER d          36.218  53.396  73.066  0.00  0.00    -0.646 OA
ENDBRANCH   9  13
ENDBRANCH   7   9
ENDBRANCH   1   7
BRANCH   2  16
ATOM     16  N2  SER d          36.271  55.546  78.774  0.00  0.00    -0.113 N 
ATOM     17  O21 SER d          35.419  55.698  77.922  0.00  0.00    -0.532 OA
ATOM     18  O22 SER d          36.291  56.330  79.709  0.00  0.00    -0.532 OA
ENDBRANCH   2  16
BRANCH   4  19
ATOM     19  N4  SER d          40.054  53.461  80.933  0.00  0.00    -0.116 N 
ATOM     20  O41 SER d          39.939  54.322  81.752  0.00  0.00    -0.532 OA
ATOM     21  O42 SER d          40.861  52.557  80.896  0.00  0.00    -0.532 OA
ENDBRANCH   4  19
TORSDOF 7
