REMARK  6 active torsions:
REMARK  status: ('A' for Active; 'I' for Inactive)
REMARK    1  A    between atoms: C03_3  and  O20_20 
REMARK    2  A    between atoms: C06_6  and  C07_7 
REMARK    3  A    between atoms: C07_7  and  C08_8 
REMARK    4  A    between atoms: C10_10  and  C16_16 
REMARK    5  A    between atoms: C11_11  and  O14_14 
REMARK    6  A    between atoms: C12_12  and  O15_15 
ROOT
ATOM      1  C08 P1Y d           3.048   4.603  31.124  0.00  0.00     0.134 A 
ATOM      2  N09 P1Y d           3.319   4.060  29.929  0.00  0.00    -0.223 NA
ATOM      3  C10 P1Y d           3.292   4.919  28.876  0.00  0.00     0.172 A 
ATOM      4  C11 P1Y d           2.993   6.255  28.999  0.00  0.00     0.155 A 
ATOM      5  C12 P1Y d           2.742   6.672  30.285  0.00  0.00     0.200 A 
ATOM      6  N13 P1Y d           2.756   5.881  31.380  0.00  0.00    -0.207 NA
ENDROOT
BRANCH   1   7
ATOM      7  C07 P1Y d           3.075   3.669  32.300  0.00  0.00     0.119 C 
BRANCH   7   8
ATOM      8  C06 P1Y d           4.175   3.984  33.274  0.00  0.00    -0.050 A 
ATOM      9  C01 P1Y d           3.853   4.363  34.579  0.00  0.00     0.029 A 
ATOM     10  C02 P1Y d           4.893   4.625  35.453  0.00  0.00     0.044 A 
ATOM     11  C03 P1Y d           6.231   4.541  35.071  0.00  0.00     0.085 A 
ATOM     12 BR19 P1Y d           4.499   5.098  37.249  0.00  0.00    -0.048 Br
ATOM     13  C04 P1Y d           6.547   4.188  33.756  0.00  0.00     0.039 A 
ATOM     14  C05 P1Y d           5.517   3.894  32.869  0.00  0.00     0.010 A 
BRANCH  11  15
ATOM     15  O20 P1Y d           7.164   4.856  36.025  0.00  0.00    -0.355 OA
ATOM     16  C21 P1Y d           8.540   4.706  35.681  0.00  0.00     0.210 C 
ENDBRANCH  11  15
ENDBRANCH   7   8
ENDBRANCH   1   7
BRANCH   3  17
ATOM     17  C16 P1Y d           3.579   4.302  27.565  0.00  0.00     0.232 C 
ATOM     18  O17 P1Y d           3.871   2.998  27.715  0.00  0.00    -0.643 OA
ATOM     19  O18 P1Y d           3.533   4.846  26.477  0.00  0.00    -0.643 OA
ENDBRANCH   3  17
BRANCH   5  20
ATOM     20  O15 P1Y d           2.437   7.961  30.534  0.00  0.00    -0.343 OA
ATOM     21  H7  P1Y d           2.447   8.451  29.720  0.00  0.00     0.219 HD
ENDBRANCH   5  20
BRANCH   4  22
ATOM     22  O14 P1Y d           2.985   7.130  27.958  0.00  0.00    -0.355 OA
ATOM     23  H6  P1Y d           3.178   6.664  27.153  0.00  0.00     0.218 HD
ENDBRANCH   4  22
TORSDOF 6
