3qin_ligand

Created by X-TOOL on Fri Sep 26 17:34:52 2014
 31 32  0  0  0  0  0  0  0  0999 V2000
    3.8530    4.3630   34.5790  C 0  0  0  2  0  3
    4.8930    4.6250   35.4530  C 0  0  0  1  0  3
    6.2310    4.5410   35.0710  C 0  0  0  1  0  3
    6.5470    4.1880   33.7560  C 0  0  0  2  0  3
    5.5170    3.8940   32.8690  C 0  0  0  2  0  3
    4.1750    3.9840   33.2740  C 0  0  0  1  0  3
    3.0750    3.6690   32.3000  C 0  0  0  3  0  4
    3.0480    4.6030   31.1240  C 0  0  0  1  0  3
    3.3190    4.0600   29.9290  N 0  0  0  1  0  2
    3.2920    4.9190   28.8760  C 0  0  0  1  0  3
    2.9930    6.2550   28.9990  C 0  0  0  1  0  3
    2.7420    6.6720   30.2850  C 0  0  0  1  0  3
    2.7560    5.8810   31.3800  N 0  0  0  1  0  2
    2.9850    7.1300   27.9580  O 0  0  0  2  0  2
    2.4370    7.9610   30.5340  O 0  0  0  2  0  2
    3.5790    4.3020   27.5650  C 0  5  0  1  0  3
    3.8710    2.9980   27.7150  O 0  0  0  1  0  1
    3.5330    4.8460   26.4770  O 0  0  0  1  0  1
    4.4990    5.0980   37.2490 Br 0  0  0  1  0  1
    7.1640    4.8560   36.0250  O 0  0  0  1  0  2
    8.5400    4.7060   35.6810  C 0  0  0  4  0  4
    2.8204    4.4492   34.8972  H 0  0  0  1  0  1
    7.5805    4.1440   33.4321  H 0  0  0  1  0  1
    5.7522    3.5923   31.8547  H 0  0  0  1  0  1
    2.1110    3.7386   32.8252  H 0  0  0  1  0  1
    3.2176    2.6431   31.9297  H 0  0  0  1  0  1
    3.1778    6.6642   27.1528  H 0  0  0  1  0  1
    2.4472    8.4506   29.7199  H 0  0  0  1  0  1
    9.1658    4.9937   36.5387  H 0  0  0  1  0  1
    8.7758    5.3516   34.8222  H 0  0  0  1  0  1
    8.7397    3.6570   35.4170  H 0  0  0  1  0  1
  1  2  4  0  0  1
  1  6  4  0  0  1
  2  3  4  0  0  1
  2 19  1  0  0  2
  3  4  4  0  0  1
  3 20  1  0  0  2
  4  5  4  0  0  1
  5  6  4  0  0  1
  6  7  1  0  0  2
  7  8  1  0  0  2
  8  9  4  0  0  1
  8 13  4  0  0  1
  9 10  4  0  0  1
 10 11  4  0  0  1
 10 16  1  0  0  2
 11 12  4  0  0  1
 11 14  1  0  0  2
 12 13  4  0  0  1
 12 15  1  0  0  2
 16 17  2  0  0  2
 16 18  2  0  0  2
 20 21  1  0  0  2
  1 22  1  0  0  2
  4 23  1  0  0  2
  5 24  1  0  0  2
  7 25  1  0  0  2
  7 26  1  0  0  2
 14 27  1  0  0  2
 15 28  1  0  0  2
 21 29  1  0  0  2
 21 30  1  0  0  2
 21 31  1  0  0  2
M  END
> <MOLECULAR_FORMULA>
C13H10N2O5Br

> <MOLECULAR_WEIGHT>
354.1

> <NUM_HB_ATOMS>
7  

> <NUM_ROTOR>
3  

> <XLOGP2>
3.06 

$$$$
