REMARK  9 active torsions:
REMARK  status: ('A' for Active; 'I' for Inactive)
REMARK    1  A    between atoms: C9_2  and  C8_3 
REMARK    2  A    between atoms: C8_3  and  C11_4 
REMARK    3  A    between atoms: C7_10  and  C1_11 
REMARK    4  A    between atoms: C7_10  and  C17_18 
REMARK    5  A    between atoms: C4_14  and  O4_15 
REMARK    6  A    between atoms: C20_21  and  O20_22 
REMARK    7  A    between atoms: O20_22  and  C23_23 
REMARK    8  A    between atoms: C23_23  and  C24_24 
REMARK    9  A    between atoms: C24_24  and  N24_25 
ROOT
ATOM      1  C8  OHT d          49.070 -29.917 -97.470  0.00  0.00    -0.036 C 
ATOM      2  C7  OHT d          48.718 -29.403 -96.204  0.00  0.00    -0.009 C 
ENDROOT
BRANCH   2   3
ATOM      3  C1  OHT d          48.264 -27.955 -95.944  0.00  0.00    -0.024 A 
ATOM      4  C2  OHT d          49.015 -27.093 -95.074  0.00  0.00     0.015 A 
ATOM      5  C3  OHT d          48.578 -25.757 -94.815  0.00  0.00     0.037 A 
ATOM      6  C4  OHT d          47.388 -25.272 -95.425  0.00  0.00     0.065 A 
ATOM      7  C5  OHT d          46.633 -26.095 -96.287  0.00  0.00     0.037 A 
ATOM      8  C6  OHT d          47.066 -27.428 -96.542  0.00  0.00     0.015 A 
BRANCH   6   9
ATOM      9  O4  OHT d          46.994 -23.993 -95.154  0.00  0.00    -0.361 OA
ATOM     10  H13 OHT d          46.191 -23.804 -95.624  0.00  0.00     0.217 HD
ENDBRANCH   6   9
ENDBRANCH   2   3
BRANCH   2  11
ATOM     11  C17 OHT d          48.756 -30.294 -95.009  0.00  0.00    -0.024 A 
ATOM     12  C18 OHT d          49.943 -30.979 -94.577  0.00  0.00     0.015 A 
ATOM     13  C19 OHT d          49.938 -31.739 -93.370  0.00  0.00     0.037 A 
ATOM     14  C20 OHT d          48.747 -31.825 -92.583  0.00  0.00     0.068 A 
ATOM     15  C21 OHT d          47.578 -31.149 -93.033  0.00  0.00     0.037 A 
ATOM     16  C22 OHT d          47.576 -30.389 -94.227  0.00  0.00     0.015 A 
BRANCH  14  17
ATOM     17  O20 OHT d          48.775 -32.558 -91.486  0.00  0.00    -0.350 OA
BRANCH  17  18
ATOM     18  C23 OHT d          48.502 -32.050 -90.168  0.00  0.00     0.203 C 
BRANCH  18  19
ATOM     19  C24 OHT d          48.648 -33.245 -89.200  0.00  0.00     0.260 C 
BRANCH  19  20
ATOM     20  N24 OHT d          49.992 -33.407 -88.572  0.00  0.00    -0.077 N 
ATOM     21  C25 OHT d          50.996 -32.627 -89.333  0.00  0.00     0.269 C 
ATOM     22  C26 OHT d          50.027 -32.980 -87.148  0.00  0.00     0.269 C 
ATOM     23  H22 OHT d          50.239 -34.383 -88.613  0.00  0.00     0.279 HD
ENDBRANCH  19  20
ENDBRANCH  18  19
ENDBRANCH  17  18
ENDBRANCH  14  17
ENDBRANCH   2  11
BRANCH   1  24
ATOM     24  C9  OHT d          49.252 -29.089 -98.794  0.00  0.00     0.036 C 
ATOM     25  C10 OHT d          48.233 -29.359 -99.914  0.00  0.00     0.010 C 
ENDBRANCH   1  24
BRANCH   1  26
ATOM     26  C11 OHT d          49.345 -31.329 -97.708  0.00  0.00    -0.029 A 
ATOM     27  C16 OHT d          48.350 -32.294 -97.417  0.00  0.00     0.012 A 
ATOM     28  C15 OHT d          48.617 -33.662 -97.642  0.00  0.00     0.001 A 
ATOM     29  C14 OHT d          49.882 -34.073 -98.157  0.00  0.00     0.000 A 
ATOM     30  C13 OHT d          50.880 -33.121 -98.448  0.00  0.00     0.001 A 
ATOM     31  C12 OHT d          50.615 -31.749 -98.225  0.00  0.00     0.012 A 
ENDBRANCH   1  26
TORSDOF 9
