REMARK  4 active torsions:
REMARK  status: ('A' for Active; 'I' for Inactive)
REMARK    1  A    between atoms: CAK_11  and  NAC_3 
REMARK    2  A    between atoms: CAL_12  and  OAH_8 
REMARK    3  A    between atoms: CAM_13  and  OAI_9 
REMARK    4  A    between atoms: CAN_14  and  CAJ_10 
ROOT
ATOM      1  CAF MOL d          -5.414 -29.227   5.258  0.00  0.00     0.069 A 
ATOM      2  CAG MOL d          -3.675 -30.474   7.046  0.00  0.00     0.060 A 
ATOM      3  CAK MOL d          -4.037 -29.020   5.162  0.00  0.00     0.045 A 
ATOM      4  CAL MOL d          -5.935 -30.049   6.263  0.00  0.00     0.103 A 
ATOM      5  CAM MOL d          -5.046 -30.667   7.157  0.00  0.00     0.102 A 
ATOM      6  CAN MOL d          -3.169 -29.644   6.067  0.00  0.00     0.069 A 
ENDROOT
BRANCH   3   7
ATOM      7  NAC MOL d          -3.557 -28.231   4.210  0.00  0.00    -0.398 N 
ATOM      8  H7  MOL d          -4.199 -27.774   3.547  0.00  0.00     0.156 HD
ATOM      9  H8  MOL d          -2.542 -28.075   4.134  0.00  0.00     0.156 HD
ENDBRANCH   3   7
BRANCH   6  10
ATOM     10  CAJ MOL d          -1.666 -29.458   5.996  0.00  0.00     0.211 C 
ATOM     11  OAD MOL d          -0.946 -30.076   6.814  0.00  0.00    -0.644 OA
ATOM     12  OAE MOL d          -1.231 -28.693   5.115  0.00  0.00    -0.644 OA
ENDBRANCH   6  10
BRANCH   4  13
ATOM     13  OAH MOL d          -7.280 -30.286   6.406  0.00  0.00    -0.353 OA
ATOM     14  CAA MOL d          -8.239 -29.402   5.791  0.00  0.00     0.210 C 
ENDBRANCH   4  13
BRANCH   5  15
ATOM     15  OAI MOL d          -5.504 -31.481   8.134  0.00  0.00    -0.353 OA
ATOM     16  CAB MOL d          -4.418 -32.113   8.880  0.00  0.00     0.210 C 
ENDBRANCH   5  15
TORSDOF 4
