REMARK  7 active torsions:
REMARK  status: ('A' for Active; 'I' for Inactive)
REMARK    1  A    between atoms: C1_1  and  C2_2 
REMARK    2  A    between atoms: C1_1  and  O1_7 
REMARK    3  A    between atoms: C2_2  and  O2_8 
REMARK    4  A    between atoms: C3_3  and  O3_9 
REMARK    5  A    between atoms: C4_4  and  O4_10 
REMARK    6  A    between atoms: C5_5  and  O5_11 
REMARK    7  A    between atoms: O1_7  and  P1_13 
ROOT
ATOM      1  C2  F1P d          49.268  31.254  14.952  0.00  0.00     0.213 C 
ATOM      2  C3  F1P d          48.195  31.785  15.892  0.00  0.00     0.213 C 
ATOM      3  C4  F1P d          46.813  31.587  15.303  0.00  0.00     0.183 C 
ATOM      4  C5  F1P d          46.570  30.103  15.098  0.00  0.00     0.173 C 
ATOM      5  C6  F1P d          47.661  29.608  14.085  0.00  0.00     0.206 C 
ATOM      6  O6  F1P d          48.988  29.866  14.711  0.00  0.00    -0.348 OA
ENDROOT
BRANCH   1   7
ATOM      7  C1  F1P d          50.640  31.418  15.616  0.00  0.00     0.253 C 
BRANCH   7   8
ATOM      8  O1  F1P d          50.680  30.620  16.798  0.00  0.00    -0.277 OA
BRANCH   8   9
ATOM      9  P1  F1P d          51.956  30.758  17.746  0.00  0.00     0.422 P 
ATOM     10  O1P F1P d          51.797  29.602  18.739  0.00  0.00    -0.617 OA
ATOM     11  O2P F1P d          51.944  32.135  18.460  0.00  0.00    -0.617 OA
ATOM     12  O3P F1P d          53.220  30.700  16.848  0.00  0.00    -0.617 OA
ENDBRANCH   8   9
ENDBRANCH   7   8
ENDBRANCH   1   7
BRANCH   1  13
ATOM     13  O2  F1P d          49.263  31.993  13.738  0.00  0.00    -0.362 OA
ATOM     14  H8  F1P d          49.450  32.906  13.923  0.00  0.00     0.213 HD
ENDBRANCH   1  13
BRANCH   2  15
ATOM     15  O3  F1P d          48.402  33.159  16.225  0.00  0.00    -0.387 OA
ATOM     16  H9  F1P d          47.752  33.431  16.862  0.00  0.00     0.210 HD
ENDBRANCH   2  15
BRANCH   3  17
ATOM     17  O4  F1P d          45.805  32.031  16.265  0.00  0.00    -0.390 OA
ATOM     18  H10 F1P d          45.910  31.550  17.077  0.00  0.00     0.210 HD
ENDBRANCH   3  17
BRANCH   4  19
ATOM     19  O5  F1P d          46.683  29.332  16.331  0.00  0.00    -0.391 OA
ATOM     20  H11 F1P d          47.548  29.458  16.704  0.00  0.00     0.210 HD
ENDBRANCH   4  19
TORSDOF 7
