REMARK  1 active torsions:
REMARK  status: ('A' for Active; 'I' for Inactive)
REMARK    1  A    between atoms: CAJ_2  and  CAM_4 
ROOT
ATOM      1  CAM 0JD d          15.058  10.704   4.343  0.00  0.00     0.253 C 
ATOM      2  OAI 0JD d          14.259  11.170   5.444  0.00  0.00    -0.330 OA
ATOM      3  CAL 0JD d          14.076  10.199   6.382  0.00  0.00     0.103 A 
ATOM      4  CAF 0JD d          13.825  10.526   7.717  0.00  0.00     0.040 A 
ATOM      5  CAD 0JD d          13.627   9.536   8.671  0.00  0.00     0.003 A 
ATOM      6  CAC 0JD d          13.689   8.221   8.231  0.00  0.00     0.003 A 
ATOM      7  CAE 0JD d          13.911   7.869   6.906  0.00  0.00     0.039 A 
ATOM      8  CAK 0JD d          14.107   8.865   5.965  0.00  0.00     0.102 A 
ATOM      9  OAH 0JD d          14.343   8.564   4.636  0.00  0.00    -0.345 OA
ATOM     10  CAG 0JD d          14.256   9.631   3.700  0.00  0.00     0.219 C 
ENDROOT
BRANCH   1  11
ATOM     11  CAJ 0JD d          15.380  11.806   3.339  0.00  0.00     0.205 C 
ATOM     12  OAA 0JD d          15.228  12.971   3.694  0.00  0.00    -0.646 OA
ATOM     13  OAB 0JD d          15.823  11.445   2.232  0.00  0.00    -0.646 OA
ENDBRANCH   1  11
TORSDOF 1
