REMARK  8 active torsions:
REMARK  status: ('A' for Active; 'I' for Inactive)
REMARK    1  A    between atoms: C27_1  and  C15_3 
REMARK       I    between atoms: N29_15  and  C27_1 
REMARK    2  A    between atoms: C24_9  and  O25_14 
REMARK    3  A    between atoms: C30_16  and  N29_15 
REMARK    4  A    between atoms: C31_17  and  C30_16 
REMARK    5  A    between atoms: C30_16  and  C33_19 
REMARK       I    between atoms: N14_39  and  C31_17 
REMARK    6  A    between atoms: C33_19  and  C34_20 
REMARK    7  A    between atoms: C13_38  and  C11_36 
REMARK    8  A    between atoms: C13_38  and  N14_39 
ROOT
ATOM      1  C30 R9B d          53.496  25.534  11.491  0.00  0.00     0.181 C 
ENDROOT
BRANCH   1   2
ATOM      2  N29 R9B d          53.913  26.409  10.394  0.00  0.00    -0.343 N 
ATOM      3  C27 R9B d          55.108  26.291   9.746  0.00  0.00     0.252 C 
ATOM      4  O28 R9B d          55.903  25.439  10.089  0.00  0.00    -0.268 OA
ATOM      5  H7  R9B d          53.288  27.133  10.104  0.00  0.00     0.163 HD
BRANCH   3   6
ATOM      6  C15 R9B d          55.503  27.210   8.638  0.00  0.00     0.033 A 
ATOM      7  C16 R9B d          54.853  28.446   8.484  0.00  0.00     0.019 A 
ATOM      8  C17 R9B d          55.224  29.287   7.480  0.00  0.00     0.031 A 
ATOM      9  C20 R9B d          56.273  28.969   6.611  0.00  0.00     0.048 A 
ATOM     10  C19 R9B d          56.958  27.758   6.755  0.00  0.00     0.025 A 
ATOM     11  N21 R9B d          56.653  29.850   5.609  0.00  0.00    -0.323 N 
ATOM     12  C18 R9B d          56.558  26.884   7.770  0.00  0.00     0.033 A 
ATOM     13  C24 R9B d          58.087  27.491   5.813  0.00  0.00     0.083 A 
ATOM     14  C23 R9B d          58.405  28.419   4.842  0.00  0.00     0.111 A 
ATOM     15  C22 R9B d          57.660  29.613   4.753  0.00  0.00     0.248 A 
ATOM     16  O26 R9B d          57.935  30.447   3.898  0.00  0.00    -0.268 OA
ATOM     17  H5  R9B d          56.149  30.709   5.519  0.00  0.00     0.169 HD
BRANCH  13  18
ATOM     18  O25 R9B d          58.832  26.378   5.883  0.00  0.00    -0.360 OA
ATOM     19  H6  R9B d          58.774  25.907   5.060  0.00  0.00     0.217 HD
ENDBRANCH  13  18
ENDBRANCH   3   6
ENDBRANCH   1   2
BRANCH   1  20
ATOM     20  C31 R9B d          52.185  24.858  11.187  0.00  0.00     0.241 C 
ATOM     21  O32 R9B d          51.572  25.090  10.157  0.00  0.00    -0.271 OA
ATOM     22  N14 R9B d          51.698  24.023  12.133  0.00  0.00    -0.355 N 
ATOM     23  H23 R9B d          52.232  23.912  12.971  0.00  0.00     0.162 HD
BRANCH  22  24
ATOM     24  C13 R9B d          50.466  23.280  12.024  0.00  0.00     0.162 C 
BRANCH  24  25
ATOM     25  C11 R9B d          50.801  21.822  11.816  0.00  0.00    -0.023 A 
ATOM     26  C6  R9B d          49.720  20.819  11.750  0.00  0.00     0.000 A 
ATOM     27  C4  R9B d          48.394  21.191  11.975  0.00  0.00     0.038 A 
ATOM     28  C7  R9B d          50.030  19.471  11.458  0.00  0.00     0.046 A 
ATOM     29  C3  R9B d          47.432  20.205  11.906  0.00  0.00     0.035 A 
ATOM     30  C2  R9B d          47.716  18.880  11.620  0.00  0.00     0.026 A 
ATOM     31 CL5  R9B d          45.791  20.615  12.166  0.00  0.00    -0.084 Cl
ATOM     32  C1  R9B d          49.021  18.507  11.395  0.00  0.00     0.032 A 
ATOM     33  N8  R9B d          51.348  19.082  11.293  0.00  0.00    -0.323 N 
ATOM     34  C9  R9B d          52.349  19.988  11.449  0.00  0.00     0.246 A 
ATOM     35  H19 R9B d          51.564  18.134  11.059  0.00  0.00     0.169 HD
ATOM     36  C10 R9B d          52.091  21.383  11.696  0.00  0.00     0.084 A 
ATOM     37  O12 R9B d          53.507  19.607  11.337  0.00  0.00    -0.268 OA
ENDBRANCH  24  25
ENDBRANCH  22  24
ENDBRANCH   1  20
BRANCH   1  38
ATOM     38  C33 R9B d          53.225  26.383  12.730  0.00  0.00     0.073 C 
BRANCH  38  39
ATOM     39  C34 R9B d          54.160  27.538  12.842  0.00  0.00    -0.056 A 
ATOM     40  C35 R9B d          53.707  28.801  12.482  0.00  0.00     0.007 A 
ATOM     41  C36 R9B d          54.570  29.881  12.587  0.00  0.00     0.001 A 
ATOM     42  C37 R9B d          55.870  29.671  13.048  0.00  0.00     0.000 A 
ATOM     43  C38 R9B d          56.333  28.405  13.400  0.00  0.00     0.001 A 
ATOM     44  C39 R9B d          55.467  27.327  13.299  0.00  0.00     0.007 A 
ENDBRANCH  38  39
ENDBRANCH   1  38
TORSDOF 8
