REMARK  5 active torsions:
REMARK  status: ('A' for Active; 'I' for Inactive)
REMARK    1  A    between atoms: C5_5  and  C10_10 
REMARK    2  A    between atoms: C8_8  and  C20_20 
REMARK    3  A    between atoms: C14_14  and  O16_16 
REMARK    4  A    between atoms: C15_15  and  O18_18 
REMARK    5  A    between atoms: C20_20  and  N22_22 
ROOT
ATOM      1  C1  IYX d          24.226 -14.821  18.572  0.00  0.00    -0.017 A 
ATOM      2  C2  IYX d          23.569 -13.630  18.790  0.00  0.00     0.016 A 
ATOM      3  C3  IYX d          23.532 -16.004  18.350  0.00  0.00     0.025 A 
ATOM      4  C4  IYX d          22.176 -13.609  18.806  0.00  0.00     0.021 A 
ATOM      5  C5  IYX d          22.142 -16.009  18.342  0.00  0.00    -0.025 A 
ATOM      6  C6  IYX d          21.459 -14.800  18.579  0.00  0.00     0.013 A 
ATOM      7  C7  IYX d          25.601 -14.682  18.594  0.00  0.00     0.035 A 
ATOM      8  C8  IYX d          25.991 -13.370  18.836  0.00  0.00     0.049 A 
ATOM      9  S9  IYX d          24.658 -12.443  18.997  0.00  0.00    -0.086 SA
ENDROOT
BRANCH   5  10
ATOM     10  C10 IYX d          21.432 -17.299  18.118  0.00  0.00    -0.023 A 
ATOM     11  C11 IYX d          21.912 -18.407  18.808  0.00  0.00     0.015 A 
ATOM     12  C13 IYX d          21.322 -19.656  18.659  0.00  0.00     0.040 A 
ATOM     13  C15 IYX d          20.245 -19.807  17.815  0.00  0.00     0.101 A 
ATOM     14  C14 IYX d          19.733 -18.714  17.115  0.00  0.00     0.102 A 
ATOM     15  C12 IYX d          20.346 -17.453  17.258  0.00  0.00     0.052 A 
BRANCH  13  16
ATOM     16  O18 IYX d          19.720 -21.065  17.739  0.00  0.00    -0.353 OA
ATOM     17  C19 IYX d          18.885 -21.565  16.690  0.00  0.00     0.210 C 
ENDBRANCH  13  16
BRANCH  14  18
ATOM     18  O16 IYX d          18.667 -18.901  16.267  0.00  0.00    -0.353 OA
ATOM     19  C17 IYX d          17.687 -17.898  15.960  0.00  0.00     0.210 C 
ENDBRANCH  14  18
ENDBRANCH   5  10
BRANCH   8  20
ATOM     20  C20 IYX d          27.394 -12.894  18.889  0.00  0.00     0.109 C 
ATOM     21  N21 IYX d          27.657 -11.645  19.061  0.00  0.00    -0.385 N 
ATOM     22  H14 IYX d          28.635 -11.325  19.096  0.00  0.00     0.157 HD
ATOM     23  H15 IYX d          26.889 -10.966  19.163  0.00  0.00     0.157 HD
BRANCH  20  24
ATOM     24  N22 IYX d          28.472 -13.738  18.704  0.00  0.00    -0.385 N 
ATOM     25  H16 IYX d          28.318 -14.746  18.562  0.00  0.00     0.157 HD
ATOM     26  H17 IYX d          29.430 -13.359  18.708  0.00  0.00     0.157 HD
ENDBRANCH  20  24
ENDBRANCH   8  20
TORSDOF 5
