2eum_ligand

Created by X-TOOL on Fri Sep 26 17:34:32 2014
126127  0  0  0  0  0  0  0  0999 V2000
   25.8640    4.6460   17.4650  C 0  0  0  2  0  4
   25.2490    5.7780   18.2860  C 0  0  0  2  0  4
   26.3210    6.8080   18.6700  C 0  0  0  2  0  4
   27.5250    6.1170   19.3180  C 0  0  0  2  0  4
   27.9740    4.9940   18.3790  C 0  0  0  2  0  4
   29.2470    4.2700   18.8030  C 0  0  0  3  0  4
   24.9230    3.6620   17.0940  O 0  0  0  1  0  2
   24.2490    6.3890   17.5110  O 0  0  0  2  0  2
   25.7900    7.8130   19.5120  O 0  0  0  2  0  2
   27.1970    5.6300   20.6050  O 0  0  0  2  0  2
   26.9300    4.0550   18.1710  O 0  0  0  1  0  2
   29.8360    3.7960   17.6030  O 0  0  0  2  0  2
   23.0680    0.4620   19.0850  C 0  0  0  2  0  4
   22.2710    1.7800   18.9350  C 0  0  0  2  0  4
   22.9050    2.8030   17.9950  C 0  0  0  2  0  4
   24.4280    2.7250   18.0200  C 0  0  0  2  0  4
   24.8770    1.3300   17.5750  C 0  0  0  2  0  4
   26.3930    1.1380   17.7220  C 0  0  0  3  0  4
   22.2120   -0.6450   18.9530  O 0  0  0  1  0  2
   20.9330    1.5440   18.5410  O 0  0  0  2  0  2
   22.4600    4.1050   18.3100  O 0  0  0  2  0  2
   24.1990    0.2550   18.2350  O 0  0  0  1  0  2
   26.7820    0.0230   16.9410  O 0  0  0  2  0  2
   22.4550   -1.9540   18.8780  C 0  0  0  3  0  4
   21.4090   -2.8080   19.5940  C 0  0  0  2  0  4
   20.0710   -2.4560   19.1420  N 0  3  0  3  0  4
   21.4890   -2.7060   21.1180  C 0  0  0  2  0  4
   22.7740   -3.1820   21.5490  O 0  0  0  2  0  2
   20.3670   -3.4920   21.8030  C 0  0  0  2  0  3
   19.6240   -2.9360   22.7680  C 0  0  0  2  0  3
   18.6120   -3.7680   23.5650  C 0  0  0  3  0  4
   19.1370   -4.2180   24.9380  C 0  0  0  3  0  4
   19.9870   -5.4950   24.8630  C 0  0  0  3  0  4
   21.2270   -5.4280   25.7440  C 0  0  0  3  0  4
   21.1970   -6.5340   26.7970  C 0  0  0  3  0  4
   21.9660   -6.1340   28.0510  C 0  0  0  3  0  4
   21.4340   -6.8580   29.2820  C 0  0  0  3  0  4
   21.8150   -6.1620   30.5900  C 0  0  0  3  0  4
   22.9020   -6.9260   31.3480  C 0  0  0  3  0  4
   22.3400   -7.8550   32.4240  C 0  0  0  3  0  4
   21.8090   -7.1110   33.6480  C 0  0  0  3  0  4
   21.6820   -8.0150   34.8730  C 0  0  0  3  0  4
   21.5260   -7.1820   36.1290  C 0  0  0  4  0  4
   19.0360   -2.5980   18.4380  C 0  0  0  2  0  4
   17.5450   -2.3030   18.3650  C 0  0  0  3  0  4
   16.8930   -2.5890   19.7090  C 0  0  0  3  0  4
   15.3880   -2.3970   19.6010  C 0  0  0  3  0  4
   14.6580   -3.5830   20.2090  C 0  0  0  3  0  4
   13.2750   -3.7200   19.5940  C 0  0  0  3  0  4
   12.6240   -4.9830   20.1380  C 0  0  0  3  0  4
   11.3670   -4.6310   20.9080  C 0  0  0  4  0  4
   19.2560   -4.0090   18.5970  O 0  0  0  2  0  2
   26.2672    5.0863   16.5411  H 0  0  0  1  0  1
   24.8028    5.3649   19.2026  H 0  0  0  1  0  1
   26.6680    7.2942   17.7463  H 0  0  0  1  0  1
   28.3442    6.8435   19.4228  H 0  0  0  1  0  1
   28.1891    5.4670   17.4095  H 0  0  0  1  0  1
   29.0061    3.4293   19.4702  H 0  0  0  1  0  1
   29.9291    4.9628   19.3175  H 0  0  0  1  0  1
   23.5914    5.7439   17.2789  H 0  0  0  1  0  1
   25.5099    7.4225   20.3315  H 0  0  0  1  0  1
   26.9242    6.3540   21.1563  H 0  0  0  1  0  1
   30.6397    3.3326   17.8076  H 0  0  0  1  0  1
   23.4559    0.4641   20.1143  H 0  0  0  1  0  1
   22.2428    2.2402   19.9337  H 0  0  0  1  0  1
   22.5748    2.5700   16.9719  H 0  0  0  1  0  1
   24.8053    2.9424   19.0301  H 0  0  0  1  0  1
   24.6371    1.2523   16.5043  H 0  0  0  1  0  1
   26.6436    0.9572   18.7777  H 0  0  0  1  0  1
   26.9171    2.0387   17.3698  H 0  0  0  1  0  1
   20.5393    0.9075   19.1262  H 0  0  0  1  0  1
   22.8075    4.7196   17.6745  H 0  0  0  1  0  1
   26.3252   -0.7516   17.2473  H 0  0  0  1  0  1
   23.4372   -2.1528   19.3317  H 0  0  0  1  0  1
   22.4754   -2.2446   17.8173  H 0  0  0  1  0  1
   21.5968   -3.8571   19.3216  H 0  0  0  1  0  1
   20.2665   -1.4991   18.8925  H 0  0  0  1  0  1
   19.6192   -2.4829   20.0427  H 0  0  0  1  0  1
   21.3898   -1.6481   21.4026  H 0  0  0  1  0  1
   22.8316   -3.1218   22.4953  H 0  0  0  1  0  1
   20.1705   -4.5195   21.5003  H 0  0  0  1  0  1
   19.7401   -1.8763   22.9904  H 0  0  0  1  0  1
   18.3580   -4.6633   22.9785  H 0  0  0  1  0  1
   17.7072   -3.1619   23.7195  H 0  0  0  1  0  1
   18.2774   -4.4067   25.5979  H 0  0  0  1  0  1
   19.7531   -3.4105   25.3602  H 0  0  0  1  0  1
   20.3038   -5.6462   23.8205  H 0  0  0  1  0  1
   19.3712   -6.3472   25.1864  H 0  0  0  1  0  1
   21.2610   -4.4504   26.2471  H 0  0  0  1  0  1
   22.1229   -5.5493   25.1175  H 0  0  0  1  0  1
   21.6510   -7.4423   26.3741  H 0  0  0  1  0  1
   20.1513   -6.7395   27.0696  H 0  0  0  1  0  1
   21.8654   -5.0491   28.2022  H 0  0  0  1  0  1
   23.0277   -6.3886   27.9167  H 0  0  0  1  0  1
   21.8446   -7.8784   29.2944  H 0  0  0  1  0  1
   20.3370   -6.9049   29.2155  H 0  0  0  1  0  1
   20.9215   -6.0893   31.2274  H 0  0  0  1  0  1
   22.1849   -5.1518   30.3605  H 0  0  0  1  0  1
   23.5717   -6.1978   31.8288  H 0  0  0  1  0  1
   23.4733   -7.5297   30.6275  H 0  0  0  1  0  1
   23.1399   -8.5363   32.7495  H 0  0  0  1  0  1
   21.5169   -8.4387   31.9861  H 0  0  0  1  0  1
   20.8170   -6.7005   33.4083  H 0  0  0  1  0  1
   22.4985   -6.2880   33.8871  H 0  0  0  1  0  1
   22.5852   -8.6367   34.9601  H 0  0  0  1  0  1
   20.8008   -8.6629   34.7558  H 0  0  0  1  0  1
   21.4359   -7.8466   37.0009  H 0  0  0  1  0  1
   20.6222   -6.5604   36.0469  H 0  0  0  1  0  1
   22.4066   -6.5343   36.2512  H 0  0  0  1  0  1
   19.3472   -2.2498   17.4421  H 0  0  0  1  0  1
   17.0850   -2.9387   17.5941  H 0  0  0  1  0  1
   17.3951   -1.2447   18.1051  H 0  0  0  1  0  1
   17.2961   -1.8991   20.4650  H 0  0  0  1  0  1
   17.1087   -3.6258   20.0066  H 0  0  0  1  0  1
   15.1095   -2.3046   18.5409  H 0  0  0  1  0  1
   15.1001   -1.4806   20.1370  H 0  0  0  1  0  1
   14.5596   -3.4317   21.2941  H 0  0  0  1  0  1
   15.2333   -4.5008   20.0174  H 0  0  0  1  0  1
   13.3615   -3.7897   18.4996  H 0  0  0  1  0  1
   12.6636   -2.8447   19.8585  H 0  0  0  1  0  1
   13.3294   -5.4962   20.8081  H 0  0  0  1  0  1
   12.3637   -5.6476   19.3010  H 0  0  0  1  0  1
   10.9052   -5.5508   21.2963  H 0  0  0  1  0  1
   10.6589   -4.1191   20.2398  H 0  0  0  1  0  1
   11.6245   -3.9677   21.7469  H 0  0  0  1  0  1
   18.5765   -4.4881   18.1373  H 0  0  0  1  0  1
  1  2  1  0  0  1
  7  1  1  0  0  2
  1 11  1  0  0  1
  2  3  1  0  0  1
  2  8  1  0  0  2
  3  4  1  0  0  1
  3  9  1  0  0  2
  5  4  1  0  0  1
  4 10  1  0  0  2
  5  6  1  0  0  2
 11  5  1  0  0  1
  6 12  1  0  0  2
 16  7  1  0  0  2
 14 13  1  0  0  1
 13 19  1  0  0  2
 13 22  1  0  0  1
 15 14  1  0  0  1
 14 20  1  0  0  2
 15 16  1  0  0  1
 15 21  1  0  0  2
 16 17  1  0  0  1
 17 18  1  0  0  2
 17 22  1  0  0  1
 18 23  1  0  0  2
 19 24  1  0  0  2
 24 25  1  0  0  2
 25 26  1  0  0  2
 25 27  1  0  0  2
 26 44  1  0  0  2
 27 28  1  0  0  2
 27 29  1  0  0  2
 29 30  2  0  0  2
 30 31  1  0  0  2
 31 32  1  0  0  2
 32 33  1  0  0  2
 33 34  1  0  0  2
 34 35  1  0  0  2
 35 36  1  0  0  2
 36 37  1  0  0  2
 37 38  1  0  0  2
 38 39  1  0  0  2
 39 40  1  0  0  2
 40 41  1  0  0  2
 41 42  1  0  0  2
 42 43  1  0  0  2
 44 45  1  0  0  2
 44 52  1  0  0  2
 45 46  1  0  0  2
 46 47  1  0  0  2
 47 48  1  0  0  2
 48 49  1  0  0  2
 49 50  1  0  0  2
 50 51  1  0  0  2
  1 53  1  0  0  2
  2 54  1  0  0  2
  3 55  1  0  0  2
  4 56  1  0  0  2
  5 57  1  0  0  2
  6 58  1  0  0  2
  6 59  1  0  0  2
  8 60  1  0  0  2
  9 61  1  0  0  2
 10 62  1  0  0  2
 12 63  1  0  0  2
 13 64  1  0  0  2
 14 65  1  0  0  2
 15 66  1  0  0  2
 16 67  1  0  0  2
 17 68  1  0  0  2
 18 69  1  0  0  2
 18 70  1  0  0  2
 20 71  1  0  0  2
 21 72  1  0  0  2
 23 73  1  0  0  2
 24 74  1  0  0  2
 24 75  1  0  0  2
 25 76  1  0  0  2
 26 77  1  0  0  2
 26 78  1  0  0  2
 27 79  1  0  0  2
 28 80  1  0  0  2
 29 81  1  0  0  2
 30 82  1  0  0  2
 31 83  1  0  0  2
 31 84  1  0  0  2
 32 85  1  0  0  2
 32 86  1  0  0  2
 33 87  1  0  0  2
 33 88  1  0  0  2
 34 89  1  0  0  2
 34 90  1  0  0  2
 35 91  1  0  0  2
 35 92  1  0  0  2
 36 93  1  0  0  2
 36 94  1  0  0  2
 37 95  1  0  0  2
 37 96  1  0  0  2
 38 97  1  0  0  2
 38 98  1  0  0  2
 39 99  1  0  0  2
 39100  1  0  0  2
 40101  1  0  0  2
 40102  1  0  0  2
 41103  1  0  0  2
 41104  1  0  0  2
 42105  1  0  0  2
 42106  1  0  0  2
 43107  1  0  0  2
 43108  1  0  0  2
 43109  1  0  0  2
 44110  1  0  0  2
 45111  1  0  0  2
 45112  1  0  0  2
 46113  1  0  0  2
 46114  1  0  0  2
 47115  1  0  0  2
 47116  1  0  0  2
 48117  1  0  0  2
 48118  1  0  0  2
 49119  1  0  0  2
 49120  1  0  0  2
 50121  1  0  0  2
 50122  1  0  0  2
 51123  1  0  0  2
 51124  1  0  0  2
 51125  1  0  0  2
 52126  1  0  0  2
M  END
> <MOLECULAR_FORMULA>
C38H74NO13

> <MOLECULAR_WEIGHT>
752.4

> <NUM_HB_ATOMS>
14 

> <NUM_ROTOR>
29 

> <XLOGP2>
3.95 

$$$$
