REMARK  27 active torsions:
REMARK  status: ('A' for Active; 'I' for Inactive)
REMARK    1  A    between atoms: N1_1  and  C1_2 
REMARK       I    between atoms: C11_15  and  N1_1 
REMARK    2  A    between atoms: C1_2  and  C2_4 
REMARK    3  A    between atoms: C1_2  and  C3_5 
REMARK    4  A    between atoms: N2_3  and  C10_14 
REMARK       I    between atoms: C19_25  and  N2_3 
REMARK    5  A    between atoms: C2_4  and  O1_8 
REMARK    6  A    between atoms: C2_4  and  C52_58 
REMARK    7  A    between atoms: C3_5  and  C4_6 
REMARK    8  A    between atoms: C10_14  and  C11_15 
REMARK    9  A    between atoms: C10_14  and  C12_16 
REMARK   10  A    between atoms: N4_19  and  C18_24 
REMARK       I    between atoms: C31_62  and  N4_19 
REMARK   11  A    between atoms: C18_24  and  C19_25 
REMARK   12  A    between atoms: C81_28  and  O59_29 
REMARK       I    between atoms: N54_37  and  C81_28 
REMARK   13  A    between atoms: O59_29  and  CA5_30 
REMARK   14  A    between atoms: CA5_30  and  C50_31 
REMARK   15  A    between atoms: C68_38  and  N54_37 
REMARK   16  A    between atoms: C69_40  and  C68_38 
REMARK       I    between atoms: N52_42  and  C69_40 
REMARK   17  A    between atoms: C60_43  and  N52_42 
REMARK   18  A    between atoms: C60_43  and  C62_44 
REMARK   19  A    between atoms: C61_47  and  C60_43 
REMARK       I    between atoms: N51_49  and  C61_47 
REMARK   20  A    between atoms: C51_50  and  N51_49 
REMARK   21  A    between atoms: C51_50  and  C53_51 
REMARK   22  A    between atoms: C52_58  and  C51_50 
REMARK   23  A    between atoms: C53_51  and  C54_52 
REMARK   24  A    between atoms: C52_58  and  O51_59 
REMARK   25  A    between atoms: O9_64  and  C31_62 
REMARK   26  A    between atoms: CA_65  and  O9_64 
REMARK   27  A    between atoms: CA_65  and  C_66 
ROOT
ATOM      1  C2  MOL d          -9.885 -16.546  13.755  0.00  0.00     0.171 C 
ENDROOT
BRANCH   1   2
ATOM      2  C1  MOL d         -10.459 -15.308  13.089  0.00  0.00     0.120 C 
BRANCH   2   3
ATOM      3  N1  MOL d         -10.462 -15.467  11.652  0.00  0.00    -0.352 N 
ATOM      4  C11 MOL d          -9.714 -14.709  10.863  0.00  0.00     0.241 C 
ATOM      5  O2  MOL d          -8.937 -13.874  11.276  0.00  0.00    -0.271 OA
ATOM      6  H1  MOL d         -11.045 -16.169  11.242  0.00  0.00     0.163 HD
BRANCH   4   7
ATOM      7  C10 MOL d          -9.920 -14.903   9.397  0.00  0.00     0.180 C 
BRANCH   7   8
ATOM      8  N2  MOL d         -10.650 -13.732   8.927  0.00  0.00    -0.346 N 
ATOM      9  C19 MOL d         -11.612 -13.783   8.021  0.00  0.00     0.240 C 
ATOM     10  O4  MOL d         -11.956 -14.820   7.489  0.00  0.00    -0.271 OA
ATOM     11  H3  MOL d         -10.410 -12.840   9.311  0.00  0.00     0.163 HD
BRANCH   9  12
ATOM     12  C18 MOL d         -12.250 -12.472   7.659  0.00  0.00     0.174 C 
ATOM     13  C20 MOL d         -13.547 -12.297   8.442  0.00  0.00     0.042 C 
BRANCH  12  14
ATOM     14  N4  MOL d         -12.499 -12.382   6.231  0.00  0.00    -0.324 N 
ATOM     15  C31 MOL d         -11.697 -11.707   5.401  0.00  0.00     0.361 C 
ATOM     16  O8  MOL d         -10.662 -11.161   5.756  0.00  0.00    -0.238 OA
ATOM     17  H17 MOL d         -13.302 -12.843   5.854  0.00  0.00     0.165 HD
BRANCH  15  18
ATOM     18  O9  MOL d         -12.100 -11.604   4.005  0.00  0.00    -0.299 OA
BRANCH  18  19
ATOM     19  CA  MOL d         -11.518 -10.630   3.142  0.00  0.00     0.219 C 
BRANCH  19  20
ATOM     20  C   MOL d         -12.050  -9.234   3.387  0.00  0.00    -0.034 A 
ATOM     21  C13 MOL d         -11.217  -8.133   3.134  0.00  0.00     0.009 A 
ATOM     22  C14 MOL d         -11.684  -6.838   3.331  0.00  0.00     0.001 A 
ATOM     23  C15 MOL d         -12.988  -6.634   3.791  0.00  0.00     0.000 A 
ATOM     24  C16 MOL d         -13.820  -7.730   4.043  0.00  0.00     0.001 A 
ATOM     25  C17 MOL d         -13.348  -9.034   3.835  0.00  0.00     0.009 A 
ENDBRANCH  19  20
ENDBRANCH  18  19
ENDBRANCH  15  18
ENDBRANCH  12  14
ENDBRANCH   9  12
ENDBRANCH   7   8
BRANCH   7  26
ATOM     26  C12 MOL d          -8.604 -15.086   8.642  0.00  0.00     0.009 C 
ATOM     27  CG2 MOL d          -8.839 -15.460   7.182  0.00  0.00     0.012 C 
ATOM     28  CG1 MOL d          -7.635 -16.084   9.281  0.00  0.00     0.012 C 
ENDBRANCH   7  26
ENDBRANCH   4   7
ENDBRANCH   2   3
BRANCH   2  29
ATOM     29  C3  MOL d         -11.887 -15.052  13.563  0.00  0.00     0.066 C 
BRANCH  29  30
ATOM     30  C4  MOL d         -12.207 -13.598  13.343  0.00  0.00    -0.056 A 
ATOM     31  C5  MOL d         -13.021 -13.224  12.271  0.00  0.00     0.007 A 
ATOM     32  C6  MOL d         -13.302 -11.873  12.076  0.00  0.00     0.001 A 
ATOM     33  C7  MOL d         -12.772 -10.914  12.941  0.00  0.00     0.000 A 
ATOM     34  C8  MOL d         -11.972 -11.297  14.012  0.00  0.00     0.001 A 
ATOM     35  C9  MOL d         -11.691 -12.644  14.218  0.00  0.00     0.007 A 
ENDBRANCH  29  30
ENDBRANCH   2  29
ENDBRANCH   1   2
BRANCH   1  36
ATOM     36  O1  MOL d         -10.717 -17.622  13.381  0.00  0.00    -0.391 OA
ATOM     37  H8  MOL d         -10.394 -18.423  13.777  0.00  0.00     0.210 HD
ENDBRANCH   1  36
BRANCH   1  38
ATOM     38  C52 MOL d          -8.486 -16.926  13.304  0.00  0.00     0.171 C 
BRANCH  38  39
ATOM     39  C51 MOL d          -7.358 -16.073  13.853  0.00  0.00     0.120 C 
BRANCH  39  40
ATOM     40  N51 MOL d          -7.434 -16.142  15.307  0.00  0.00    -0.352 N 
ATOM     41  C61 MOL d          -7.554 -15.113  16.145  0.00  0.00     0.241 C 
ATOM     42  O52 MOL d          -7.489 -13.936  15.814  0.00  0.00    -0.271 OA
ATOM     43  H46 MOL d          -7.392 -17.053  15.717  0.00  0.00     0.163 HD
BRANCH  41  44
ATOM     44  C60 MOL d          -7.744 -15.515  17.579  0.00  0.00     0.180 C 
BRANCH  44  45
ATOM     45  N52 MOL d          -6.428 -15.708  18.186  0.00  0.00    -0.346 N 
ATOM     46  C69 MOL d          -6.069 -16.758  18.930  0.00  0.00     0.240 C 
ATOM     47  O54 MOL d          -6.861 -17.563  19.390  0.00  0.00    -0.271 OA
ATOM     48  H37 MOL d          -5.742 -14.997  18.032  0.00  0.00     0.163 HD
BRANCH  46  49
ATOM     49  C68 MOL d          -4.603 -16.867  19.257  0.00  0.00     0.174 C 
ATOM     50  C70 MOL d          -3.920 -18.095  18.659  0.00  0.00     0.042 C 
BRANCH  49  51
ATOM     51  N54 MOL d          -4.425 -16.884  20.696  0.00  0.00    -0.324 N 
ATOM     52  C81 MOL d          -4.089 -15.789  21.368  0.00  0.00     0.361 C 
ATOM     53  O58 MOL d          -3.848 -14.717  20.833  0.00  0.00    -0.238 OA
ATOM     54  H32 MOL d          -4.558 -17.741  21.194  0.00  0.00     0.165 HD
BRANCH  52  55
ATOM     55  O59 MOL d          -3.985 -15.917  22.811  0.00  0.00    -0.299 OA
BRANCH  55  56
ATOM     56  CA5 MOL d          -3.495 -14.833  23.600  0.00  0.00     0.219 C 
BRANCH  56  57
ATOM     57  C50 MOL d          -1.983 -14.763  23.571  0.00  0.00    -0.034 A 
ATOM     58  C63 MOL d          -1.357 -13.535  23.790  0.00  0.00     0.009 A 
ATOM     59  C64 MOL d           0.036 -13.446  23.784  0.00  0.00     0.001 A 
ATOM     60  C65 MOL d           0.808 -14.583  23.560  0.00  0.00     0.000 A 
ATOM     61  C66 MOL d           0.179 -15.812  23.349  0.00  0.00     0.001 A 
ATOM     62  C67 MOL d          -1.216 -15.910  23.359  0.00  0.00     0.009 A 
ENDBRANCH  56  57
ENDBRANCH  55  56
ENDBRANCH  52  55
ENDBRANCH  49  51
ENDBRANCH  46  49
ENDBRANCH  44  45
BRANCH  44  63
ATOM     63  C62 MOL d          -8.646 -14.530  18.346  0.00  0.00     0.009 C 
ATOM     64  CG6 MOL d          -8.616 -14.741  19.867  0.00  0.00     0.012 C 
ATOM     65  CG5 MOL d         -10.084 -14.637  17.859  0.00  0.00     0.012 C 
ENDBRANCH  44  63
ENDBRANCH  41  44
ENDBRANCH  39  40
BRANCH  39  66
ATOM     66  C53 MOL d          -6.107 -16.749  13.300  0.00  0.00     0.066 C 
BRANCH  66  67
ATOM     67  C54 MOL d          -4.815 -16.180  13.823  0.00  0.00    -0.056 A 
ATOM     68  C55 MOL d          -4.419 -16.408  15.132  0.00  0.00     0.007 A 
ATOM     69  C56 MOL d          -3.224 -15.882  15.607  0.00  0.00     0.001 A 
ATOM     70  C57 MOL d          -2.441 -15.130  14.749  0.00  0.00     0.000 A 
ATOM     71  C58 MOL d          -2.836 -14.917  13.429  0.00  0.00     0.001 A 
ATOM     72  C59 MOL d          -4.026 -15.446  12.965  0.00  0.00     0.007 A 
ENDBRANCH  66  67
ENDBRANCH  39  66
ENDBRANCH  38  39
BRANCH  38  73
ATOM     73  O51 MOL d          -8.260 -18.262  13.746  0.00  0.00    -0.391 OA
ATOM     74  H56 MOL d          -8.952 -18.824  13.418  0.00  0.00     0.210 HD
ENDBRANCH  38  73
ENDBRANCH   1  38
TORSDOF 27
