REMARK  16 active torsions:
REMARK  status: ('A' for Active; 'I' for Inactive)
REMARK    1  A    between atoms: C10_13  and  N1_3 
REMARK    2  A    between atoms: C29_37  and  C4_6 
REMARK    3  A    between atoms: C11_14  and  C10_13 
REMARK    4  A    between atoms: C10_13  and  C13_17 
REMARK       I    between atoms: N3_15  and  C11_14 
REMARK    5  A    between atoms: C12_16  and  N3_15 
REMARK    6  A    between atoms: C12_16  and  C22_27 
REMARK    7  A    between atoms: C23_28  and  C12_16 
REMARK    8  A    between atoms: C22_27  and  C20_25 
REMARK    9  A    between atoms: C24_29  and  C23_28 
REMARK   10  A    between atoms: C25_30  and  C24_29 
REMARK   11  A    between atoms: C24_29  and  O4_36 
REMARK   12  A    between atoms: C25_30  and  N4_31 
REMARK   13  A    between atoms: C25_30  and  C29_37 
REMARK       I    between atoms: N4_31  and  C26_32 
REMARK   14  A    between atoms: C26_32  and  C27_33 
REMARK   15  A    between atoms: C27_33  and  O3_34 
REMARK   16  A    between atoms: O3_34  and  C28_35 
ROOT
ATOM      1  C23 AB1 d         -11.316  16.154   0.066  0.00  0.00     0.059 C 
ENDROOT
BRANCH   1   2
ATOM      2  C12 AB1 d         -11.318  14.846   0.853  0.00  0.00     0.091 C 
BRANCH   2   3
ATOM      3  N3  AB1 d         -11.261  15.204   2.270  0.00  0.00    -0.354 N 
ATOM      4  C11 AB1 d         -10.365  14.678   3.115  0.00  0.00     0.241 C 
ATOM      5  O2  AB1 d          -9.512  13.852   2.781  0.00  0.00    -0.271 OA
ATOM      6  H12 AB1 d         -11.919  15.870   2.623  0.00  0.00     0.162 HD
BRANCH   4   7
ATOM      7  C10 AB1 d         -10.493  15.188   4.537  0.00  0.00     0.184 C 
BRANCH   7   8
ATOM      8  N1  AB1 d         -11.237  14.233   5.387  0.00  0.00    -0.320 N 
ATOM      9  C2  AB1 d         -10.474  13.048   5.776  0.00  0.00     0.130 C 
ATOM     10  C37 AB1 d         -11.458  11.906   6.023  0.00  0.00     0.040 C 
ATOM     11  C1  AB1 d         -12.583  12.305   6.968  0.00  0.00     0.126 C 
ATOM     12  N2  AB1 d         -13.170  13.474   6.333  0.00  0.00    -0.343 N 
ATOM     13  C3  AB1 d         -12.503  14.466   5.749  0.00  0.00     0.319 C 
ATOM     14  H5  AB1 d         -14.168  13.538   6.335  0.00  0.00     0.164 HD
ATOM     15  O1  AB1 d         -13.041  15.535   5.569  0.00  0.00    -0.247 OA
ENDBRANCH   7   8
BRANCH   7  16
ATOM     16  C13 AB1 d          -9.148  15.564   5.198  0.00  0.00     0.010 C 
ATOM     17  C14 AB1 d          -8.305  16.470   4.310  0.00  0.00     0.012 C 
ATOM     18  C15 AB1 d          -9.327  16.258   6.547  0.00  0.00     0.012 C 
ENDBRANCH   7  16
ENDBRANCH   4   7
ENDBRANCH   2   3
BRANCH   2  19
ATOM     19  C22 AB1 d         -12.695  14.228   0.613  0.00  0.00     0.063 C 
BRANCH  19  20
ATOM     20  C20 AB1 d         -12.952  12.962   1.398  0.00  0.00    -0.056 A 
ATOM     21  C19 AB1 d         -13.991  12.940   2.327  0.00  0.00     0.007 A 
ATOM     22  C18 AB1 d         -14.256  11.786   3.063  0.00  0.00     0.001 A 
ATOM     23  C17 AB1 d         -13.487  10.642   2.858  0.00  0.00     0.000 A 
ATOM     24  C16 AB1 d         -12.455  10.658   1.921  0.00  0.00     0.001 A 
ATOM     25  C21 AB1 d         -12.191  11.814   1.189  0.00  0.00     0.007 A 
ENDBRANCH  19  20
ENDBRANCH   2  19
ENDBRANCH   1   2
BRANCH   1  26
ATOM     26  C24 AB1 d         -10.200  17.129   0.425  0.00  0.00     0.143 C 
BRANCH  26  27
ATOM     27  C25 AB1 d          -8.791  16.694   0.016  0.00  0.00     0.117 C 
BRANCH  27  28
ATOM     28  N4  AB1 d          -8.739  16.554  -1.434  0.00  0.00    -0.352 N 
ATOM     29  C26 AB1 d          -8.564  15.346  -1.971  0.00  0.00     0.242 C 
ATOM     30  O5  AB1 d          -8.464  14.332  -1.298  0.00  0.00    -0.271 OA
ATOM     31  H32 AB1 d          -8.834  17.358  -2.022  0.00  0.00     0.163 HD
BRANCH  29  32
ATOM     32  C27 AB1 d          -8.493  15.223  -3.475  0.00  0.00     0.278 C 
BRANCH  32  33
ATOM     33  O3  AB1 d          -8.607  16.480  -4.148  0.00  0.00    -0.341 OA
BRANCH  33  34
ATOM     34  C28 AB1 d          -8.095  16.630  -5.415  0.00  0.00     0.081 A 
ATOM     35  C30 AB1 d          -8.707  16.023  -6.523  0.00  0.00    -0.028 A 
ATOM     36  C31 AB1 d          -8.166  16.192  -7.794  0.00  0.00     0.009 A 
ATOM     37  C36 AB1 d          -9.953  15.182  -6.401  0.00  0.00     0.051 C 
ATOM     38  C32 AB1 d          -7.023  16.964  -7.979  0.00  0.00     0.001 A 
ATOM     39  C33 AB1 d          -6.412  17.567  -6.884  0.00  0.00     0.009 A 
ATOM     40  C34 AB1 d          -6.941  17.403  -5.606  0.00  0.00    -0.028 A 
ATOM     41  C35 AB1 d          -6.240  18.082  -4.458  0.00  0.00     0.051 C 
ENDBRANCH  33  34
ENDBRANCH  32  33
ENDBRANCH  29  32
ENDBRANCH  27  28
BRANCH  27  42
ATOM     42  C29 AB1 d          -7.804  17.819   0.328  0.00  0.00     0.066 C 
BRANCH  42  43
ATOM     43  C4  AB1 d          -6.406  17.575  -0.212  0.00  0.00    -0.056 A 
ATOM     44  C5  AB1 d          -5.759  18.600  -0.904  0.00  0.00     0.007 A 
ATOM     45  C6  AB1 d          -4.472  18.405  -1.409  0.00  0.00     0.001 A 
ATOM     46  C7  AB1 d          -3.823  17.184  -1.216  0.00  0.00     0.000 A 
ATOM     47  C8  AB1 d          -4.469  16.161  -0.514  0.00  0.00     0.001 A 
ATOM     48  C9  AB1 d          -5.759  16.353  -0.017  0.00  0.00     0.007 A 
ENDBRANCH  42  43
ENDBRANCH  27  42
ENDBRANCH  26  27
BRANCH  26  49
ATOM     49  O4  AB1 d         -10.498  18.379  -0.192  0.00  0.00    -0.393 OA
ATOM     50  H35 AB1 d         -11.372  18.654   0.059  0.00  0.00     0.210 HD
ENDBRANCH  26  49
ENDBRANCH   1  26
TORSDOF 16
