REMARK  10 active torsions:
REMARK  status: ('A' for Active; 'I' for Inactive)
REMARK    1  A    between atoms: C1_1  and  O8_8 
REMARK    2  A    between atoms: C2_2  and  O9_9 
REMARK    3  A    between atoms: C3_3  and  N7_7 
REMARK    4  A    between atoms: C5_5  and  C6_6 
REMARK    5  A    between atoms: C10_10  and  C13_13 
REMARK    6  A    between atoms: C13_13  and  N14_14 
REMARK       I    between atoms: N14_14  and  C15_15 
REMARK    7  A    between atoms: C15_15  and  C16_16 
REMARK    8  A    between atoms: C17_17  and  O23_23 
REMARK    9  A    between atoms: C18_18  and  O24_24 
REMARK   10  A    between atoms: C20_20  and  N22_22 
ROOT
ATOM      1  C6  MOL d          20.112 -30.218  10.917  0.00  0.00     0.005 C 
ATOM      2  C10 MOL d          20.606 -29.475   9.962  0.00  0.00    -0.009 C 
ENDROOT
BRANCH   1   3
ATOM      3  C5  MOL d          19.919 -29.699  12.286  0.00  0.00     0.178 C 
ATOM      4  C1  MOL d          20.368 -30.833  13.299  0.00  0.00     0.183 C 
ATOM      5  C2  MOL d          19.055 -31.585  13.400  0.00  0.00     0.199 C 
ATOM      6  C3  MOL d          17.948 -30.506  13.406  0.00  0.00     0.262 C 
ATOM      7  O4  MOL d          18.538 -29.477  12.563  0.00  0.00    -0.352 OA
BRANCH   4   8
ATOM      8  O8  MOL d          20.679 -30.228  14.552  0.00  0.00    -0.390 OA
ATOM      9  H6  MOL d          20.950 -30.899  15.168  0.00  0.00     0.210 HD
ENDBRANCH   4   8
BRANCH   5  10
ATOM     10  O9  MOL d          18.896 -32.384  14.571  0.00  0.00    -0.388 OA
ATOM     11  H7  MOL d          18.977 -31.834  15.341  0.00  0.00     0.210 HD
ENDBRANCH   5  10
BRANCH   6  12
ATOM     12  N7  MOL d          16.750 -30.917  12.746  0.00  0.00    -0.294 N 
ATOM     13  C11 MOL d          16.596 -31.486  11.447  0.00  0.00     0.214 A 
ATOM     14  N12 MOL d          15.313 -31.589  11.108  0.00  0.00    -0.238 NA
ATOM     15  C29 MOL d          14.567 -31.126  12.169  0.00  0.00     0.121 A 
ATOM     16  C28 MOL d          15.483 -30.707  13.205  0.00  0.00     0.164 A 
ATOM     17  C30 MOL d          13.222 -30.985  12.398  0.00  0.00     0.153 A 
ATOM     18  N33 MOL d          15.010 -30.162  14.357  0.00  0.00    -0.222 NA
ATOM     19  C32 MOL d          13.680 -30.048  14.492  0.00  0.00     0.235 A 
ATOM     20  N31 MOL d          12.771 -30.445  13.546  0.00  0.00    -0.252 NA
ENDBRANCH   6  12
ENDBRANCH   1   3
BRANCH   2  21
ATOM     21  C13 MOL d          20.830 -29.976   8.559  0.00  0.00     0.150 C 
BRANCH  21  22
ATOM     22  N14 MOL d          21.823 -29.216   7.831  0.00  0.00    -0.353 N 
ATOM     23  C15 MOL d          22.629 -29.695   6.877  0.00  0.00     0.254 C 
ATOM     24  O25 MOL d          22.502 -30.890   6.476  0.00  0.00    -0.268 OA
ATOM     25  H12 MOL d          21.915 -28.247   8.061  0.00  0.00     0.163 HD
BRANCH  23  26
ATOM     26  C16 MOL d          23.665 -28.872   6.244  0.00  0.00     0.070 A 
ATOM     27  C17 MOL d          23.705 -27.456   6.464  0.00  0.00     0.114 A 
ATOM     28  C18 MOL d          24.760 -26.769   5.844  0.00  0.00     0.102 A 
ATOM     29  C19 MOL d          25.727 -27.336   5.071  0.00  0.00     0.075 A 
ATOM     30  C20 MOL d          25.674 -28.763   4.930  0.00  0.00     0.106 A 
ATOM     31  C21 MOL d          24.647 -29.492   5.511  0.00  0.00     0.056 A 
BRANCH  27  32
ATOM     32  O23 MOL d          22.781 -26.759   7.143  0.00  0.00    -0.357 OA
ATOM     33  H15 MOL d          23.201 -26.282   7.849  0.00  0.00     0.217 HD
ENDBRANCH  27  32
BRANCH  28  34
ATOM     34  O24 MOL d          24.811 -25.410   6.064  0.00  0.00    -0.358 OA
ATOM     35  H16 MOL d          24.082 -25.152   6.615  0.00  0.00     0.217 HD
ENDBRANCH  28  34
BRANCH  30  36
ATOM     36  N22 MOL d          26.659 -29.387   4.140  0.00  0.00    -0.116 N 
ATOM     37  O26 MOL d          27.426 -28.754   3.475  0.00  0.00    -0.532 OA
ATOM     38  O27 MOL d          26.600 -30.625   4.157  0.00  0.00    -0.532 OA
ENDBRANCH  30  36
ENDBRANCH  23  26
ENDBRANCH  21  22
ENDBRANCH   2  21
TORSDOF 10
