REMARK  4 active torsions:
REMARK  status: ('A' for Active; 'I' for Inactive)
REMARK    1  A    between atoms: C3_5  and  O3_6 
REMARK    2  A    between atoms: C4_7  and  O4_8 
REMARK    3  A    between atoms: C5_9  and  C6_11 
REMARK    4  A    between atoms: C6_11  and  O6_12 
ROOT
ATOM      1  C1  GNL d         -35.497 -18.958 -15.929  0.00  0.00     0.218 C 
ATOM      2  S1  GNL d         -34.001 -20.015 -15.778  0.00  0.00    -0.102 SA
ATOM      3  C2  GNL d         -35.114 -17.951 -17.060  0.00  0.00     0.257 C 
ATOM      4  N2  GNL d         -34.299 -18.767 -18.016  0.00  0.00    -0.052 N 
ATOM      5  C3  GNL d         -34.364 -16.683 -16.549  0.00  0.00     0.183 C 
ATOM      6  C4  GNL d         -34.920 -16.151 -15.204  0.00  0.00     0.180 C 
ATOM      7  C5  GNL d         -34.912 -17.289 -14.173  0.00  0.00     0.178 C 
ATOM      8  O5  GNL d         -35.804 -18.333 -14.673  0.00  0.00    -0.363 OA
ATOM      9  C7  GNL d         -33.188 -19.396 -17.278  0.00  0.00     0.246 C 
ATOM     10  C8  GNL d         -32.503 -20.508 -18.062  0.00  0.00     0.052 C 
ATOM     11  H3  GNL d         -33.930 -18.171 -18.741  0.00  0.00     0.279 HD
ATOM     12  H4  GNL d         -34.877 -19.481 -18.430  0.00  0.00     0.279 HD
ENDROOT
BRANCH   7  13
ATOM     13  C6  GNL d         -35.399 -16.875 -12.787  0.00  0.00     0.198 C 
BRANCH  13  14
ATOM     14  O6  GNL d         -35.165 -17.944 -11.868  0.00  0.00    -0.398 OA
ATOM     15  H12 GNL d         -35.638 -18.716 -12.155  0.00  0.00     0.209 HD
ENDBRANCH  13  14
ENDBRANCH   7  13
BRANCH   6  16
ATOM     16  O4  GNL d         -36.266 -15.664 -15.380  0.00  0.00    -0.390 OA
ATOM     17  H8  GNL d         -36.820 -16.372 -15.688  0.00  0.00     0.210 HD
ENDBRANCH   6  16
BRANCH   5  18
ATOM     18  O3  GNL d         -34.399 -15.627 -17.528  0.00  0.00    -0.391 OA
ATOM     19  H6  GNL d         -35.302 -15.393 -17.708  0.00  0.00     0.210 HD
ENDBRANCH   5  18
TORSDOF 4
