4x11_ligand

Created by X-TOOL on Sun Nov 13 14:28:28 2016
 39 39  0  0  0  0  0  0  0  0999 V2000
   17.9520  -21.4950    9.8970  C 0  5  0  1  0  3
   17.9060  -23.0170    9.7810  C 0  0  0  1  0  4
   19.1050  -23.6000    9.0130  C 0  0  0  3  0  4
   20.4150  -23.3880    9.7840  C 0  0  0  2  0  4
   20.3090  -23.9570   11.1890  C 0  0  0  2  0  4
   19.1090  -23.3190   11.8810  C 0  0  0  2  0  4
   18.9030  -23.8110   13.3170  C 0  0  0  2  0  4
   17.5520  -23.3730   13.8990  C 0  0  0  2  0  4
   17.4350  -23.7250   15.3810  C 0  0  0  3  0  4
   22.1030  -24.4380   12.7810  C 0  0  0  1  0  3
   23.3330  -23.9170   13.4770  C 0  0  0  4  0  4
   21.5070  -23.6110   11.9260  N 0  0  0  2  0  3
   18.4820  -20.7870    9.0000  O 0  0  0  1  0  1
   17.4470  -20.9750   10.9220  O 0  0  0  1  0  1
   16.6650  -23.4440    9.1560  O 0  0  0  2  0  2
   21.5480  -23.9790    9.1400  O 0  0  0  2  0  2
   17.9330  -23.5540   11.1080  O 0  0  0  1  0  2
   19.0390  -25.2290   13.3470  O 0  0  0  2  0  2
   17.3460  -21.9490   13.7340  O 0  0  0  2  0  2
   16.2900  -23.0370   15.9270  O 0  0  0  2  0  2
   21.6940  -25.5620   12.9880  O 0  0  0  1  0  1
   19.1803  -23.1030    8.0346  H 0  0  0  1  0  1
   18.9463  -24.6784    8.8653  H 0  0  0  1  0  1
   20.5890  -22.3043    9.8561  H 0  0  0  1  0  1
   20.1896  -25.0498   11.1491  H 0  0  0  1  0  1
   19.2848  -22.2340   11.9233  H 0  0  0  1  0  1
   19.6941  -23.3741   13.9441  H 0  0  0  1  0  1
   16.7593  -23.9051   13.3527  H 0  0  0  1  0  1
   18.3455  -23.4078   15.9106  H 0  0  0  1  0  1
   17.3041  -24.8112   15.4950  H 0  0  0  1  0  1
   23.7279  -24.6908   14.1518  H 0  0  0  1  0  1
   23.0729  -23.0207   14.0593  H 0  0  0  1  0  1
   24.0965  -23.6591   12.7283  H 0  0  0  1  0  1
   21.9062  -22.7050   11.7851  H 0  0  0  1  0  1
   15.9290  -23.1171    9.6601  H 0  0  0  1  0  1
   21.6269  -23.6320    8.2592  H 0  0  0  1  0  1
   19.8816  -25.4730   12.9821  H 0  0  0  1  0  1
   16.4814  -21.7164   14.0515  H 0  0  0  1  0  1
   16.4065  -22.0998   15.8243  H 0  0  0  1  0  1
  2  1  1  0  0  2
  1 13  2  0  0  2
  1 14  2  0  0  2
  3  2  1  0  0  1
  2 15  1  0  0  2
 17  2  1  0  0  1
  4  3  1  0  0  1
  5  4  1  0  0  1
  4 16  1  0  0  2
  5  6  1  0  0  1
 12  5  1  0  0  2
  6  7  1  0  0  2
  6 17  1  0  0  1
  7  8  1  0  0  2
  7 18  1  0  0  2
  8  9  1  0  0  2
  8 19  1  0  0  2
  9 20  1  0  0  2
 10 11  1  0  0  2
 10 12  1  0  0  2
 10 21  2  0  0  2
  3 22  1  0  0  2
  3 23  1  0  0  2
  4 24  1  0  0  2
  5 25  1  0  0  2
  6 26  1  0  0  2
  7 27  1  0  0  2
  8 28  1  0  0  2
  9 29  1  0  0  2
  9 30  1  0  0  2
 11 31  1  0  0  2
 11 32  1  0  0  2
 11 33  1  0  0  2
 12 34  1  0  0  2
 15 35  1  0  0  2
 16 36  1  0  0  2
 18 37  1  0  0  2
 19 38  1  0  0  2
 20 39  1  0  0  2
M  END
> <MOLECULAR_FORMULA>
C11H18NO9

> <MOLECULAR_WEIGHT>
308.1

> <NUM_HB_ATOMS>
10 

> <NUM_ROTOR>
4  

> <XLOGP2>
-4.09

$$$$
