REMARK  8 active torsions:
REMARK  status: ('A' for Active; 'I' for Inactive)
REMARK    1  A    between atoms: N_1  and  CA_3 
REMARK    2  A    between atoms: CA_3  and  C_5 
REMARK       I    between atoms: C_5  and  N_7 
REMARK    3  A    between atoms: N_7  and  CA_8 
REMARK    4  A    between atoms: CA_8  and  C_9 
REMARK    5  A    between atoms: CA_8  and  C1_11 
REMARK       I    between atoms: C_9  and  N_17 
REMARK    6  A    between atoms: CA_18  and  C_19 
REMARK       I    between atoms: C_19  and  N25_24 
REMARK    7  A    between atoms: N25_24  and  C26_25 
REMARK    8  A    between atoms: C27_26  and  C31_30 
ROOT
ATOM      1  C   MAA d          80.815  62.311  13.699  0.00  0.00     0.243 C 
ATOM      2  O   MAA d          80.374  61.971  14.788  0.00  0.00    -0.271 OA
ATOM      3  N   MAA d          80.237  63.338  13.043  0.00  0.00    -0.337 N 
ATOM      4  CA  MAA d          79.101  64.095  13.567  0.00  0.00     0.179 C 
ATOM      5  CB  MAA d          78.779  65.218  12.560  0.00  0.00     0.037 C 
ATOM      6  CG  MAA d          80.111  65.376  11.790  0.00  0.00     0.022 C 
ATOM      7  CD  MAA d          80.601  63.909  11.725  0.00  0.00     0.127 C 
ENDROOT
BRANCH   1   8
ATOM      8  CA  MAA d          81.976  61.574  13.084  0.00  0.00     0.181 C 
BRANCH   8   9
ATOM      9  N   MAA d          82.821  61.039  14.164  0.00  0.00    -0.346 N 
ATOM     10  C   MAA d          84.168  61.126  14.112  0.00  0.00     0.248 C 
ATOM     11  O   MAA d          84.744  61.638  13.166  0.00  0.00    -0.271 OA
ATOM     12  H10 MAA d          82.389  60.602  14.953  0.00  0.00     0.163 HD
BRANCH  10  13
ATOM     13  CA  MAA d          84.981  60.564  15.249  0.00  0.00     0.272 C 
ATOM     14  CB  MAA d          85.012  61.583  16.393  0.00  0.00     0.050 C 
BRANCH  13  15
ATOM     15  N   MAA d          86.359  60.304  14.792  0.00  0.00    -0.067 N 
ATOM     16  CM  MAA d          86.457  59.117  13.918  0.00  0.00     0.267 C 
ATOM     17  H1  MAA d          86.686  61.109  14.280  0.00  0.00     0.277 HD
ATOM     18  H2  MAA d          86.944  60.159  15.600  0.00  0.00     0.277 HD
ENDBRANCH  13  15
ENDBRANCH  10  13
ENDBRANCH   8   9
BRANCH   8  19
ATOM     19  C1  MAA d          81.436  60.468  12.147  0.00  0.00     0.018 C 
ATOM     20  C2  MAA d          80.565  59.442  12.900  0.00  0.00     0.007 C 
ATOM     21  C3  MAA d          80.025  58.383  11.925  0.00  0.00     0.000 C 
ATOM     22  C4  MAA d          81.189  57.678  11.214  0.00  0.00     0.000 C 
ATOM     23  C5  MAA d          82.037  58.702  10.445  0.00  0.00     0.000 C 
ATOM     24  C6  MAA d          82.592  59.757  11.414  0.00  0.00     0.007 C 
ENDBRANCH   8  19
ENDBRANCH   1   8
BRANCH   4  25
ATOM     25  C   MAA d          77.900  63.199  13.715  0.00  0.00     0.245 C 
ATOM     26  O   MAA d          77.680  62.353  12.867  0.00  0.00    -0.271 OA
ATOM     27  N25 MAA d          77.090  63.329  14.791  0.00  0.00    -0.316 N 
ATOM     28  H30 MAA d          77.311  64.006  15.493  0.00  0.00     0.169 HD
BRANCH  27  29
ATOM     29  C26 MAA d          75.954  62.538  14.939  0.00  0.00     0.128 A 
ATOM     30  C27 MAA d          75.141  62.345  16.047  0.00  0.00     0.125 A 
ATOM     31  N28 MAA d          74.119  61.534  15.836  0.00  0.00    -0.139 NA
ATOM     32  N29 MAA d          73.939  61.026  14.677  0.00  0.00    -0.108 NA
ATOM     33  S30 MAA d          75.195  61.604  13.697  0.00  0.00     0.055 SA
BRANCH  30  34
ATOM     34  C31 MAA d          75.356  62.931  17.395  0.00  0.00    -0.003 A 
ATOM     35  C32 MAA d          74.292  63.558  18.062  0.00  0.00     0.014 A 
ATOM     36  C33 MAA d          74.480  64.088  19.331  0.00  0.00     0.001 A 
ATOM     37  C34 MAA d          75.722  63.988  19.946  0.00  0.00     0.000 A 
ATOM     38  C35 MAA d          76.774  63.360  19.295  0.00  0.00     0.001 A 
ATOM     39  C36 MAA d          76.599  62.829  18.025  0.00  0.00     0.014 A 
ENDBRANCH  30  34
ENDBRANCH  27  29
ENDBRANCH   4  25
TORSDOF 8
