REMARK  5 active torsions:
REMARK  status: ('A' for Active; 'I' for Inactive)
REMARK    1  A    between atoms: C2_2  and  C1_1 
REMARK    2  A    between atoms: C1_1  and  N_11 
REMARK    3  A    between atoms: C2_2  and  C3_3 
REMARK    4  A    between atoms: C3_3  and  C4_4 
REMARK    5  A    between atoms: C4_4  and  C1'_5 
ROOT
ATOM      1  C3  PBN d          28.891  15.465  16.561  0.00  0.00     0.006 C 
ENDROOT
BRANCH   1   2
ATOM      2  C2  PBN d          29.814  15.839  15.438  0.00  0.00     0.027 C 
BRANCH   2   3
ATOM      3  C1  PBN d          29.092  15.513  14.137  0.00  0.00     0.229 C 
BRANCH   3   4
ATOM      4  N   PBN d          29.868  14.952  13.027  0.00  0.00    -0.079 N 
ATOM      5  H14 PBN d          29.259  14.790  12.240  0.00  0.00     0.274 HD
ATOM      6  H15 PBN d          30.285  14.081  13.315  0.00  0.00     0.274 HD
ATOM      7  H16 PBN d          30.593  15.600  12.763  0.00  0.00     0.274 HD
ENDBRANCH   3   4
ENDBRANCH   2   3
ENDBRANCH   1   2
BRANCH   1   8
ATOM      8  C4  PBN d          29.558  14.608  17.630  0.00  0.00     0.038 C 
BRANCH   8   9
ATOM      9  C1' PBN d          30.170  13.268  17.193  0.00  0.00    -0.058 A 
ATOM     10  C2' PBN d          29.522  12.463  16.272  0.00  0.00     0.007 A 
ATOM     11  C3' PBN d          29.879  11.132  16.184  0.00  0.00     0.001 A 
ATOM     12  C4' PBN d          30.863  10.561  16.983  0.00  0.00     0.000 A 
ATOM     13  C5' PBN d          31.510  11.348  17.903  0.00  0.00     0.001 A 
ATOM     14  C6' PBN d          31.155  12.688  17.996  0.00  0.00     0.007 A 
ENDBRANCH   8   9
ENDBRANCH   1   8
TORSDOF 5
