REMARK  17 active torsions:
REMARK  status: ('A' for Active; 'I' for Inactive)
REMARK    1  A    between atoms: N9R_1  and  C1R_8 
REMARK    2  A    between atoms: C6R_5  and  N6R_6 
REMARK    3  A    between atoms: C5'_13  and  O5'_12 
REMARK    4  A    between atoms: O5'_12  and  PA_20 
REMARK    5  A    between atoms: C4'_14  and  C5'_13 
REMARK    6  A    between atoms: C3'_16  and  O3'_17 
REMARK    7  A    between atoms: C2'_18  and  O2'_19 
REMARK    8  A    between atoms: PA_20  and  O3A_23 
REMARK    9  A    between atoms: O3A_23  and  PB_24 
REMARK   10  A    between atoms: PB_24  and  O3B_27 
REMARK   11  A    between atoms: O3B_27  and  PG_28 
REMARK   12  A    between atoms: PG_28  and  O3G_31 
REMARK   13  A    between atoms: O3G_31  and  PD_32 
REMARK   14  A    between atoms: PD_32  and  O3D_35 
REMARK   15  A    between atoms: O3D_35  and  C6A_44 
REMARK   16  A    between atoms: C2_37  and  N2_38 
REMARK   17  A    between atoms: C6A_44  and  C6_43 
ROOT
ATOM      1  PB  A4P d           2.852  20.442  23.871  0.00  0.00     0.427 P 
ATOM      2  O1B A4P d           1.855  21.008  24.850  0.00  0.00    -0.624 OA
ATOM      3  O2B A4P d           2.468  20.334  22.420  0.00  0.00    -0.624 OA
ENDROOT
BRANCH   1   4
ATOM      4  O3A A4P d           3.503  19.032  24.417  0.00  0.00    -0.180 OA
BRANCH   4   5
ATOM      5  PA  A4P d           3.731  17.847  23.459  0.00  0.00     0.417 P 
ATOM      6  O2A A4P d           4.889  17.053  24.022  0.00  0.00    -0.624 OA
ATOM      7  O1A A4P d           3.901  18.216  22.028  0.00  0.00    -0.624 OA
BRANCH   5   8
ATOM      8  O5' A4P d           2.338  17.056  23.485  0.00  0.00    -0.287 OA
BRANCH   8   9
ATOM      9  C5' A4P d           1.679  16.748  24.797  0.00  0.00     0.216 C 
BRANCH   9  10
ATOM     10  C4' A4P d           0.524  15.864  24.495  0.00  0.00     0.180 C 
ATOM     11  O4' A4P d          -0.383  16.552  23.604  0.00  0.00    -0.353 OA
ATOM     12  C1R A4P d          -1.250  15.581  23.085  0.00  0.00     0.262 C 
ATOM     13  C2' A4P d          -0.526  14.243  23.143  0.00  0.00     0.198 C 
ATOM     14  C3' A4P d           0.811  14.606  23.774  0.00  0.00     0.182 C 
BRANCH  12  15
ATOM     15  N9R A4P d          -1.731  16.020  21.745  0.00  0.00    -0.294 N 
ATOM     16  C4R A4P d          -1.312  15.894  20.434  0.00  0.00     0.167 A 
ATOM     17  C5R A4P d          -2.338  16.440  19.667  0.00  0.00     0.149 A 
ATOM     18  N3R A4P d          -0.122  15.345  19.891  0.00  0.00    -0.222 NA
ATOM     19  N7R A4P d          -3.421  16.922  20.450  0.00  0.00    -0.236 NA
ATOM     20  C6R A4P d          -2.244  16.479  18.243  0.00  0.00     0.155 A 
ATOM     21  C8R A4P d          -3.008  16.649  21.661  0.00  0.00     0.214 A 
ATOM     22  N1R A4P d          -1.014  15.912  17.670  0.00  0.00    -0.222 NA
ATOM     23  C2R A4P d          -0.102  15.418  18.498  0.00  0.00     0.237 A 
BRANCH  20  24
ATOM     24  N6R A4P d          -3.075  16.934  17.408  0.00  0.00    -0.382 N 
ATOM     25  H2  A4P d          -2.867  16.893  16.400  0.00  0.00     0.157 HD
ATOM     26  H3  A4P d          -3.960  17.346  17.735  0.00  0.00     0.157 HD
ENDBRANCH  20  24
ENDBRANCH  12  15
BRANCH  13  27
ATOM     27  O2' A4P d          -1.261  13.305  23.974  0.00  0.00    -0.388 OA
ATOM     28  H12 A4P d          -0.750  12.511  24.081  0.00  0.00     0.210 HD
ENDBRANCH  13  27
BRANCH  14  29
ATOM     29  O3' A4P d           1.324  13.604  24.613  0.00  0.00    -0.390 OA
ATOM     30  H10 A4P d           0.711  13.439  25.320  0.00  0.00     0.210 HD
ENDBRANCH  14  29
ENDBRANCH   9  10
ENDBRANCH   8   9
ENDBRANCH   5   8
ENDBRANCH   4   5
ENDBRANCH   1   4
BRANCH   1  31
ATOM     31  O3B A4P d           4.132  21.466  23.999  0.00  0.00    -0.180 OA
BRANCH  31  32
ATOM     32  PG  A4P d           5.002  21.847  22.869  0.00  0.00     0.427 P 
ATOM     33  O2G A4P d           6.298  22.301  23.461  0.00  0.00    -0.624 OA
ATOM     34  O1G A4P d           5.137  20.691  21.874  0.00  0.00    -0.624 OA
BRANCH  32  35
ATOM     35  O3G A4P d           4.272  23.014  22.102  0.00  0.00    -0.180 OA
BRANCH  35  36
ATOM     36  PD  A4P d           3.682  22.874  20.610  0.00  0.00     0.418 P 
ATOM     37  O2D A4P d           3.060  21.494  20.588  0.00  0.00    -0.624 OA
ATOM     38  O1D A4P d           2.547  23.875  20.595  0.00  0.00    -0.624 OA
BRANCH  36  39
ATOM     39  O3D A4P d           4.704  22.997  19.523  0.00  0.00    -0.283 OA
BRANCH  39  40
ATOM     40  C6A A4P d           6.012  23.266  19.904  0.00  0.00     0.242 C 
BRANCH  40  41
ATOM     41  C6  A4P d           6.601  24.146  18.877  0.00  0.00     0.077 A 
ATOM     42  C7  A4P d           7.016  25.534  19.335  0.00  0.00     0.148 A 
ATOM     43  N8  A4P d           7.543  26.268  18.333  0.00  0.00    -0.237 NA
ATOM     44  C9  A4P d           7.749  25.957  17.027  0.00  0.00     0.202 A 
ATOM     45  C10 A4P d           7.326  24.591  16.635  0.00  0.00     0.174 A 
ATOM     46  N1  A4P d           8.299  26.822  16.133  0.00  0.00    -0.043 NA
ATOM     47  N5  A4P d           6.756  23.708  17.580  0.00  0.00    -0.240 NA
ATOM     48  C4  A4P d           7.535  24.230  15.242  0.00  0.00     0.292 A 
ATOM     49  N3  A4P d           8.104  25.211  14.451  0.00  0.00    -0.152 N 
ATOM     50  O4  A4P d           7.248  23.110  14.683  0.00  0.00    -0.265 OA
ATOM     51  C2  A4P d           8.494  26.505  14.862  0.00  0.00     0.703 A 
ATOM     52  H15 A4P d           8.255  24.981  13.490  0.00  0.00     0.187 HD
BRANCH  51  53
ATOM     53  N2  A4P d           9.022  27.320  13.981  0.00  0.00    -0.233 N 
ATOM     54  H13 A4P d           9.312  28.267  14.264  0.00  0.00     0.174 HD
ATOM     55  H14 A4P d           9.147  27.013  13.006  0.00  0.00     0.174 HD
ENDBRANCH  51  53
ENDBRANCH  40  41
ENDBRANCH  39  40
ENDBRANCH  36  39
ENDBRANCH  35  36
ENDBRANCH  32  35
ENDBRANCH  31  32
ENDBRANCH   1  31
TORSDOF 17
