REMARK  19 active torsions:
REMARK  status: ('A' for Active; 'I' for Inactive)
REMARK    1  A    between atoms: O4_18  and  C1_1 
REMARK    2  A    between atoms: C2_2  and  O2_3 
REMARK    3  A    between atoms: C3_4  and  O3_5 
REMARK    4  A    between atoms: C5_7  and  C6_9 
REMARK    5  A    between atoms: O4_30  and  C1_12 
REMARK    6  A    between atoms: C2_13  and  O2_14 
REMARK    7  A    between atoms: C3_15  and  O3_16 
REMARK    8  A    between atoms: C4_17  and  O4_18 
REMARK    9  A    between atoms: C5_19  and  C6_21 
REMARK   10  A    between atoms: O4_42  and  C1_24 
REMARK   11  A    between atoms: C2_25  and  O2_26 
REMARK   12  A    between atoms: C3_27  and  O3_28 
REMARK   13  A    between atoms: C4_29  and  O4_30 
REMARK   14  A    between atoms: C5_31  and  C6_33 
REMARK   15  A    between atoms: C1_36  and  O1_48 
REMARK   16  A    between atoms: C2_37  and  O2_38 
REMARK   17  A    between atoms: C3_39  and  O3_40 
REMARK   18  A    between atoms: C4_41  and  O4_42 
REMARK   19  A    between atoms: C5_43  and  C6_45 
ROOT
ATOM      1  C1  MOL d         -19.105  -6.390 -12.387  0.00  0.00     0.293 C 
ATOM      2  C2  MOL d         -17.938  -7.375 -12.311  0.00  0.00     0.204 C 
ATOM      3  C3  MOL d         -16.643  -6.646 -11.939  0.00  0.00     0.183 C 
ATOM      4  C4  MOL d         -16.831  -5.798 -10.676  0.00  0.00     0.195 C 
ATOM      5  C5  MOL d         -18.078  -4.907 -10.770  0.00  0.00     0.257 C 
ATOM      6  O5  MOL d         -19.244  -5.691 -11.136  0.00  0.00    -0.340 OA
ENDROOT
BRANCH   4   7
ATOM      7  O4  MOL d         -16.918  -6.636  -9.506  0.00  0.00    -0.347 OA
BRANCH   7   8
ATOM      8  C1  MOL d         -15.715  -6.822  -8.821  0.00  0.00     0.293 C 
ATOM      9  C2  MOL d         -15.984  -7.368  -7.412  0.00  0.00     0.204 C 
ATOM     10  C3  MOL d         -14.655  -7.576  -6.666  0.00  0.00     0.183 C 
ATOM     11  C4  MOL d         -13.643  -8.375  -7.510  0.00  0.00     0.195 C 
ATOM     12  C5  MOL d         -13.529  -7.773  -8.902  0.00  0.00     0.257 C 
ATOM     13  O5  MOL d         -14.830  -7.700  -9.510  0.00  0.00    -0.340 OA
BRANCH   9  14
ATOM     14  O2  MOL d         -16.688  -8.597  -7.500  0.00  0.00    -0.388 OA
ATOM     15  H9  MOL d         -16.852  -8.930  -6.626  0.00  0.00     0.210 HD
ENDBRANCH   9  14
BRANCH  10  16
ATOM     16  O3  MOL d         -14.885  -8.253  -5.441  0.00  0.00    -0.390 OA
ATOM     17  H11 MOL d         -14.059  -8.376  -4.989  0.00  0.00     0.210 HD
ENDBRANCH  10  16
BRANCH  11  18
ATOM     18  O4  MOL d         -12.346  -8.301  -6.899  0.00  0.00    -0.347 OA
BRANCH  18  19
ATOM     19  C1  MOL d         -11.889  -9.379  -6.168  0.00  0.00     0.298 C 
ATOM     20  C2  MOL d         -10.348  -9.355  -6.228  0.00  0.00     0.206 C 
ATOM     21  C3  MOL d          -9.810 -10.336  -5.223  0.00  0.00     0.177 C 
ATOM     22  C4  MOL d         -10.492 -10.413  -3.904  0.00  0.00     0.051 C 
ATOM     23  C5  MOL d         -11.889 -10.116  -3.852  0.00  0.00     0.147 C 
ATOM     24  O5  MOL d         -12.363  -9.173  -4.820  0.00  0.00    -0.311 OA
BRANCH  20  25
ATOM     25  O2  MOL d          -9.903  -8.054  -5.899  0.00  0.00    -0.388 OA
ATOM     26  H3  MOL d         -10.261  -7.431  -6.521  0.00  0.00     0.210 HD
ENDBRANCH  20  25
BRANCH  21  27
ATOM     27  O3  MOL d          -8.388 -10.431  -5.218  0.00  0.00    -0.389 OA
ATOM     28  H5  MOL d          -8.016  -9.582  -5.012  0.00  0.00     0.210 HD
ENDBRANCH  21  27
BRANCH  23  29
ATOM     29  C6  MOL d         -12.494 -10.004  -2.557  0.00  0.00     0.233 C 
ATOM     30  O6A MOL d         -13.382  -9.142  -2.408  0.00  0.00    -0.642 OA
ATOM     31  O6B MOL d         -12.111 -10.762  -1.645  0.00  0.00    -0.642 OA
ENDBRANCH  23  29
ENDBRANCH  18  19
ENDBRANCH  11  18
BRANCH  12  32
ATOM     32  C6  MOL d         -12.563  -8.540  -9.780  0.00  0.00     0.206 C 
ATOM     33  O6A MOL d         -13.014  -9.409 -10.557  0.00  0.00    -0.646 OA
ATOM     34  O6B MOL d         -11.346  -8.272  -9.673  0.00  0.00    -0.646 OA
ENDBRANCH  12  32
ENDBRANCH   7   8
ENDBRANCH   4   7
BRANCH   3  35
ATOM     35  O3  MOL d         -16.234  -5.811 -13.014  0.00  0.00    -0.390 OA
ATOM     36  H18 MOL d         -16.914  -5.172 -13.194  0.00  0.00     0.210 HD
ENDBRANCH   3  35
BRANCH   5  37
ATOM     37  C6  MOL d         -18.337  -4.216  -9.441  0.00  0.00     0.206 C 
ATOM     38  O6A MOL d         -19.496  -4.236  -8.975  0.00  0.00    -0.646 OA
ATOM     39  O6B MOL d         -17.373  -3.676  -8.854  0.00  0.00    -0.646 OA
ENDBRANCH   5  37
BRANCH   2  40
ATOM     40  O2  MOL d         -17.780  -8.021 -13.564  0.00  0.00    -0.388 OA
ATOM     41  H16 MOL d         -18.577  -8.491 -13.780  0.00  0.00     0.210 HD
ENDBRANCH   2  40
BRANCH   1  42
ATOM     42  O4  MOL d         -18.882  -5.468 -13.404  0.00  0.00    -0.347 OA
BRANCH  42  43
ATOM     43  C4  MOL d         -20.029  -4.766 -13.929  0.00  0.00     0.195 C 
ATOM     44  C3  MOL d         -19.694  -3.277 -14.038  0.00  0.00     0.183 C 
ATOM     45  C2  MOL d         -20.845  -2.542 -14.725  0.00  0.00     0.204 C 
ATOM     46  C1  MOL d         -21.068  -3.161 -16.101  0.00  0.00     0.289 C 
ATOM     47  O5  MOL d         -21.434  -4.535 -15.941  0.00  0.00    -0.340 OA
ATOM     48  C5  MOL d         -20.392  -5.328 -15.320  0.00  0.00     0.257 C 
BRANCH  44  49
ATOM     49  O3  MOL d         -19.472  -2.737 -12.743  0.00  0.00    -0.390 OA
ATOM     50  H25 MOL d         -20.260  -2.834 -12.221  0.00  0.00     0.210 HD
ENDBRANCH  44  49
BRANCH  45  51
ATOM     51  O2  MOL d         -22.034  -2.698 -13.959  0.00  0.00    -0.388 OA
ATOM     52  H23 MOL d         -22.233  -3.623 -13.870  0.00  0.00     0.210 HD
ENDBRANCH  45  51
BRANCH  46  53
ATOM     53  O1  MOL d         -19.896  -3.108 -16.842  0.00  0.00    -0.368 OA
ATOM     54  H28 MOL d         -20.041  -3.509 -17.691  0.00  0.00     0.212 HD
ENDBRANCH  46  53
BRANCH  48  55
ATOM     55  C6  MOL d         -20.853  -6.768 -15.258  0.00  0.00     0.206 C 
ATOM     56  O6A MOL d         -22.084  -6.982 -15.207  0.00  0.00    -0.646 OA
ATOM     57  O6B MOL d         -19.992  -7.675 -15.274  0.00  0.00    -0.646 OA
ENDBRANCH  48  55
ENDBRANCH  42  43
ENDBRANCH   1  42
TORSDOF 19
