REMARK  18 active torsions:
REMARK  status: ('A' for Active; 'I' for Inactive)
REMARK    1  A    between atoms: O1_2  and  C2_3 
REMARK    2  A    between atoms: C5_8  and  S8_9 
REMARK    3  A    between atoms: S8_9  and  N11_12 
REMARK    4  A    between atoms: N11_12  and  C12_13 
REMARK    5  A    between atoms: N11_12  and  C16_18 
REMARK    6  A    between atoms: C12_13  and  C13_14 
REMARK    7  A    between atoms: C13_14  and  C15_16 
REMARK    8  A    between atoms: C16_18  and  C17_19 
REMARK    9  A    between atoms: C17_19  and  O18_20 
REMARK   10  A    between atoms: C17_19  and  C19_21 
REMARK   11  A    between atoms: C19_21  and  C32_22 
REMARK   12  A    between atoms: C19_21  and  N20_29 
REMARK   13  A    between atoms: C32_22  and  C38_23 
REMARK       I    between atoms: N20_29  and  C21_30 
REMARK   14  A    between atoms: C21_30  and  O23_32 
REMARK   15  A    between atoms: O23_32  and  C23_33 
REMARK   16  A    between atoms: C23_33  and  C24_34 
REMARK   17  A    between atoms: C24_34  and  N25_35 
REMARK       I    between atoms: N25_35  and  C26_36 
REMARK   18  A    between atoms: C26_36  and  C28_38 
ROOT
ATOM      1  C19 MK5 d          19.616  28.954  14.248  0.00  0.00     0.120 C 
ENDROOT
BRANCH   1   2
ATOM      2  C17 MK5 d          19.966  29.341  15.685  0.00  0.00     0.155 C 
BRANCH   2   3
ATOM      3  C16 MK5 d          19.027  30.439  16.209  0.00  0.00     0.141 C 
BRANCH   3   4
ATOM      4  N11 MK5 d          19.421  31.704  15.560  0.00  0.00    -0.204 NA
BRANCH   4   5
ATOM      5  S8  MK5 d          18.129  32.378  14.751  0.00  0.00     0.243 S 
ATOM      6  O9  MK5 d          18.663  33.264  13.663  0.00  0.00    -0.206 OA
ATOM      7  O10 MK5 d          17.293  31.288  14.189  0.00  0.00    -0.206 OA
BRANCH   5   8
ATOM      8  C5  MK5 d          17.175  33.358  15.856  0.00  0.00     0.074 A 
ATOM      9  C6  MK5 d          16.181  32.771  16.629  0.00  0.00     0.027 A 
ATOM     10  C7  MK5 d          15.438  33.548  17.511  0.00  0.00     0.038 A 
ATOM     11  C2  MK5 d          15.686  34.912  17.626  0.00  0.00     0.068 A 
ATOM     12  C3  MK5 d          16.678  35.501  16.848  0.00  0.00     0.038 A 
ATOM     13  C4  MK5 d          17.420  34.723  15.967  0.00  0.00     0.027 A 
BRANCH  11  14
ATOM     14  O1  MK5 d          14.939  35.657  18.496  0.00  0.00    -0.356 OA
ATOM     15  C1  MK5 d          15.499  36.961  18.702  0.00  0.00     0.210 C 
ENDBRANCH  11  14
ENDBRANCH   5   8
ENDBRANCH   4   5
BRANCH   4  16
ATOM     16  C12 MK5 d          20.025  32.611  16.558  0.00  0.00     0.112 C 
BRANCH  16  17
ATOM     17  C13 MK5 d          21.327  33.238  16.049  0.00  0.00    -0.005 C 
ATOM     18  C14 MK5 d          22.127  33.928  17.169  0.00  0.00     0.011 C 
BRANCH  17  19
ATOM     19  C15 MK5 d          22.189  32.209  15.322  0.00  0.00     0.001 C 
ATOM     20  C18 MK5 d          22.972  32.877  14.199  0.00  0.00     0.005 C 
ENDBRANCH  17  19
ENDBRANCH  16  17
ENDBRANCH   4  16
ENDBRANCH   3   4
ENDBRANCH   2   3
BRANCH   2  21
ATOM     21  O18 MK5 d          19.921  28.189  16.522  0.00  0.00    -0.392 OA
ATOM     22  H22 MK5 d          20.508  27.526  16.178  0.00  0.00     0.210 HD
ENDBRANCH   2  21
ENDBRANCH   1   2
BRANCH   1  23
ATOM     23  C32 MK5 d          18.285  28.188  14.164  0.00  0.00     0.066 C 
BRANCH  23  24
ATOM     24  C38 MK5 d          17.974  27.833  12.706  0.00  0.00    -0.056 A 
ATOM     25  C33 MK5 d          18.199  26.540  12.250  0.00  0.00     0.007 A 
ATOM     26  C34 MK5 d          17.934  26.205  10.929  0.00  0.00     0.001 A 
ATOM     27  C35 MK5 d          17.437  27.169  10.058  0.00  0.00     0.000 A 
ATOM     28  C36 MK5 d          17.214  28.464  10.509  0.00  0.00     0.001 A 
ATOM     29  C37 MK5 d          17.477  28.791  11.835  0.00  0.00     0.007 A 
ENDBRANCH  23  24
ENDBRANCH   1  23
BRANCH   1  30
ATOM     30  N20 MK5 d          20.686  28.117  13.695  0.00  0.00    -0.329 N 
ATOM     31  C21 MK5 d          21.628  28.549  12.866  0.00  0.00     0.361 C 
ATOM     32  O22 MK5 d          21.720  29.706  12.464  0.00  0.00    -0.239 OA
ATOM     33  H31 MK5 d          20.707  27.153  13.961  0.00  0.00     0.165 HD
BRANCH  31  34
ATOM     34  O23 MK5 d          22.537  27.630  12.437  0.00  0.00    -0.302 OA
BRANCH  34  35
ATOM     35  C23 MK5 d          23.561  28.301  11.700  0.00  0.00     0.200 C 
BRANCH  35  36
ATOM     36  C24 MK5 d          24.307  27.278  10.844  0.00  0.00     0.149 C 
BRANCH  36  37
ATOM     37  N25 MK5 d          23.342  26.432  10.130  0.00  0.00    -0.357 N 
ATOM     38  C26 MK5 d          23.243  25.137  10.396  0.00  0.00     0.250 C 
ATOM     39  O27 MK5 d          23.914  24.580  11.264  0.00  0.00    -0.271 OA
ATOM     40  H36 MK5 d          22.751  26.839   9.433  0.00  0.00     0.162 HD
BRANCH  38  41
ATOM     41  C28 MK5 d          22.210  24.346   9.584  0.00  0.00     0.269 C 
ATOM     42 CL2  MK5 d          21.506  25.274   8.210  0.00  0.00    -0.098 Cl
ATOM     43 CL1  MK5 d          20.900  23.909  10.710  0.00  0.00    -0.098 Cl
ENDBRANCH  38  41
ENDBRANCH  36  37
ENDBRANCH  35  36
ENDBRANCH  34  35
ENDBRANCH  31  34
ENDBRANCH   1  30
TORSDOF 18
