REMARK  4 active torsions:
REMARK  status: ('A' for Active; 'I' for Inactive)
REMARK    1  A    between atoms: C7_2  and  C6_5 
REMARK    2  A    between atoms: C4_8  and  C8_11 
REMARK       I    between atoms: C8_11  and  N9_13 
REMARK    3  A    between atoms: N9_13  and  C10_14 
REMARK    4  A    between atoms: C12_18  and  C16_20 
ROOT
ATOM      1  C8  DN6 d          -8.958  55.907  12.346  0.00  0.00     0.256 C 
ATOM      2  O21 DN6 d          -9.393  55.816  13.505  0.00  0.00    -0.267 OA
ATOM      3  N9  DN6 d          -7.841  55.287  11.899  0.00  0.00    -0.323 N 
ATOM      4  H5  DN6 d          -7.599  55.391  10.934  0.00  0.00     0.169 HD
ENDROOT
BRANCH   3   5
ATOM      5  C10 DN6 d          -6.998  54.502  12.714  0.00  0.00     0.035 A 
ATOM      6  C15 DN6 d          -7.473  53.792  13.803  0.00  0.00     0.029 A 
ATOM      7  C14 DN6 d          -6.548  53.084  14.577  0.00  0.00     0.003 A 
ATOM      8  C13 DN6 d          -5.213  53.054  14.218  0.00  0.00     0.015 A 
ATOM      9  C12 DN6 d          -4.761  53.719  13.103  0.00  0.00     0.017 A 
ATOM     10  C11 DN6 d          -5.660  54.471  12.358  0.00  0.00     0.045 A 
BRANCH   9  11
ATOM     11  C16 DN6 d          -3.401  53.662  12.765  0.00  0.00     0.198 A 
ATOM     12  N20 DN6 d          -2.854  54.225  11.695  0.00  0.00    -0.139 NA
ATOM     13  N19 DN6 d          -1.479  54.008  11.621  0.00  0.00    -0.200 N 
ATOM     14  N18 DN6 d          -1.195  53.268  12.776  0.00  0.00     0.022 NA
ATOM     15  H10 DN6 d          -0.825  54.319  10.889  0.00  0.00     0.208 HD
ATOM     16  N17 DN6 d          -2.369  53.096  13.475  0.00  0.00    -0.136 NA
ENDBRANCH   9  11
ENDBRANCH   3   5
BRANCH   1  17
ATOM     17  C4  DN6 d          -9.750  56.796  11.388  0.00  0.00     0.033 A 
ATOM     18  C5  DN6 d         -10.666  57.733  11.894  0.00  0.00     0.033 A 
ATOM     19  C6  DN6 d         -11.410  58.575  11.049  0.00  0.00     0.048 A 
ATOM     20  C1  DN6 d         -11.187  58.521   9.686  0.00  0.00     0.016 A 
ATOM     21  C2  DN6 d         -10.294  57.620   9.132  0.00  0.00     0.002 A 
ATOM     22  C3  DN6 d          -9.555  56.783   9.986  0.00  0.00     0.017 A 
BRANCH  19  23
ATOM     23  C7  DN6 d         -12.394  59.584  11.602  0.00  0.00     0.417 C 
ATOM     24  F24 DN6 d         -11.665  60.623  12.083  0.00  0.00    -0.166 F 
ATOM     25  F22 DN6 d         -13.282  59.891  10.659  0.00  0.00    -0.166 F 
ATOM     26  F23 DN6 d         -13.095  59.046  12.588  0.00  0.00    -0.166 F 
ENDBRANCH  19  23
ENDBRANCH   1  17
TORSDOF 4
