4ddy_ligand

Created by X-TOOL on Fri Sep 26 17:34:54 2014
 34 36  0  0  0  0  0  0  0  0999 V2000
  -11.6650   60.6230   12.0830  F 0  0  0  1  0  1
  -12.3940   59.5840   11.6020  C 0  0  0  1  0  4
  -13.2820   59.8910   10.6590  F 0  0  0  1  0  1
  -13.0950   59.0460   12.5880  F 0  0  0  1  0  1
  -11.4100   58.5750   11.0490  C 0  0  0  1  0  3
  -11.1870   58.5210    9.6860  C 0  0  0  2  0  3
  -10.6660   57.7330   11.8940  C 0  0  0  2  0  3
   -9.7500   56.7960   11.3880  C 0  0  0  1  0  3
   -9.5550   56.7830    9.9860  C 0  0  0  2  0  3
  -10.2940   57.6200    9.1320  C 0  0  0  2  0  3
   -8.9580   55.9070   12.3460  C 0  0  0  1  0  3
   -9.3930   55.8160   13.5050  O 0  0  0  1  0  1
   -7.8410   55.2870   11.8990  N 0  0  0  2  0  3
   -6.9980   54.5020   12.7140  C 0  0  0  1  0  3
   -7.4730   53.7920   13.8030  C 0  0  0  2  0  3
   -6.5480   53.0840   14.5770  C 0  0  0  2  0  3
   -5.2130   53.0540   14.2180  C 0  0  0  2  0  3
   -4.7610   53.7190   13.1030  C 0  0  0  1  0  3
   -5.6600   54.4710   12.3580  C 0  0  0  2  0  3
   -3.4010   53.6620   12.7650  C 0  0  0  1  0  3
   -2.8540   54.2250   11.6950  N 0  0  0  1  0  2
   -1.4790   54.0080   11.6210  N 0  0  0  2  0  3
   -1.1950   53.2680   12.7760  N 0  0  0  1  0  2
   -2.3690   53.0960   13.4750  N 0  0  0  1  0  2
  -11.7246   59.2009    9.0349  H 0  0  0  1  0  1
  -10.8031   57.8091   12.9666  H 0  0  0  1  0  1
   -8.8180   56.1114    9.5607  H 0  0  0  1  0  1
  -10.1666   57.5608    8.0571  H 0  0  0  1  0  1
   -7.5989   55.3914   10.9344  H 0  0  0  1  0  1
   -8.5289   53.7849   14.0483  H 0  0  0  1  0  1
   -6.8796   52.5557   15.4636  H 0  0  0  1  0  1
   -4.5104   52.4962   14.8266  H 0  0  0  1  0  1
   -5.3145   55.0335   11.4982  H 0  0  0  1  0  1
   -0.8250   54.3190   10.8886  H 0  0  0  1  0  1
  1  2  1  0  0  2
  2  3  1  0  0  2
  2  4  1  0  0  2
  2  5  1  0  0  2
  5  6  4  0  0  1
  5  7  4  0  0  1
  6 10  4  0  0  1
  7  8  4  0  0  1
  8  9  4  0  0  1
  8 11  1  0  0  2
  9 10  4  0  0  1
 11 12  2  0  0  2
 11 13  1  0  0  2
 13 14  1  0  0  2
 14 15  4  0  0  1
 14 19  4  0  0  1
 15 16  4  0  0  1
 16 17  4  0  0  1
 17 18  4  0  0  1
 18 19  4  0  0  1
 18 20  1  0  0  2
 20 21  2  0  0  1
 20 24  1  0  0  1
 21 22  1  0  0  1
 22 23  1  0  0  1
 23 24  2  0  0  1
  6 25  1  0  0  2
  7 26  1  0  0  2
  9 27  1  0  0  2
 10 28  1  0  0  2
 13 29  1  0  0  2
 15 30  1  0  0  2
 16 31  1  0  0  2
 17 32  1  0  0  2
 19 33  1  0  0  2
 22 34  1  0  0  2
M  END
> <MOLECULAR_FORMULA>
C15H10N5OF3

> <MOLECULAR_WEIGHT>
333.2

> <NUM_HB_ATOMS>
6  

> <NUM_ROTOR>
0  

> <XLOGP2>
3.47 

$$$$
