REMARK  7 active torsions:
REMARK  status: ('A' for Active; 'I' for Inactive)
REMARK    1  A    between atoms: C1_1  and  C7_7 
REMARK    2  A    between atoms: C7_7  and  N1_8 
REMARK    3  A    between atoms: C8_12  and  C1'_13 
REMARK    4  A    between atoms: C5'_17  and  O5'_20 
REMARK    5  A    between atoms: C6'_18  and  O6'_19 
REMARK    6  A    between atoms: O5'_20  and  C10_21 
REMARK    7  A    between atoms: C10_21  and  C20_22 
ROOT
ATOM      1  C1  MOL d          44.461  -3.087  26.246  0.00  0.00     0.009 A 
ATOM      2  C2  MOL d          44.840  -1.726  26.288  0.00  0.00     0.017 A 
ATOM      3  C3  MOL d          44.803  -0.997  27.477  0.00  0.00     0.033 A 
ATOM      4  C4  MOL d          44.390  -1.643  28.603  0.00  0.00     0.062 A 
ATOM      5  C5  MOL d          44.023  -2.929  28.619  0.00  0.00     0.086 A 
ATOM      6  C6  MOL d          44.047  -3.695  27.448  0.00  0.00     0.049 A 
ATOM      7  N3  MOL d          44.263  -1.231  29.809  0.00  0.00    -0.338 N 
ATOM      8  N4  MOL d          43.665  -3.336  29.822  0.00  0.00    -0.228 NA
ATOM      9  C8  MOL d          43.839  -2.226  30.516  0.00  0.00     0.142 A 
ATOM     10  H8  MOL d          44.462  -0.281  30.152  0.00  0.00     0.167 HD
ENDROOT
BRANCH   9  11
ATOM     11  C1' MOL d          43.617  -2.105  31.890  0.00  0.00     0.046 A 
ATOM     12  C2' MOL d          43.283  -3.226  32.644  0.00  0.00     0.018 A 
ATOM     13  C3' MOL d          43.074  -3.119  34.015  0.00  0.00     0.004 A 
ATOM     14  C4' MOL d          43.199  -1.898  34.638  0.00  0.00     0.040 A 
ATOM     15  C5' MOL d          43.534  -0.769  33.901  0.00  0.00     0.102 A 
ATOM     16  C6' MOL d          43.739  -0.867  32.536  0.00  0.00     0.113 A 
BRANCH  15  17
ATOM     17  O5' MOL d          43.698   0.470  34.490  0.00  0.00    -0.348 OA
BRANCH  17  18
ATOM     18  C10 MOL d          43.550   0.779  35.862  0.00  0.00     0.179 C 
BRANCH  18  19
ATOM     19  C20 MOL d          44.061   2.233  36.055  0.00  0.00     0.002 C 
ATOM     20  C30 MOL d          42.871   3.085  36.427  0.00  0.00     0.011 C 
ATOM     21  C40 MOL d          45.020   2.275  37.268  0.00  0.00     0.011 C 
ENDBRANCH  18  19
ENDBRANCH  17  18
ENDBRANCH  15  17
BRANCH  16  22
ATOM     22  O6' MOL d          44.050   0.287  31.836  0.00  0.00    -0.357 OA
ATOM     23  H12 MOL d          44.855   0.657  32.179  0.00  0.00     0.217 HD
ENDBRANCH  16  22
ENDBRANCH   9  11
BRANCH   1  24
ATOM     24  C7  MOL d          44.506  -3.793  25.018  0.00  0.00     0.102 C 
ATOM     25  N2  MOL d          44.751  -3.116  23.913  0.00  0.00    -0.385 N 
ATOM     26  H6  MOL d          44.916  -2.100  23.957  0.00  0.00     0.157 HD
ATOM     27  H7  MOL d          44.778  -3.603  23.006  0.00  0.00     0.157 HD
BRANCH  24  28
ATOM     28  N1  MOL d          44.294  -5.092  24.975  0.00  0.00    -0.385 N 
ATOM     29  H4  MOL d          44.330  -5.590  24.074  0.00  0.00     0.157 HD
ATOM     30  H5  MOL d          44.092  -5.610  25.842  0.00  0.00     0.157 HD
ENDBRANCH  24  28
ENDBRANCH   1  24
TORSDOF 7
