3hvk_ligand

Created by X-TOOL on Fri Sep 26 17:34:43 2014
 66 70  0  0  0  0  0  0  0  0999 V2000
   -5.7990   21.6500   12.8170  N 0  0  0  1  0  3
   -4.7620   21.8080   13.8170  C 0  0  0  2  0  4
   -6.1870   22.5890   11.8910  C 0  0  0  1  0  3
   -7.0560   21.9490   11.0440  C 0  0  0  1  0  3
   -7.2440   20.6490   11.4360  N 0  0  0  1  0  2
   -5.1190   21.2230   15.1750  C 0  0  0  2  0  4
   -0.4730   13.9040   14.3510  C 0  0  0  1  0  3
   -6.4750   20.4790   12.4790  C 0  0  0  2  0  3
   -3.6530   21.0220   13.3530  O 0  0  0  1  0  2
   -3.7400   20.8630   15.7380  C 0  0  0  2  0  4
    0.7520   14.4490   13.8250  C 0  0  0  1  0  3
   -0.4610   12.7300   15.0470  C 0  0  0  2  0  3
   -3.1320   20.2690   14.4850  C 0  0  0  2  0  4
   -1.7510   14.5650   14.1870  C 0  0  0  1  0  3
   -5.7790   23.8410   11.7910  N 0  0  0  1  0  2
    0.7400   12.0060   15.3010  C 0  0  0  1  0  3
    1.9770   13.7300   14.0990  C 0  0  0  1  0  3
    1.9380   12.5040   14.8410  C 0  0  0  2  0  3
   -7.5590   22.7350   10.0010  C 0  0  0  1  0  3
   -7.1620   23.9880    9.8710  N 0  0  0  1  0  2
   -6.2880   24.5100   10.7730  C 0  0  0  2  0  3
    0.6970   10.7710   16.0690  C 0  0  0  1  0  3
   -3.5080   18.8290   14.3730  C 0  0  0  2  0  3
   -2.8190   13.9860   14.4690  O 0  0  0  1  0  1
   -5.8510   22.1920   15.9300  O 0  0  0  2  0  2
   -1.8060   15.8040   13.6620  N 0  0  0  2  0  3
   -2.7610   17.9590   13.7490  C 0  0  0  2  0  3
    1.5330    9.6890   15.7390  C 0  0  0  2  0  3
   -0.2330   10.6430   17.1200  C 0  0  0  2  0  3
   -2.9660   21.9620   16.1770  O 0  0  0  2  0  2
    0.8430   15.4950   13.0890  O 0  0  0  1  0  1
    3.0620   14.2400   13.6320  O 0  0  0  1  0  1
    0.5820    8.4480   17.4990  C 0  0  0  1  0  3
    1.5060    8.5270   16.4960  C 0  0  0  2  0  3
   -0.2680    9.4690   17.8630  C 0  0  0  2  0  3
    0.6080    7.2940   18.2360  F 0  0  0  1  0  1
   -3.0820   16.5250   13.6010  C 0  0  0  3  0  4
   -8.4850   22.3070    9.0560  N 0  0  0  2  0  3
   -9.1510   21.0030    9.0860  C 0  0  0  3  0  4
  -10.1970   20.9310   10.1770  C 0  0  0  3  0  4
  -11.3510   21.6530    9.8050  O 0  0  0  2  0  2
   -4.4966   22.8705   13.9199  H 0  0  0  1  0  1
   -5.7344   20.3171   15.0722  H 0  0  0  1  0  1
   -6.3748   19.5379   13.0178  H 0  0  0  1  0  1
   -3.8202   20.1296   16.5539  H 0  0  0  1  0  1
   -1.4030   12.3322   15.4217  H 0  0  0  1  0  1
   -2.0362   20.3577   14.5202  H 0  0  0  1  0  1
    2.8617   11.9634   15.0419  H 0  0  0  1  0  1
   -5.9894   25.5445   10.6476  H 0  0  0  1  0  1
   -4.4383   18.4921   14.8279  H 0  0  0  1  0  1
   -6.6878   22.3527   15.5101  H 0  0  0  1  0  1
   -0.9737   16.2342   13.3124  H 0  0  0  1  0  1
   -1.8332   18.3168   13.3051  H 0  0  0  1  0  1
    2.2016    9.7636   14.8890  H 0  0  0  1  0  1
   -0.9157   11.4538   17.3471  H 0  0  0  1  0  1
   -3.3547   22.3279   16.9629  H 0  0  0  1  0  1
    2.1927    7.7117   16.2990  H 0  0  0  1  0  1
   -0.9438    9.3601   18.7036  H 0  0  0  1  0  1
   -3.7430   16.1974   14.4170  H 0  0  0  1  0  1
   -3.5750   16.3438   12.6345  H 0  0  0  1  0  1
   -8.7176   22.9488    8.2847  H 0  0  0  1  0  1
   -8.3970   20.2221    9.2637  H 0  0  0  1  0  1
   -9.6372   20.8291    8.1147  H 0  0  0  1  0  1
   -9.7848   21.3596   11.1024  H 0  0  0  1  0  1
  -10.4683   19.8790   10.3493  H 0  0  0  1  0  1
  -11.9960   21.5971   10.5003  H 0  0  0  1  0  1
  2  1  1  0  0  2
  1  3  1  0  0  1
  1  8  1  0  0  1
  6  2  1  0  0  1
  9  2  1  0  0  1
  3  4  4  0  0  1
  3 15  4  0  0  1
  5  4  1  0  0  1
  4 19  4  0  0  1
  8  5  2  0  0  1
 10  6  1  0  0  1
  6 25  1  0  0  2
  7 11  1  0  0  1
  7 12  2  0  0  1
 14  7  1  0  0  2
 13  9  1  0  0  1
 13 10  1  0  0  1
 10 30  1  0  0  2
 11 17  1  0  0  1
 11 31  2  0  0  2
 12 16  1  0  0  1
 23 13  1  0  0  2
 14 24  2  0  0  2
 26 14  1  0  0  2
 15 21  4  0  0  1
 16 18  2  0  0  1
 16 22  1  0  0  2
 17 18  1  0  0  1
 17 32  2  0  0  2
 19 20  4  0  0  1
 19 38  1  0  0  2
 21 20  4  0  0  1
 22 28  4  0  0  1
 22 29  4  0  0  1
 27 23  2  0  0  2
 37 26  1  0  0  2
 27 37  1  0  0  2
 28 34  4  0  0  1
 29 35  4  0  0  1
 34 33  4  0  0  1
 33 35  4  0  0  1
 33 36  1  0  0  2
 38 39  1  0  0  2
 39 40  1  0  0  2
 40 41  1  0  0  2
  2 42  1  0  0  2
  6 43  1  0  0  2
  8 44  1  0  0  2
 10 45  1  0  0  2
 12 46  1  0  0  2
 13 47  1  0  0  2
 18 48  1  0  0  2
 21 49  1  0  0  2
 23 50  1  0  0  2
 25 51  1  0  0  2
 26 52  1  0  0  2
 27 53  1  0  0  2
 28 54  1  0  0  2
 29 55  1  0  0  2
 30 56  1  0  0  2
 34 57  1  0  0  2
 35 58  1  0  0  2
 37 59  1  0  0  2
 37 60  1  0  0  2
 38 61  1  0  0  2
 39 62  1  0  0  2
 39 63  1  0  0  2
 40 64  1  0  0  2
 40 65  1  0  0  2
 41 66  1  0  0  2
M  END
> <MOLECULAR_FORMULA>
C27H25N6O7F

> <MOLECULAR_WEIGHT>
564.3

> <NUM_HB_ATOMS>
13 

> <NUM_ROTOR>
6  

> <XLOGP2>
0.03 

$$$$
