3moe_ligand

Created by X-TOOL on Fri Sep 26 17:34:46 2014
 12 11  0  0  0  0  0  0  0  0999 V2000
    0.8050   -2.1970    9.8180  C 0  5  0  1  0  3
    0.4200   -1.0160    9.9320  O 0  0  0  1  0  1
    2.0370   -2.5260    9.9950  O 0  0  0  1  0  1
   -0.1160   -3.1840    9.4940  C 0  0  0  1  0  3
    0.3710   -4.7010    9.2470  C 0  0  0  3  0  4
   -1.3480   -2.9350    9.3130  O 0  0  0  1  0  1
    0.8920   -5.0010    7.5910  S 0  0  0  1  0  4
    1.5000   -6.2730    7.6760  O 0  0  0  1  0  1
    1.8350   -3.9530    7.2490  O 0  0  0  1  0  1
   -0.3240   -5.0280    6.7620  O 0  0  0  1  0  1
   -0.4639   -5.3785    9.4791  H 0  0  0  1  0  1
    1.2132   -4.9123    9.9222  H 0  0  0  1  0  1
  1  2  2  0  0  2
  1  3  2  0  0  2
  1  4  1  0  0  2
  4  5  1  0  0  2
  4  6  2  0  0  2
  5  7  1  0  0  2
  7  8  2  0  0  2
  7  9  2  0  0  2
  7 10  2  0  0  2
  5 11  1  0  0  2
  5 12  1  0  0  2
M  END
> <MOLECULAR_FORMULA>
C3H2O6S

> <MOLECULAR_WEIGHT>
166.1

> <NUM_HB_ATOMS>
6  

> <NUM_ROTOR>
1  

> <XLOGP2>
-1.66

$$$$
