REMARK  24 active torsions:
REMARK  status: ('A' for Active; 'I' for Inactive)
REMARK    1  A    between atoms: C2A_2  and  O2A_8 
REMARK    2  A    between atoms: C3A_3  and  O3A_9 
REMARK    3  A    between atoms: C5A_5  and  C6A_6 
REMARK    4  A    between atoms: C6A_6  and  O6A_11 
REMARK    5  A    between atoms: C2B_13  and  O2B_19 
REMARK    6  A    between atoms: C3B_14  and  O3B_20 
REMARK    7  A    between atoms: C5B_16  and  C6B_17 
REMARK    8  A    between atoms: C6B_17  and  O6B_22 
REMARK    9  A    between atoms: C2C_24  and  O2C_30 
REMARK   10  A    between atoms: C3C_25  and  O3C_31 
REMARK   11  A    between atoms: C5C_27  and  C6C_28 
REMARK   12  A    between atoms: C6C_28  and  O6C_33 
REMARK   13  A    between atoms: C2D_35  and  O2D_41 
REMARK   14  A    between atoms: C3D_36  and  O3D_42 
REMARK   15  A    between atoms: C5D_38  and  C6D_39 
REMARK   16  A    between atoms: C6D_39  and  O6D_44 
REMARK   17  A    between atoms: C2E_46  and  O2E_52 
REMARK   18  A    between atoms: C3E_47  and  O3E_53 
REMARK   19  A    between atoms: C5E_49  and  C6E_50 
REMARK   20  A    between atoms: C6E_50  and  O6E_55 
REMARK   21  A    between atoms: C2F_57  and  O2F_63 
REMARK   22  A    between atoms: C3F_58  and  O3F_64 
REMARK   23  A    between atoms: C5F_60  and  C6F_61 
REMARK   24  A    between atoms: C6F_61  and  O6F_66 
ROOT
ATOM      1  C1A ACX d          16.591   5.920  12.618  0.00  0.00     0.292 C 
ATOM      2  C2A ACX d          15.546   5.896  13.764  0.00  0.00     0.204 C 
ATOM      3  C3A ACX d          16.026   4.954  14.869  0.00  0.00     0.183 C 
ATOM      4  C4A ACX d          16.149   3.557  14.272  0.00  0.00     0.187 C 
ATOM      5  C5A ACX d          17.202   3.605  13.112  0.00  0.00     0.180 C 
ATOM      6  O1A ACX d          17.805   6.360  13.175  0.00  0.00    -0.348 OA
ATOM      7  O5A ACX d          16.795   4.577  12.096  0.00  0.00    -0.348 OA
ATOM      8  C1B ACX d          20.809   9.251  13.153  0.00  0.00     0.292 C 
ATOM      9  C2B ACX d          19.349   9.768  13.152  0.00  0.00     0.204 C 
ATOM     10  C3B ACX d          18.461   8.628  13.632  0.00  0.00     0.183 C 
ATOM     11  C4B ACX d          18.628   7.446  12.692  0.00  0.00     0.187 C 
ATOM     12  C5B ACX d          20.099   6.970  12.662  0.00  0.00     0.180 C 
ATOM     13  O1B ACX d          21.101   8.817  14.474  0.00  0.00    -0.348 OA
ATOM     14  O5B ACX d          20.931   8.089  12.222  0.00  0.00    -0.348 OA
ATOM     15  C1C ACX d          23.805   8.334  17.570  0.00  0.00     0.292 C 
ATOM     16  C2C ACX d          22.601   9.264  17.842  0.00  0.00     0.204 C 
ATOM     17  C3C ACX d          21.563   9.025  16.747  0.00  0.00     0.183 C 
ATOM     18  C4C ACX d          22.114   9.307  15.330  0.00  0.00     0.187 C 
ATOM     19  C5C ACX d          23.414   8.481  15.108  0.00  0.00     0.180 C 
ATOM     20  O1C ACX d          23.377   6.991  17.628  0.00  0.00    -0.348 OA
ATOM     21  O5C ACX d          24.323   8.634  16.242  0.00  0.00    -0.348 OA
ATOM     22  C1D ACX d          24.354   3.140  18.851  0.00  0.00     0.292 C 
ATOM     23  C2D ACX d          24.262   4.213  19.930  0.00  0.00     0.204 C 
ATOM     24  C3D ACX d          23.470   5.395  19.354  0.00  0.00     0.183 C 
ATOM     25  C4D ACX d          24.217   5.957  18.113  0.00  0.00     0.187 C 
ATOM     26  C5D ACX d          24.384   4.862  17.045  0.00  0.00     0.180 C 
ATOM     27  O1D ACX d          23.082   2.728  18.558  0.00  0.00    -0.348 OA
ATOM     28  O5D ACX d          25.010   3.701  17.673  0.00  0.00    -0.348 OA
ATOM     29  C1E ACX d          20.328  -0.360  17.942  0.00  0.00     0.292 C 
ATOM     30  C2E ACX d          20.974  -0.221  19.346  0.00  0.00     0.204 C 
ATOM     31  C3E ACX d          21.535   1.184  19.509  0.00  0.00     0.183 C 
ATOM     32  C4E ACX d          22.564   1.435  18.417  0.00  0.00     0.187 C 
ATOM     33  C5E ACX d          21.908   1.305  17.026  0.00  0.00     0.180 C 
ATOM     34  O1E ACX d          19.242   0.545  17.805  0.00  0.00    -0.348 OA
ATOM     35  O5E ACX d          21.332  -0.070  16.918  0.00  0.00    -0.348 OA
ATOM     36  C1F ACX d          15.871   1.488  15.609  0.00  0.00     0.292 C 
ATOM     37  C2F ACX d          15.696   1.456  17.140  0.00  0.00     0.204 C 
ATOM     38  C3F ACX d          17.097   1.415  17.761  0.00  0.00     0.183 C 
ATOM     39  C4F ACX d          17.905   0.190  17.305  0.00  0.00     0.187 C 
ATOM     40  C5F ACX d          17.932   0.128  15.739  0.00  0.00     0.180 C 
ATOM     41  O1F ACX d          16.596   2.626  15.259  0.00  0.00    -0.348 OA
ATOM     42  O5F ACX d          16.575   0.306  15.219  0.00  0.00    -0.348 OA
ENDROOT
BRANCH   5  43
ATOM     43  C6A ACX d          17.389   2.291  12.417  0.00  0.00     0.198 C 
BRANCH  43  44
ATOM     44  O6A ACX d          16.203   1.909  11.725  0.00  0.00    -0.398 OA
ATOM     45  H10 ACX d          15.989   2.570  11.077  0.00  0.00     0.209 HD
ENDBRANCH  43  44
ENDBRANCH   5  43
BRANCH   3  46
ATOM     46  O3A ACX d          15.075   4.913  15.926  0.00  0.00    -0.390 OA
ATOM     47  H9  ACX d          15.368   4.301  16.591  0.00  0.00     0.210 HD
ENDBRANCH   3  46
BRANCH   2  48
ATOM     48  O2A ACX d          15.393   7.219  14.268  0.00  0.00    -0.388 OA
ATOM     49  H8  ACX d          16.228   7.530  14.598  0.00  0.00     0.210 HD
ENDBRANCH   2  48
BRANCH  37  50
ATOM     50  O2F ACX d          14.996   2.623  17.576  0.00  0.00    -0.388 OA
ATOM     51  H58 ACX d          15.477   3.398  17.310  0.00  0.00     0.210 HD
ENDBRANCH  37  50
BRANCH  38  52
ATOM     52  O3F ACX d          17.045   1.405  19.193  0.00  0.00    -0.390 OA
ATOM     53  H59 ACX d          17.928   1.446  19.541  0.00  0.00     0.210 HD
ENDBRANCH  38  52
BRANCH  40  54
ATOM     54  C6F ACX d          18.417  -1.193  15.170  0.00  0.00     0.198 C 
BRANCH  54  55
ATOM     55  O6F ACX d          18.403  -1.144  13.742  0.00  0.00    -0.398 OA
ATOM     56  H60 ACX d          17.517  -0.979  13.441  0.00  0.00     0.209 HD
ENDBRANCH  54  55
ENDBRANCH  40  54
BRANCH  10  57
ATOM     57  O3B ACX d          17.122   9.077  13.638  0.00  0.00    -0.390 OA
ATOM     58  H19 ACX d          16.554   8.372  13.927  0.00  0.00     0.210 HD
ENDBRANCH  10  57
BRANCH  12  59
ATOM     59  C6B ACX d          20.280   5.819  11.673  0.00  0.00     0.198 C 
BRANCH  59  60
ATOM     60  O6B ACX d          21.594   5.248  11.758  0.00  0.00    -0.398 OA
ATOM     61  H20 ACX d          21.671   4.538  11.132  0.00  0.00     0.209 HD
ENDBRANCH  59  60
ENDBRANCH  12  59
BRANCH   9  62
ATOM     62  O2B ACX d          19.190  10.887  14.051  0.00  0.00    -0.388 OA
ATOM     63  H18 ACX d          19.445  10.626  14.928  0.00  0.00     0.210 HD
ENDBRANCH   9  62
BRANCH  30  64
ATOM     64  O2E ACX d          19.995  -0.464  20.347  0.00  0.00    -0.388 OA
ATOM     65  H48 ACX d          20.394  -0.381  21.205  0.00  0.00     0.210 HD
ENDBRANCH  30  64
BRANCH  31  66
ATOM     66  O3E ACX d          22.164   1.309  20.797  0.00  0.00    -0.390 OA
ATOM     67  H49 ACX d          22.520   2.185  20.891  0.00  0.00     0.210 HD
ENDBRANCH  31  66
BRANCH  33  68
ATOM     68  C6E ACX d          22.911   1.533  15.913  0.00  0.00     0.198 C 
BRANCH  68  69
ATOM     69  O6E ACX d          22.349   1.454  14.607  0.00  0.00    -0.398 OA
ATOM     70  H50 ACX d          23.029   1.606  13.961  0.00  0.00     0.209 HD
ENDBRANCH  68  69
ENDBRANCH  33  68
BRANCH  17  71
ATOM     71  O3C ACX d          20.383   9.839  16.884  0.00  0.00    -0.390 OA
ATOM     72  H29 ACX d          19.753   9.596  16.216  0.00  0.00     0.210 HD
ENDBRANCH  17  71
BRANCH  19  73
ATOM     73  C6C ACX d          24.237   8.853  13.890  0.00  0.00     0.198 C 
BRANCH  73  74
ATOM     74  O6C ACX d          24.873  10.120  14.045  0.00  0.00    -0.398 OA
ATOM     75  H30 ACX d          25.451  10.093  14.798  0.00  0.00     0.209 HD
ENDBRANCH  73  74
ENDBRANCH  19  73
BRANCH  16  76
ATOM     76  O2C ACX d          22.054   8.969  19.143  0.00  0.00    -0.388 OA
ATOM     77  H28 ACX d          21.782   8.059  19.172  0.00  0.00     0.210 HD
ENDBRANCH  16  76
BRANCH  23  78
ATOM     78  O2D ACX d          23.598   3.658  21.076  0.00  0.00    -0.388 OA
ATOM     79  H38 ACX d          22.735   3.353  20.823  0.00  0.00     0.210 HD
ENDBRANCH  23  78
BRANCH  24  80
ATOM     80  O3D ACX d          23.350   6.425  20.342  0.00  0.00    -0.390 OA
ATOM     81  H39 ACX d          22.861   7.154  19.980  0.00  0.00     0.210 HD
ENDBRANCH  24  80
BRANCH  26  82
ATOM     82  C6D ACX d          25.249   5.275  15.867  0.00  0.00     0.198 C 
BRANCH  82  83
ATOM     83  O6D ACX d          24.895   4.490  14.728  0.00  0.00    -0.398 OA
ATOM     84  H40 ACX d          25.434   4.745  13.989  0.00  0.00     0.209 HD
ENDBRANCH  82  83
ENDBRANCH  26  82
TORSDOF 24
