REMARK  2 active torsions:
REMARK  status: ('A' for Active; 'I' for Inactive)
REMARK    1  A    between atoms: C5_8  and  C4_9 
REMARK    2  A    between atoms: C2_12  and  S6_13 
ROOT
ATOM      1  C4  MOL d          31.689  10.605  24.747  0.00  0.00     0.086 A 
ATOM      2  C8  MOL d          30.521  10.943  24.076  0.00  0.00     0.062 A 
ATOM      3  N1  MOL d          31.550  10.050  25.975  0.00  0.00    -0.221 NA
ATOM      4  C2  MOL d          30.325   9.816  26.552  0.00  0.00     0.190 A 
ATOM      5  N3  MOL d          29.209  10.146  25.914  0.00  0.00    -0.204 NA
ATOM      6  C9  MOL d          29.295  10.675  24.681  0.00  0.00     0.144 A 
ATOM      7  N10 MOL d          28.360  11.071  23.855  0.00  0.00    -0.348 N 
ATOM      8  C11 MOL d          28.914  11.582  22.750  0.00  0.00     0.113 A 
ATOM      9  C12 MOL d          30.234  11.533  22.849  0.00  0.00     0.076 A 
ATOM     10  C20 MOL d          31.231  11.969  21.906  0.00  0.00     0.102 C 
ATOM     11  N21 MOL d          32.050  12.270  21.185  0.00  0.00    -0.191 NA
ATOM     12  H13 MOL d          27.348  11.000  24.030  0.00  0.00     0.167 HD
ENDROOT
BRANCH   1  13
ATOM     13  C5  MOL d          32.998  10.835  24.319  0.00  0.00    -0.000 A 
ATOM     14  C17 MOL d          33.556  12.120  24.183  0.00  0.00    -0.049 A 
ATOM     15  C19 MOL d          32.804  13.470  24.361  0.00  0.00     0.049 C 
ATOM     16  C16 MOL d          34.905  12.222  23.869  0.00  0.00     0.014 A 
ATOM     17  C15 MOL d          35.692  11.088  23.676  0.00  0.00    -0.061 A 
ATOM     18  C18 MOL d          37.184  11.222  23.285  0.00  0.00     0.048 C 
ATOM     19  C14 MOL d          35.126   9.834  23.815  0.00  0.00     0.007 A 
ATOM     20  C13 MOL d          33.809   9.708  24.166  0.00  0.00     0.015 A 
ENDBRANCH   1  13
BRANCH   4  21
ATOM     21  S6  MOL d          30.177   9.014  28.120  0.00  0.00    -0.095 SA
ATOM     22  C7  MOL d          31.304   7.596  27.984  0.00  0.00     0.099 C 
ENDBRANCH   4  21
TORSDOF 2
