3g2k_ligand

Created by X-TOOL on Fri Sep 26 17:34:47 2014
 45 48  0  0  0  0  0  0  0  0999 V2000
   36.3060   25.3510   32.4860  C 0  0  0  2  0  3
   37.4310   25.7570   33.2120  C 0  0  0  1  0  3
   37.2850   26.3610   34.4670  C 0  0  0  2  0  3
   38.4180   26.7640   35.1850  C 0  0  0  2  0  3
   39.6960   26.5690   34.6520  C 0  0  0  2  0  3
   39.8400   25.9660   33.3990  C 0  0  0  2  0  3
   38.7100   25.5580   32.6800  C 0  0  0  1  0  3
   38.8520   24.9570   31.4270  C 0  0  0  2  0  3
   37.7260   24.5510   30.7050  C 0  0  0  2  0  3
   36.4430   24.7460   31.2280  C 0  0  0  1  0  3
   35.3000   24.3490   30.5180  C 0  0  0  1  0  3
   35.2110   23.6790   29.3610  C 0  0  0  2  0  3
   34.0380   24.5740   30.8910  N 0  0  0  1  0  2
   33.2660   24.1010   30.0520  N 0  0  0  1  0  2
   33.8990   23.5740   29.1300  N 0  0  0  1  0  3
   33.1660   22.9230   28.0190  C 0  0  0  2  0  4
   33.2140   21.4890   28.2640  O 0  0  0  1  0  2
   32.1550   20.8410   27.5140  C 0  0  0  2  0  4
   32.1120   19.3730   27.9560  C 0  0  0  3  0  4
   33.2760   18.6840   27.4800  O 0  0  0  2  0  2
   32.3680   21.0090   25.9820  C 0  0  0  2  0  4
   31.2010   20.5580   25.2980  O 0  0  0  2  0  2
   32.6630   22.4740   25.5850  C 0  0  0  2  0  4
   33.1710   22.5200   24.2430  O 0  0  0  2  0  2
   33.6580   23.1290   26.5730  C 0  0  0  2  0  4
   33.8240   24.5240   26.3010  O 0  0  0  2  0  2
   35.3165   25.5059   32.9008  H 0  0  0  1  0  1
   36.2959   26.5165   34.8824  H 0  0  0  1  0  1
   38.3038   27.2288   36.1576  H 0  0  0  1  0  1
   40.5715   26.8841   35.2081  H 0  0  0  1  0  1
   40.8293   25.8139   32.9829  H 0  0  0  1  0  1
   39.8417   24.8045   31.0119  H 0  0  0  1  0  1
   37.8474   24.0827   29.7349  H 0  0  0  1  0  1
   36.0270   23.3033   28.7454  H 0  0  0  1  0  1
   32.1250   23.2754   28.0647  H 0  0  0  1  0  1
   31.1954   21.3121   27.7733  H 0  0  0  1  0  1
   31.2114   18.8945   27.5438  H 0  0  0  1  0  1
   32.0833   19.3238   29.0545  H 0  0  0  1  0  1
   34.0543   19.0959   27.8365  H 0  0  0  1  0  1
   33.2242   20.3884   25.6792  H 0  0  0  1  0  1
   31.3255   20.6583   24.3616  H 0  0  0  1  0  1
   31.7206   23.0402   25.6205  H 0  0  0  1  0  1
   33.3505   23.4218   24.0043  H 0  0  0  1  0  1
   34.6350   22.6363   26.4601  H 0  0  0  1  0  1
   34.4387   24.8957   26.9226  H 0  0  0  1  0  1
  1  2  4  0  0  1
  1 10  4  0  0  1
  2  3  4  0  0  1
  2  7  4  0  0  1
  3  4  4  0  0  1
  4  5  4  0  0  1
  5  6  4  0  0  1
  6  7  4  0  0  1
  7  8  4  0  0  1
  8  9  4  0  0  1
  9 10  4  0  0  1
 10 11  1  0  0  2
 11 12  2  0  0  1
 11 13  1  0  0  1
 12 15  1  0  0  1
 13 14  2  0  0  1
 14 15  1  0  0  1
 15 16  1  0  0  2
 16 17  1  0  0  1
 16 25  1  0  0  1
 17 18  1  0  0  1
 18 19  1  0  0  2
 18 21  1  0  0  1
 19 20  1  0  0  2
 21 22  1  0  0  2
 21 23  1  0  0  1
 23 24  1  0  0  2
 23 25  1  0  0  1
 25 26  1  0  0  2
  1 27  1  0  0  2
  3 28  1  0  0  2
  4 29  1  0  0  2
  5 30  1  0  0  2
  6 31  1  0  0  2
  8 32  1  0  0  2
  9 33  1  0  0  2
 12 34  1  0  0  2
 16 35  1  0  0  2
 18 36  1  0  0  2
 19 37  1  0  0  2
 19 38  1  0  0  2
 20 39  1  0  0  2
 21 40  1  0  0  2
 22 41  1  0  0  2
 23 42  1  0  0  2
 24 43  1  0  0  2
 25 44  1  0  0  2
 26 45  1  0  0  2
M  END
> <MOLECULAR_FORMULA>
C18H19N3O5

> <MOLECULAR_WEIGHT>
357.2

> <NUM_HB_ATOMS>
8  

> <NUM_ROTOR>
2  

> <XLOGP2>
0.75 

$$$$
