REMARK  4 active torsions:
REMARK  status: ('A' for Active; 'I' for Inactive)
REMARK    1  A    between atoms: N1_1  and  C11_11 
REMARK    2  A    between atoms: C5_5  and  C8_8 
REMARK    3  A    between atoms: C11_11  and  C12_12 
REMARK    4  A    between atoms: C15_15  and  C18_18 
ROOT
ATOM      1  N1  1EP d         -18.695 -11.441 -60.803  0.00  0.00    -0.264 N 
ATOM      2  C2  1EP d         -20.027 -11.113 -60.591  0.00  0.00     0.326 A 
ATOM      3  O3  1EP d         -20.444 -10.105 -60.048  0.00  0.00    -0.247 OA
ATOM      4  N4  1EP d         -20.771 -12.116 -61.099  0.00  0.00    -0.329 N 
ATOM      5  C5  1EP d         -19.980 -13.189 -61.679  0.00  0.00     0.182 A 
ATOM      6  C6  1EP d         -18.565 -12.652 -61.456  0.00  0.00     0.251 A 
ATOM      7  O7  1EP d         -17.507 -13.170 -61.762  0.00  0.00    -0.271 OA
ATOM      8  H1  1EP d         -21.771 -12.121 -61.079  0.00  0.00     0.165 HD
ENDROOT
BRANCH   1   9
ATOM      9  C11 1EP d         -17.555 -10.603 -60.397  0.00  0.00     0.175 C 
BRANCH   9  10
ATOM     10  C12 1EP d         -17.426  -9.337 -61.212  0.00  0.00    -0.040 A 
ATOM     11  C13 1EP d         -17.017  -8.149 -60.622  0.00  0.00     0.009 A 
ATOM     12  C14 1EP d         -16.914  -6.984 -61.364  0.00  0.00     0.008 A 
ATOM     13  C15 1EP d         -17.223  -6.967 -62.723  0.00  0.00    -0.051 A 
ATOM     14  C16 1EP d         -17.619  -8.165 -63.311  0.00  0.00     0.008 A 
ATOM     15  C17 1EP d         -17.720  -9.329 -62.569  0.00  0.00     0.009 A 
BRANCH  13  16
ATOM     16  C18 1EP d         -17.155  -5.663 -63.537  0.00  0.00    -0.024 C 
ATOM     17  C19 1EP d         -15.718  -5.124 -63.557  0.00  0.00     0.019 C 
ATOM     18  C20 1EP d         -17.572  -5.865 -65.006  0.00  0.00     0.019 C 
ATOM     19  C21 1EP d         -18.093  -4.597 -62.936  0.00  0.00     0.019 C 
ENDBRANCH  13  16
ENDBRANCH   9  10
ENDBRANCH   1   9
BRANCH   5  20
ATOM     20  C8  1EP d         -20.346 -13.435 -63.157  0.00  0.00     0.009 C 
ATOM     21  C9  1EP d         -19.916 -14.816 -63.625  0.00  0.00     0.012 C 
ATOM     22  C10 1EP d         -19.827 -12.337 -64.093  0.00  0.00     0.012 C 
ENDBRANCH   5  20
TORSDOF 4
