REMARK  2 active torsions:
REMARK  status: ('A' for Active; 'I' for Inactive)
REMARK    1  A    between atoms: C4_4  and  N13_13 
REMARK    2  A    between atoms: C9_9  and  N12_12 
ROOT
ATOM      1  C1  OTW d          49.675  23.071  11.923  0.00  0.00     0.049 C 
ATOM      2  C2  OTW d          49.930  21.602  11.874  0.00  0.00    -0.046 A 
ATOM      3  C3  OTW d          48.839  20.768  11.823  0.00  0.00     0.057 A 
ATOM      4  C4  OTW d          49.027  19.410  11.774  0.00  0.00     0.122 A 
ATOM      5  N5  OTW d          50.245  18.859  11.777  0.00  0.00    -0.231 NA
ATOM      6  C6  OTW d          51.308  19.671  11.829  0.00  0.00     0.070 A 
ATOM      7  C7  OTW d          51.201  21.054  11.879  0.00  0.00     0.001 A 
ATOM      8  C8  OTW d          52.330  21.851  11.930  0.00  0.00     0.043 A 
ATOM      9  C9  OTW d          53.587  21.275  11.934  0.00  0.00     0.026 A 
ATOM     10  C10 OTW d          53.703  19.905  11.885  0.00  0.00     0.031 A 
ATOM     11  C11 OTW d          52.575  19.124  11.834  0.00  0.00     0.035 A 
ENDROOT
BRANCH   4  12
ATOM     12  N13 OTW d          47.881  18.609  11.719  0.00  0.00    -0.384 N 
ATOM     13  H10 OTW d          47.971  17.584  11.681  0.00  0.00     0.157 HD
ATOM     14  H11 OTW d          46.948  19.045  11.717  0.00  0.00     0.157 HD
ENDBRANCH   4  12
BRANCH   9  15
ATOM     15  N12 OTW d          54.752  22.045  11.986  0.00  0.00    -0.399 N 
ATOM     16  H8  OTW d          54.689  23.072  12.023  0.00  0.00     0.156 HD
ATOM     17  H9  OTW d          55.674  21.585  11.987  0.00  0.00     0.156 HD
ENDBRANCH   9  15
TORSDOF 2
