REMARK  8 active torsions:
REMARK  status: ('A' for Active; 'I' for Inactive)
REMARK    1  A    between atoms: C5'_7  and  C35_9 
REMARK    2  A    between atoms: C35_9  and  N3_10 
REMARK    3  A    between atoms: C5_13  and  C5A_16 
REMARK    4  A    between atoms: C5A_16  and  C5B_17 
REMARK    5  A    between atoms: C5B_17  and  O5G_18 
REMARK    6  A    between atoms: O5G_18  and  P1_19 
REMARK    7  A    between atoms: P1_19  and  O11_20 
REMARK    8  A    between atoms: O11_20  and  P2_23 
ROOT
ATOM      1  N3  TDP d          22.471 -63.510  -0.077  0.00  0.00    -0.349 N 
ATOM      2  C2  TDP d          21.744 -63.637  -1.172  0.00  0.00     0.141 A 
ATOM      3  S1  TDP d          20.241 -64.295  -0.881  0.00  0.00    -0.087 SA
ATOM      4  C5  TDP d          20.563 -64.423   0.808  0.00  0.00     0.008 A 
ATOM      5  C4  TDP d          21.818 -63.954   1.095  0.00  0.00     0.021 A 
ATOM      6  C4A TDP d          22.486 -63.883   2.439  0.00  0.00     0.069 C 
ENDROOT
BRANCH   1   7
ATOM      7  C35 TDP d          23.883 -62.968  -0.077  0.00  0.00     0.172 C 
BRANCH   7   8
ATOM      8  C5' TDP d          23.956 -61.469   0.118  0.00  0.00     0.023 A 
ATOM      9  C4' TDP d          23.725 -60.480  -0.961  0.00  0.00     0.132 A 
ATOM     10  N3' TDP d          23.825 -59.114  -0.686  0.00  0.00    -0.216 NA
ATOM     11  N4' TDP d          23.432 -60.805  -2.205  0.00  0.00    -0.383 N 
ATOM     12  C2' TDP d          24.132 -58.723   0.555  0.00  0.00     0.124 A 
ATOM     13  N1' TDP d          24.355 -59.614   1.587  0.00  0.00    -0.245 NA
ATOM     14  C2A TDP d          24.242 -57.272   0.874  0.00  0.00     0.093 C 
ATOM     15  C6' TDP d          24.266 -60.972   1.362  0.00  0.00     0.131 A 
ATOM     16  H4  TDP d          23.344 -61.796  -2.471  0.00  0.00     0.157 HD
ATOM     17  H5  TDP d          23.291 -60.068  -2.910  0.00  0.00     0.157 HD
ENDBRANCH   7   8
ENDBRANCH   1   7
BRANCH   4  18
ATOM     18  C5A TDP d          19.549 -64.987   1.759  0.00  0.00     0.075 C 
BRANCH  18  19
ATOM     19  C5B TDP d          18.178 -65.100   1.142  0.00  0.00     0.186 C 
BRANCH  19  20
ATOM     20  O5G TDP d          17.194 -64.880   2.194  0.00  0.00    -0.289 OA
BRANCH  20  21
ATOM     21  P1  TDP d          15.939 -63.873   2.009  0.00  0.00     0.418 P 
ATOM     22  O12 TDP d          15.001 -64.103   3.133  0.00  0.00    -0.624 OA
ATOM     23  O13 TDP d          16.458 -62.492   1.782  0.00  0.00    -0.624 OA
BRANCH  21  24
ATOM     24  O11 TDP d          15.231 -64.373   0.647  0.00  0.00    -0.173 OA
BRANCH  24  25
ATOM     25  P2  TDP d          14.688 -65.775   0.069  0.00  0.00     0.431 P 
ATOM     26  O21 TDP d          13.293 -65.472  -0.561  0.00  0.00    -0.616 OA
ATOM     27  O22 TDP d          15.624 -66.191  -1.009  0.00  0.00    -0.616 OA
ATOM     28  O23 TDP d          14.509 -66.705   1.220  0.00  0.00    -0.616 OA
ENDBRANCH  24  25
ENDBRANCH  21  24
ENDBRANCH  20  21
ENDBRANCH  19  20
ENDBRANCH  18  19
ENDBRANCH   4  18
TORSDOF 8
