REMARK  14 active torsions:
REMARK  status: ('A' for Active; 'I' for Inactive)
REMARK    1  A    between atoms: CP1_1  and  C1_7 
REMARK    2  A    between atoms: C1_7  and  C2_8 
REMARK    3  A    between atoms: C2_8  and  N1_9 
REMARK       I    between atoms: N1_9  and  C3_10 
REMARK    4  A    between atoms: C3_10  and  C4_12 
REMARK    5  A    between atoms: C4_12  and  O2_13 
REMARK    6  A    between atoms: O2_13  and  P_14 
REMARK    7  A    between atoms: P_14  and  C5_17 
REMARK    8  A    between atoms: C5_17  and  C6_18 
REMARK    9  A    between atoms: C5_17  and  N2_25 
REMARK   10  A    between atoms: C6_18  and  CR1_19 
REMARK       I    between atoms: N2_25  and  C7_26 
REMARK   11  A    between atoms: C7_26  and  C8_28 
REMARK   12  A    between atoms: C8_28  and  C9_29 
REMARK   13  A    between atoms: C9_29  and  C10_30 
REMARK   14  A    between atoms: C10_30  and  C11_31 
ROOT
ATOM      1  C5  HAL d          29.539 -46.964  41.852  0.00  0.00     0.209 C 
ENDROOT
BRANCH   1   2
ATOM      2  P   HAL d          29.205 -45.658  41.347  0.00  0.00     0.273 P 
ATOM      3  O3  HAL d          30.476 -44.885  41.281  0.00  0.00    -0.645 OA
ATOM      4  O4  HAL d          28.422 -45.871  40.107  0.00  0.00    -0.645 OA
BRANCH   2   5
ATOM      5  O2  HAL d          28.230 -45.006  42.423  0.00  0.00    -0.301 OA
BRANCH   5   6
ATOM      6  C4  HAL d          27.083 -44.276  42.004  0.00  0.00     0.281 C 
BRANCH   6   7
ATOM      7  C3  HAL d          27.303 -42.766  42.159  0.00  0.00     0.241 C 
ATOM      8  N1  HAL d          28.525 -42.277  41.973  0.00  0.00    -0.359 N 
ATOM      9  H10 HAL d          29.269 -42.909  41.757  0.00  0.00     0.162 HD
ATOM     10  O1  HAL d          26.350 -42.036  42.418  0.00  0.00    -0.271 OA
BRANCH   8  11
ATOM     11  C2  HAL d          28.820 -40.849  42.073  0.00  0.00     0.127 C 
BRANCH  11  12
ATOM     12  C1  HAL d          30.268 -40.492  42.248  0.00  0.00     0.058 C 
BRANCH  12  13
ATOM     13  CP1 HAL d          30.516 -39.001  42.260  0.00  0.00    -0.057 A 
ATOM     14  CP2 HAL d          30.751 -38.308  41.070  0.00  0.00     0.007 A 
ATOM     15  CP3 HAL d          30.883 -36.918  41.061  0.00  0.00     0.001 A 
ATOM     16  CP4 HAL d          30.783 -36.205  42.247  0.00  0.00     0.000 A 
ATOM     17  CP5 HAL d          30.557 -36.881  43.442  0.00  0.00     0.001 A 
ATOM     18  CP6 HAL d          30.426 -38.278  43.443  0.00  0.00     0.007 A 
ENDBRANCH  12  13
ENDBRANCH  11  12
ENDBRANCH   8  11
ENDBRANCH   6   7
ENDBRANCH   5   6
ENDBRANCH   2   5
ENDBRANCH   1   2
BRANCH   1  19
ATOM     19  C6  HAL d          30.637 -47.629  41.032  0.00  0.00     0.077 C 
BRANCH  19  20
ATOM     20  CR1 HAL d          31.015 -48.997  41.528  0.00  0.00    -0.056 A 
ATOM     21  CR2 HAL d          30.302 -50.122  41.120  0.00  0.00     0.007 A 
ATOM     22  CR3 HAL d          30.653 -51.389  41.580  0.00  0.00     0.001 A 
ATOM     23  CR4 HAL d          31.722 -51.539  42.460  0.00  0.00     0.000 A 
ATOM     24  CR5 HAL d          32.435 -50.422  42.874  0.00  0.00     0.001 A 
ATOM     25  CR6 HAL d          32.079 -49.163  42.410  0.00  0.00     0.007 A 
ENDBRANCH  19  20
ENDBRANCH   1  19
BRANCH   1  26
ATOM     26  N2  HAL d          29.975 -46.929  43.239  0.00  0.00    -0.344 N 
ATOM     27  C7  HAL d          29.410 -47.686  44.174  0.00  0.00     0.218 C 
ATOM     28  O5  HAL d          28.473 -48.448  43.942  0.00  0.00    -0.274 OA
ATOM     29  H21 HAL d          30.723 -46.317  43.497  0.00  0.00     0.163 HD
BRANCH  27  30
ATOM     30  C8  HAL d          29.962 -47.560  45.574  0.00  0.00     0.103 C 
BRANCH  30  31
ATOM     31  C9  HAL d          30.550 -48.853  46.075  0.00  0.00     0.020 C 
BRANCH  31  32
ATOM     32  C10 HAL d          29.482 -49.914  46.192  0.00  0.00     0.113 C 
BRANCH  32  33
ATOM     33  C11 HAL d          30.056 -51.296  46.423  0.00  0.00     0.172 C 
ATOM     34  O6  HAL d          30.817 -51.777  45.551  0.00  0.00    -0.648 OA
ATOM     35  O7  HAL d          29.746 -51.898  47.474  0.00  0.00    -0.648 OA
ENDBRANCH  32  33
ENDBRANCH  31  32
ENDBRANCH  30  31
ENDBRANCH  27  30
ENDBRANCH   1  26
TORSDOF 14
