REMARK  5 active torsions:
REMARK  status: ('A' for Active; 'I' for Inactive)
REMARK    1  A    between atoms: CAL_2  and  CAN_4 
REMARK    2  A    between atoms: CAN_4  and  OAK_7 
REMARK    3  A    between atoms: OAK_7  and  CAP_8 
REMARK    4  A    between atoms: CAO_12  and  OAF_13 
REMARK    5  A    between atoms: CAQ_14  and  CAM_15 
ROOT
ATOM      1  CAP MOL d          -3.743   0.594  30.685  0.00  0.00     0.079 C 
ATOM      2  CAI MOL d          -2.531   0.319  31.216  0.00  0.00     0.009 C 
ATOM      3  CAH MOL d          -1.433  -0.190  30.398  0.00  0.00     0.030 C 
ATOM      4  CAJ MOL d          -1.758  -0.704  29.153  0.00  0.00     0.022 C 
ATOM      5  CAO MOL d          -4.124   0.073  29.345  0.00  0.00     0.189 C 
ATOM      6  CAQ MOL d          -2.929  -0.088  28.431  0.00  0.00     0.122 C 
ENDROOT
BRANCH   1   7
ATOM      7  OAK MOL d          -4.817   1.329  31.339  0.00  0.00    -0.306 OA
BRANCH   7   8
ATOM      8  CAN MOL d          -4.642   1.625  32.766  0.00  0.00     0.147 C 
ATOM      9  CAG MOL d          -4.680   2.933  33.105  0.00  0.00     0.013 C 
ATOM     10  CAA MOL d          -4.863   3.919  31.984  0.00  0.00     0.039 C 
BRANCH   8  11
ATOM     11  CAL MOL d          -4.418   0.516  33.732  0.00  0.00     0.234 C 
ATOM     12  OAD MOL d          -4.526  -0.668  33.357  0.00  0.00    -0.642 OA
ATOM     13  OAB MOL d          -3.934   0.758  34.851  0.00  0.00    -0.642 OA
ENDBRANCH   8  11
ENDBRANCH   7   8
ENDBRANCH   1   7
BRANCH   5  14
ATOM     14  OAF MOL d          -5.173   0.792  28.723  0.00  0.00    -0.388 OA
ATOM     15  H11 MOL d          -5.362   0.405  27.876  0.00  0.00     0.210 HD
ENDBRANCH   5  14
BRANCH   6  16
ATOM     16  CAM MOL d          -3.343  -0.547  27.028  0.00  0.00     0.179 C 
ATOM     17  OAC MOL d          -4.498  -0.204  26.591  0.00  0.00    -0.648 OA
ATOM     18  OAE MOL d          -2.491  -1.191  26.389  0.00  0.00    -0.648 OA
ENDBRANCH   6  16
TORSDOF 5
