REMARK  8 active torsions:
REMARK  status: ('A' for Active; 'I' for Inactive)
REMARK    1  A    between atoms: C5'_7  and  C7'_9 
REMARK    2  A    between atoms: C7'_9  and  N3_10 
REMARK    3  A    between atoms: C5_13  and  C6_16 
REMARK    4  A    between atoms: C6_16  and  C7_17 
REMARK    5  A    between atoms: C7_17  and  O7_18 
REMARK    6  A    between atoms: O7_18  and  PA_19 
REMARK    7  A    between atoms: PA_19  and  O3A_22 
REMARK    8  A    between atoms: O3A_22  and  PB_23 
ROOT
ATOM      1  N3  TPP d         -34.233  61.839  22.063  0.00  0.00    -0.349 N 
ATOM      2  C2  TPP d         -34.612  63.097  22.525  0.00  0.00     0.141 A 
ATOM      3  S1  TPP d         -33.333  64.053  22.716  0.00  0.00    -0.087 SA
ATOM      4  C5  TPP d         -32.260  62.944  22.190  0.00  0.00     0.008 A 
ATOM      5  C4  TPP d         -32.860  61.730  21.847  0.00  0.00     0.021 A 
ATOM      6  CM4 TPP d         -32.099  60.532  21.376  0.00  0.00     0.069 C 
ENDROOT
BRANCH   1   7
ATOM      7  C7' TPP d         -35.261  60.858  21.843  0.00  0.00     0.172 C 
BRANCH   7   8
ATOM      8  C5' TPP d         -35.693  60.936  20.395  0.00  0.00     0.023 A 
ATOM      9  C4' TPP d         -36.465  61.953  19.853  0.00  0.00     0.132 A 
ATOM     10  N3' TPP d         -36.784  61.867  18.518  0.00  0.00    -0.216 NA
ATOM     11  N4' TPP d         -36.929  62.979  20.549  0.00  0.00    -0.383 N 
ATOM     12  C2' TPP d         -36.363  60.808  17.707  0.00  0.00     0.124 A 
ATOM     13  N1' TPP d         -35.591  59.834  18.273  0.00  0.00    -0.245 NA
ATOM     14  CM2 TPP d         -36.710  60.703  16.226  0.00  0.00     0.093 C 
ATOM     15  C6' TPP d         -35.274  59.910  19.586  0.00  0.00     0.131 A 
ATOM     16  H4  TPP d         -36.704  63.066  21.550  0.00  0.00     0.157 HD
ATOM     17  H5  TPP d         -37.515  63.690  20.089  0.00  0.00     0.157 HD
ENDBRANCH   7   8
ENDBRANCH   1   7
BRANCH   4  18
ATOM     18  C6  TPP d         -30.824  63.390  22.141  0.00  0.00     0.075 C 
BRANCH  18  19
ATOM     19  C7  TPP d         -30.701  64.420  21.005  0.00  0.00     0.186 C 
BRANCH  19  20
ATOM     20  O7  TPP d         -29.564  65.228  21.237  0.00  0.00    -0.289 OA
BRANCH  20  21
ATOM     21  PA  TPP d         -28.932  66.424  20.361  0.00  0.00     0.418 P 
ATOM     22  O1A TPP d         -29.511  66.562  18.965  0.00  0.00    -0.624 OA
ATOM     23  O2A TPP d         -27.446  66.352  20.368  0.00  0.00    -0.624 OA
BRANCH  21  24
ATOM     24  O3A TPP d         -29.546  67.749  21.043  0.00  0.00    -0.173 OA
BRANCH  24  25
ATOM     25  PB  TPP d         -29.277  68.287  22.554  0.00  0.00     0.431 P 
ATOM     26  O1B TPP d         -27.841  67.989  22.862  0.00  0.00    -0.616 OA
ATOM     27  O2B TPP d         -29.403  69.795  22.456  0.00  0.00    -0.616 OA
ATOM     28  O3B TPP d         -30.216  67.714  23.559  0.00  0.00    -0.616 OA
ENDBRANCH  24  25
ENDBRANCH  21  24
ENDBRANCH  20  21
ENDBRANCH  19  20
ENDBRANCH  18  19
ENDBRANCH   4  18
TORSDOF 8
