REMARK  3 active torsions:
REMARK  status: ('A' for Active; 'I' for Inactive)
REMARK    1  A    between atoms: C6_6  and  NAD_10 
REMARK    2  A    between atoms: CAR_19  and  CAQ_18 
REMARK    3  A    between atoms: NAW_22  and  CAX_23 
ROOT
ATOM      1  N1  0J9 d          83.823  49.725 -38.261  0.00  0.00    -0.224 NA
ATOM      2  C2  0J9 d          82.667  50.412 -37.946  0.00  0.00     0.237 A 
ATOM      3  N3  0J9 d          81.867  49.865 -36.952  0.00  0.00    -0.222 NA
ATOM      4  C4  0J9 d          82.229  48.720 -36.347  0.00  0.00     0.164 A 
ATOM      5  C5  0J9 d          83.363  48.055 -36.653  0.00  0.00     0.088 A 
ATOM      6  C6  0J9 d          84.141  48.588 -37.634  0.00  0.00     0.139 A 
ATOM      7  NAO 0J9 d          82.235  47.025 -35.156  0.00  0.00    -0.168 NA
ATOM      8  CAR 0J9 d          83.407  47.012 -35.783  0.00  0.00     0.106 C 
ATOM      9  NAW 0J9 d          81.602  48.061 -35.378  0.00  0.00    -0.242 N 
ENDROOT
BRANCH   8  10
ATOM     10  CAQ 0J9 d          84.262  45.945 -35.712  0.00  0.00     0.006 C 
ATOM     11  CAI 0J9 d          85.616  46.139 -35.944  0.00  0.00     0.015 C 
ATOM     12  CAG 0J9 d          86.574  45.135 -35.884  0.00  0.00     0.002 C 
ATOM     13  CAK 0J9 d          86.161  43.824 -35.758  0.00  0.00     0.012 C 
ATOM     14  CAS 0J9 d          84.807  43.558 -35.625  0.00  0.00    -0.025 A 
ATOM     15  CAJ 0J9 d          84.426  42.230 -35.490  0.00  0.00     0.012 A 
ATOM     16  CAT 0J9 d          83.852  44.590 -35.628  0.00  0.00    -0.013 A 
ATOM     17  CAE 0J9 d          83.086  41.892 -35.359  0.00  0.00     0.001 A 
ATOM     18  CAF 0J9 d          82.125  42.897 -35.355  0.00  0.00     0.001 A 
ATOM     19  CAL 0J9 d          82.511  44.227 -35.493  0.00  0.00     0.013 A 
ENDBRANCH   8  10
BRANCH   6  20
ATOM     20  NAD 0J9 d          85.264  47.998 -38.010  0.00  0.00    -0.383 N 
ATOM     21  H11 0J9 d          85.559  47.119 -37.561  0.00  0.00     0.157 HD
ATOM     22  H12 0J9 d          85.843  48.418 -38.751  0.00  0.00     0.157 HD
ENDBRANCH   6  20
BRANCH   9  23
ATOM     23  CAX 0J9 d          80.304  48.429 -34.753  0.00  0.00     0.047 C 
ATOM     24  CAA 0J9 d          79.205  48.529 -35.827  0.00  0.00     0.040 C 
ATOM     25  CAB 0J9 d          79.892  47.327 -33.758  0.00  0.00     0.040 C 
ATOM     26  CAC 0J9 d          80.442  49.763 -34.011  0.00  0.00     0.040 C 
ENDBRANCH   9  23
TORSDOF 3
