4fut_ligand

Created by X-TOOL on Fri Sep 26 17:34:54 2014
 43 45  0  0  0  0  0  0  0  0999 V2000
   41.1380  -50.4030   -4.5610  P 0  0  0  1  0  4
   41.5120  -51.8620   -4.7270  O 0  0  0  1  0  1
   42.1690  -49.5530   -3.8660  O 0  0  0  1  0  1
   40.7270  -49.7560   -5.8540  O 0  0  0  1  0  1
   38.3210  -50.6930   -3.9760  P 0  0  0  1  0  4
   38.2620  -51.1420   -5.4210  O 0  0  0  1  0  1
   37.5640  -51.4860   -2.9620  O 0  0  0  1  0  1
   39.8630  -50.4480   -3.5600  O 0  0  0  1  0  2
   36.2620  -48.6620   -4.1620  P 0  0  0  1  0  4
   36.3220  -47.7100   -5.3330  O 0  0  0  1  0  1
   35.6440  -48.1920   -2.8660  O 0  0  0  1  0  1
   37.7770  -49.1580   -3.8860  O 0  0  0  1  0  2
   35.4250  -49.9570   -4.5560  O 0  0  0  1  0  2
   34.8190  -50.1020   -5.8410  C 0  0  0  3  0  4
   34.7200  -51.6070   -6.0480  C 0  0  0  2  0  4
   33.7980  -52.1530   -5.1160  O 0  0  0  1  0  2
   34.1810  -52.0050   -7.4090  C 0  0  0  2  0  4
   35.2490  -52.0040   -8.3540  O 0  0  0  2  0  2
   33.5670  -53.3550   -7.1240  C 0  0  0  2  0  4
   34.5630  -54.3870   -7.0940  O 0  0  0  2  0  2
   33.0560  -53.2140   -5.7040  C 0  0  0  2  0  4
   31.6160  -52.8600   -5.7030  N 0  0  0  1  0  3
   31.0990  -51.6230   -5.5430  C 0  0  0  2  0  3
   29.7490  -51.6500   -5.5910  N 0  0  0  1  0  2
   29.3790  -52.9290   -5.7930  C 0  0  0  1  0  3
   28.1060  -53.6580   -5.9550  C 0  0  0  1  0  3
   26.9050  -53.0260   -5.8930  N 0  0  0  3  0  3
   28.1740  -54.9930   -6.1540  N 0  0  0  1  0  2
   29.3550  -55.6410   -6.2080  C 0  0  0  2  0  3
   30.5440  -55.0440   -6.0830  N 0  0  0  1  0  2
   30.6190  -53.7170   -5.8670  C 0  0  0  1  0  3
   35.4450  -49.6427   -6.6202  H 0  0  0  1  0  1
   33.8203  -49.6412   -5.8541  H 0  0  0  1  0  1
   35.7175  -52.0479   -5.9046  H 0  0  0  1  0  1
   33.4060  -51.3043   -7.7531  H 0  0  0  1  0  1
   35.9138  -52.6247   -8.0795  H 0  0  0  1  0  1
   32.7684  -53.5971   -7.8406  H 0  0  0  1  0  1
   35.0020  -54.4264   -7.9356  H 0  0  0  1  0  1
   33.2099  -54.1500   -5.1470  H 0  0  0  1  0  1
   31.6922  -50.7219   -5.3947  H 0  0  0  1  0  1
   26.0339  -53.5629   -6.0101  H 0  0  0  1  0  1
   26.8656  -52.0099   -5.7289  H 0  0  0  1  0  1
   29.3391  -56.7138   -6.3625  H 0  0  0  1  0  1
  1  2  2  0  0  2
  1  3  2  0  0  2
  1  4  2  0  0  2
  8  1  1  0  0  2
  5  6  2  0  0  2
  5  7  2  0  0  2
  5  8  1  0  0  2
 12  5  1  0  0  2
  9 10  2  0  0  2
  9 11  2  0  0  2
  9 12  1  0  0  2
  9 13  1  0  0  2
 13 14  1  0  0  2
 14 15  1  0  0  2
 15 16  1  0  0  1
 15 17  1  0  0  1
 16 21  1  0  0  1
 17 18  1  0  0  2
 17 19  1  0  0  1
 19 20  1  0  0  2
 19 21  1  0  0  1
 21 22  1  0  0  2
 22 23  1  0  0  1
 22 31  1  0  0  1
 23 24  2  0  0  1
 24 25  1  0  0  1
 25 26  4  0  0  1
 25 31  4  0  0  1
 26 27  1  0  0  2
 26 28  4  0  0  1
 28 29  4  0  0  1
 29 30  4  0  0  1
 30 31  4  0  0  1
 14 32  1  0  0  2
 14 33  1  0  0  2
 15 34  1  0  0  2
 17 35  1  0  0  2
 18 36  1  0  0  2
 19 37  1  0  0  2
 20 38  1  0  0  2
 21 39  1  0  0  2
 23 40  1  0  0  2
 27 41  1  0  0  2
 27 42  1  0  0  2
 29 43  1  0  0  2
M  END
> <MOLECULAR_FORMULA>
C10H12N5O13P3

> <MOLECULAR_WEIGHT>
503.1

> <NUM_HB_ATOMS>
18 

> <NUM_ROTOR>
7  

> <XLOGP2>
-3.94

$$$$
