REMARK  5 active torsions:
REMARK  status: ('A' for Active; 'I' for Inactive)
REMARK    1  A    between atoms: CAH_3  and  CAM_4 
REMARK    2  A    between atoms: CAR_9  and  CAL_10 
REMARK    3  A    between atoms: CAR_9  and  OAF_13 
REMARK    4  A    between atoms: CAP_15  and  OAD_16 
REMARK    5  A    between atoms: CAQ_17  and  OAE_18 
ROOT
ATOM      1  CAM XD9 d         -25.104  48.211  15.426  0.00  0.00     0.005 A 
ATOM      2  CAI XD9 d         -25.332  48.255  14.087  0.00  0.00     0.030 A 
ATOM      3  SAK XD9 d         -23.405  47.992  15.688  0.00  0.00    -0.091 SA
ATOM      4  CAO XD9 d         -23.049  48.031  14.018  0.00  0.00     0.024 A 
ATOM      5  CAN XD9 d         -24.225  48.172  13.278  0.00  0.00     0.004 A 
ATOM      6  CAR XD9 d         -24.150  48.212  11.719  0.00  0.00     0.176 C 
ATOM      7  CAJ XD9 d         -22.779  48.724  11.206  0.00  0.00     0.089 C 
ATOM      8  CAP XD9 d         -21.613  47.928  11.875  0.00  0.00     0.155 C 
ATOM      9  CAQ XD9 d         -21.653  47.942  13.434  0.00  0.00     0.187 C 
ENDROOT
BRANCH   6  10
ATOM     10  CAL XD9 d         -25.312  49.105  11.269  0.00  0.00     0.214 C 
ATOM     11  OAC XD9 d         -25.132  50.339  11.016  0.00  0.00    -0.645 OA
ATOM     12  OAB XD9 d         -26.417  48.514  11.221  0.00  0.00    -0.645 OA
ENDBRANCH   6  10
BRANCH   6  13
ATOM     13  OAF XD9 d         -24.351  46.946  11.144  0.00  0.00    -0.374 OA
ATOM     14  H7  XD9 d         -25.180  46.592  11.443  0.00  0.00     0.211 HD
ENDBRANCH   6  13
BRANCH   8  15
ATOM     15  OAD XD9 d         -20.362  48.535  11.531  0.00  0.00    -0.393 OA
ATOM     16  H11 XD9 d         -19.654  48.050  11.938  0.00  0.00     0.210 HD
ENDBRANCH   8  15
BRANCH   1  17
ATOM     17  CAH XD9 d         -26.081  48.281  16.424  0.00  0.00     0.014 C 
ATOM     18  CAG XD9 d         -25.772  48.253  17.782  0.00  0.00    -0.030 C 
ATOM     19  CAA XD9 d         -26.814  48.358  18.924  0.00  0.00     0.036 C 
ENDBRANCH   1  17
BRANCH   9  20
ATOM     20  OAE XD9 d         -20.867  46.913  14.178  0.00  0.00    -0.388 OA
ATOM     21  H13 XD9 d         -20.984  47.041  15.112  0.00  0.00     0.210 HD
ENDBRANCH   9  20
TORSDOF 5
