REMARK  12 active torsions:
REMARK  status: ('A' for Active; 'I' for Inactive)
REMARK    1  A    between atoms: C1_1  and  O11_7 
REMARK    2  A    between atoms: C2_2  and  O12_12 
REMARK    3  A    between atoms: C3_3  and  O13_17 
REMARK    4  A    between atoms: C4_4  and  O14_22 
REMARK    5  A    between atoms: C5_5  and  O15_27 
REMARK    6  A    between atoms: C6_6  and  O16_32 
REMARK    7  A    between atoms: O11_7  and  P1_8 
REMARK    8  A    between atoms: O12_12  and  P2_13 
REMARK    9  A    between atoms: O13_17  and  P3_18 
REMARK   10  A    between atoms: O14_22  and  P4_23 
REMARK   11  A    between atoms: O15_27  and  P5_28 
REMARK   12  A    between atoms: O16_32  and  P6_33 
ROOT
ATOM      1  C1  IHP d         -49.031  -2.385   4.038  0.00  0.00     0.200 C 
ATOM      2  C2  IHP d         -47.750  -2.420   4.856  0.00  0.00     0.200 C 
ATOM      3  C3  IHP d         -46.910  -3.617   4.439  0.00  0.00     0.200 C 
ATOM      4  C4  IHP d         -46.593  -3.590   2.933  0.00  0.00     0.200 C 
ATOM      5  C5  IHP d         -47.915  -3.564   2.159  0.00  0.00     0.200 C 
ATOM      6  C6  IHP d         -48.709  -2.320   2.550  0.00  0.00     0.200 C 
ENDROOT
BRANCH   1   7
ATOM      7  O11 IHP d         -49.778  -1.237   4.395  0.00  0.00    -0.272 OA
BRANCH   7   8
ATOM      8  P1  IHP d         -51.069  -1.307   5.370  0.00  0.00     0.422 P 
ATOM      9  O21 IHP d         -51.649   0.070   5.162  0.00  0.00    -0.617 OA
ATOM     10  O31 IHP d         -50.494  -1.566   6.727  0.00  0.00    -0.617 OA
ATOM     11  O41 IHP d         -51.924  -2.433   4.863  0.00  0.00    -0.617 OA
ENDBRANCH   7   8
ENDBRANCH   1   7
BRANCH   2  12
ATOM     12  O12 IHP d         -46.997  -1.240   4.620  0.00  0.00    -0.272 OA
BRANCH  12  13
ATOM     13  P2  IHP d         -46.762  -0.124   5.761  0.00  0.00     0.422 P 
ATOM     14  O22 IHP d         -46.565   1.114   4.941  0.00  0.00    -0.617 OA
ATOM     15  O32 IHP d         -48.049  -0.150   6.544  0.00  0.00    -0.617 OA
ATOM     16  O42 IHP d         -45.584  -0.579   6.581  0.00  0.00    -0.617 OA
ENDBRANCH  12  13
ENDBRANCH   2  12
BRANCH   6  17
ATOM     17  O16 IHP d         -49.920  -2.203   1.798  0.00  0.00    -0.272 OA
BRANCH  17  18
ATOM     18  P6  IHP d         -50.214  -0.949   0.819  0.00  0.00     0.422 P 
ATOM     19  O26 IHP d         -49.723  -1.330  -0.552  0.00  0.00    -0.617 OA
ATOM     20  O36 IHP d         -51.722  -0.814   0.879  0.00  0.00    -0.617 OA
ATOM     21  O46 IHP d         -49.443   0.212   1.392  0.00  0.00    -0.617 OA
ENDBRANCH  17  18
ENDBRANCH   6  17
BRANCH   3  22
ATOM     22  O13 IHP d         -45.734  -3.646   5.234  0.00  0.00    -0.272 OA
BRANCH  22  23
ATOM     23  P3  IHP d         -45.310  -4.980   6.021  0.00  0.00     0.422 P 
ATOM     24  O23 IHP d         -43.901  -5.254   5.540  0.00  0.00    -0.617 OA
ATOM     25  O33 IHP d         -46.353  -5.989   5.582  0.00  0.00    -0.617 OA
ATOM     26  O43 IHP d         -45.330  -4.588   7.476  0.00  0.00    -0.617 OA
ENDBRANCH  22  23
ENDBRANCH   3  22
BRANCH   5  27
ATOM     27  O15 IHP d         -47.730  -3.557   0.745  0.00  0.00    -0.272 OA
BRANCH  27  28
ATOM     28  P5  IHP d         -48.470  -4.597  -0.231  0.00  0.00     0.422 P 
ATOM     29  O25 IHP d         -48.933  -5.698   0.685  0.00  0.00    -0.617 OA
ATOM     30  O35 IHP d         -49.601  -3.883  -0.917  0.00  0.00    -0.617 OA
ATOM     31  O45 IHP d         -47.337  -5.009  -1.148  0.00  0.00    -0.617 OA
ENDBRANCH  27  28
ENDBRANCH   5  27
BRANCH   4  32
ATOM     32  O14 IHP d         -45.811  -4.740   2.615  0.00  0.00    -0.272 OA
BRANCH  32  33
ATOM     33  P4  IHP d         -44.281  -4.657   2.106  0.00  0.00     0.422 P 
ATOM     34  O24 IHP d         -43.493  -4.203   3.306  0.00  0.00    -0.617 OA
ATOM     35  O34 IHP d         -43.955  -6.063   1.645  0.00  0.00    -0.617 OA
ATOM     36  O44 IHP d         -44.327  -3.696   0.925  0.00  0.00    -0.617 OA
ENDBRANCH  32  33
ENDBRANCH   4  32
TORSDOF 12
