REMARK  3 active torsions:
REMARK  status: ('A' for Active; 'I' for Inactive)
REMARK    1  A    between atoms: C8_11  and  N2_7 
REMARK    2  A    between atoms: C10_13  and  O1_15 
REMARK    3  A    between atoms: O1_15  and  C11_16 
ROOT
ATOM      1  C6  09S d          56.357  21.856 103.290  0.00  0.00     0.136 A 
ATOM      2  N3  09S d          55.280  21.085 103.574  0.00  0.00    -0.248 NA
ATOM      3  C7  09S d          54.057  21.525 103.236  0.00  0.00     0.147 A 
ATOM      4  C8  09S d          53.831  22.771 102.590  0.00  0.00     0.050 A 
ATOM      5  C9  09S d          54.970  23.564 102.311  0.00  0.00     0.070 A 
ATOM      6  C10 09S d          56.270  23.122 102.660  0.00  0.00     0.106 A 
ATOM      7 BR1  09S d          57.894  21.218 103.761  0.00  0.00    -0.026 Br
ENDROOT
BRANCH   4   8
ATOM      8  N2  09S d          52.573  23.179 102.270  0.00  0.00    -0.378 N 
ATOM      9  C1  09S d          51.535  22.143 102.084  0.00  0.00     0.150 C 
ATOM     10  C2  09S d          50.536  22.430 100.962  0.00  0.00     0.252 C 
ATOM     11  N1  09S d          51.258  22.817  99.734  0.00  0.00    -0.074 N 
ATOM     12  C3  09S d          51.398  24.286  99.565  0.00  0.00     0.234 C 
ATOM     13  H5  09S d          50.756  22.451  98.940  0.00  0.00     0.277 HD
ATOM     14  H6  09S d          52.180  22.410  99.765  0.00  0.00     0.277 HD
ATOM     15  C4  09S d          52.500  24.870 100.462  0.00  0.00     0.047 C 
ATOM     16  C5  09S d          52.275  24.589 101.968  0.00  0.00     0.124 C 
ENDBRANCH   4   8
BRANCH   6  17
ATOM     17  O1  09S d          57.432  23.838 102.394  0.00  0.00    -0.348 OA
BRANCH  17  18
ATOM     18  C11 09S d          57.270  25.135 101.856  0.00  0.00     0.171 C 
ATOM     19  C12 09S d          58.566  25.774 101.359  0.00  0.00     0.034 C 
ENDBRANCH  17  18
ENDBRANCH   6  17
TORSDOF 3
