REMARK  12 active torsions:
REMARK  status: ('A' for Active; 'I' for Inactive)
REMARK    1  A    between atoms: C1_1  and  OA1_23 
REMARK       I    between atoms: N2_30  and  C1_1 
REMARK    2  A    between atoms: CB1_2  and  CG1_3 
REMARK    3  A    between atoms: OA1_23  and  CB1_2 
REMARK    4  A    between atoms: C2_9  and  CA2_10 
REMARK       I    between atoms: N3_31  and  C2_9 
REMARK    5  A    between atoms: CA2_10  and  N2_30 
REMARK    6  A    between atoms: P3_32  and  CA3_12 
REMARK    7  A    between atoms: CA3_12  and  N3_31 
REMARK    8  A    between atoms: CA4_14  and  C4_13 
REMARK    9  A    between atoms: CA4_14  and  CB4_15 
REMARK   10  A    between atoms: OP33_27  and  CA4_14 
REMARK   11  A    between atoms: CB4_15  and  CG4_16 
REMARK   12  A    between atoms: OP33_27  and  P3_32 
ROOT
ATOM      1  C2  AGF d          44.957  19.140  38.936  0.00  0.00     0.240 C 
ATOM      2  O2  AGF d          43.856  18.948  39.344  0.00  0.00    -0.271 OA
ATOM      3  N3  AGF d          45.403  20.433  38.803  0.00  0.00    -0.347 N 
ATOM      4  H23 AGF d          46.303  20.584  38.395  0.00  0.00     0.163 HD
ENDROOT
BRANCH   3   5
ATOM      5  CA3 AGF d          44.669  21.538  39.205  0.00  0.00     0.258 C 
BRANCH   5   6
ATOM      6  P3  AGF d          44.030  22.520  38.000  0.00  0.00     0.268 P 
ATOM      7  OP3 AGF d          43.818  23.844  38.785  0.00  0.00    -0.645 OA
ATOM      8  OP3 AGF d          42.804  21.851  37.332  0.00  0.00    -0.645 OA
BRANCH   6   9
ATOM      9  OP3 AGF d          45.218  22.916  36.932  0.00  0.00    -0.294 OA
BRANCH   9  10
ATOM     10  CA4 AGF d          44.832  23.522  35.668  0.00  0.00     0.237 C 
BRANCH  10  11
ATOM     11  C4  AGF d          44.607  22.351  34.864  0.00  0.00     0.204 C 
ATOM     12  O42 AGF d          43.636  22.411  33.986  0.00  0.00    -0.646 OA
ATOM     13  O41 AGF d          45.263  21.364  34.984  0.00  0.00    -0.646 OA
ENDBRANCH  10  11
BRANCH  10  14
ATOM     14  CB4 AGF d          45.991  24.160  34.906  0.00  0.00     0.082 C 
BRANCH  14  15
ATOM     15  CG4 AGF d          45.709  24.821  33.660  0.00  0.00    -0.055 A 
ATOM     16  CD4 AGF d          45.119  26.036  33.643  0.00  0.00     0.007 A 
ATOM     17  CE4 AGF d          44.853  26.656  32.472  0.00  0.00     0.001 A 
ATOM     18  CZ4 AGF d          45.150  26.040  31.302  0.00  0.00     0.000 A 
ATOM     19  CE4 AGF d          45.729  24.819  31.324  0.00  0.00     0.001 A 
ATOM     20  CD4 AGF d          46.003  24.209  32.494  0.00  0.00     0.007 A 
ENDBRANCH  14  15
ENDBRANCH  10  14
ENDBRANCH   9  10
ENDBRANCH   6   9
ENDBRANCH   5   6
ENDBRANCH   3   5
BRANCH   1  21
ATOM     21  CA2 AGF d          45.860  18.114  38.459  0.00  0.00     0.174 C 
ATOM     22  CB2 AGF d          45.315  17.640  37.106  0.00  0.00     0.042 C 
BRANCH  21  23
ATOM     23  N2  AGF d          46.119  17.023  39.340  0.00  0.00    -0.324 N 
ATOM     24  C1  AGF d          46.710  17.113  40.529  0.00  0.00     0.361 C 
ATOM     25  O1  AGF d          46.761  16.153  41.235  0.00  0.00    -0.238 OA
ATOM     26  H22 AGF d          45.832  16.113  39.039  0.00  0.00     0.165 HD
BRANCH  24  27
ATOM     27  OA1 AGF d          47.209  18.274  40.852  0.00  0.00    -0.299 OA
BRANCH  27  28
ATOM     28  CB1 AGF d          47.900  18.449  42.059  0.00  0.00     0.219 C 
BRANCH  28  29
ATOM     29  CG1 AGF d          48.550  19.719  42.095  0.00  0.00    -0.034 A 
ATOM     30  CD1 AGF d          48.070  20.714  42.868  0.00  0.00     0.009 A 
ATOM     31  CE1 AGF d          48.681  21.917  42.877  0.00  0.00     0.001 A 
ATOM     32  CZ1 AGF d          49.767  22.127  42.103  0.00  0.00     0.000 A 
ATOM     33  CE1 AGF d          50.243  21.127  41.334  0.00  0.00     0.001 A 
ATOM     34  CD1 AGF d          49.635  19.925  41.326  0.00  0.00     0.009 A 
ENDBRANCH  28  29
ENDBRANCH  27  28
ENDBRANCH  24  27
ENDBRANCH  21  23
ENDBRANCH   1  21
TORSDOF 12
