REMARK  8 active torsions:
REMARK  status: ('A' for Active; 'I' for Inactive)
REMARK    1  A    between atoms: N1_1  and  C2_2 
REMARK       I    between atoms: N1_1  and  C6_6 
REMARK    2  A    between atoms: N1_1  and  C23_23 
REMARK    3  A    between atoms: C2_2  and  C3_3 
REMARK    4  A    between atoms: C2_2  and  C16_16 
REMARK    5  A    between atoms: C6_6  and  C8_8 
REMARK    6  A    between atoms: C16_16  and  C17_17 
REMARK    7  A    between atoms: C23_23  and  C24_24 
REMARK    8  A    between atoms: C28_28  and  C30_30 
ROOT
ATOM      1  N1  MOL d           7.318  33.260  77.860  0.00  0.00    -0.329 N 
ATOM      2  C6  MOL d           7.250  34.630  78.246  0.00  0.00     0.256 C 
ATOM      3  O7  MOL d           6.881  34.981  79.355  0.00  0.00    -0.267 OA
ENDROOT
BRANCH   1   4
ATOM      4  C2  MOL d           7.146  32.821  76.393  0.00  0.00     0.193 C 
BRANCH   4   5
ATOM      5  C3  MOL d           5.681  32.986  75.833  0.00  0.00     0.197 C 
ATOM      6  O4  MOL d           5.403  32.525  74.695  0.00  0.00    -0.646 OA
ATOM      7  O5  MOL d           4.839  33.588  76.527  0.00  0.00    -0.646 OA
ENDBRANCH   4   5
BRANCH   4   8
ATOM      8  C16 MOL d           7.679  31.364  76.120  0.00  0.00     0.074 C 
BRANCH   8   9
ATOM      9  C17 MOL d           9.188  31.164  76.027  0.00  0.00    -0.056 A 
ATOM     10  C18 MOL d           9.715  29.836  75.846  0.00  0.00     0.007 A 
ATOM     11  C19 MOL d          11.114  29.604  75.762  0.00  0.00     0.001 A 
ATOM     12  C20 MOL d          12.013  30.704  75.861  0.00  0.00     0.000 A 
ATOM     13  C21 MOL d          11.510  32.026  76.040  0.00  0.00     0.001 A 
ATOM     14  C22 MOL d          10.110  32.252  76.121  0.00  0.00     0.007 A 
ENDBRANCH   8   9
ENDBRANCH   4   8
ENDBRANCH   1   4
BRANCH   1  15
ATOM     15  C23 MOL d           7.549  32.175  78.924  0.00  0.00     0.165 C 
BRANCH  15  16
ATOM     16  C24 MOL d           8.906  32.207  79.698  0.00  0.00    -0.039 A 
ATOM     17  C25 MOL d           9.306  33.347  80.475  0.00  0.00     0.009 A 
ATOM     18  C26 MOL d          10.541  33.388  81.182  0.00  0.00     0.001 A 
ATOM     19  C27 MOL d          11.439  32.302  81.155  0.00  0.00     0.016 A 
ATOM     20  C28 MOL d          11.068  31.156  80.400  0.00  0.00     0.048 A 
ATOM     21  C29 MOL d           9.816  31.102  79.676  0.00  0.00     0.025 A 
BRANCH  20  22
ATOM     22  C30 MOL d          11.998  29.928  80.329  0.00  0.00     0.417 C 
ATOM     23  F31 MOL d          12.964  30.132  79.420  0.00  0.00    -0.166 F 
ATOM     24  F32 MOL d          11.323  28.813  79.977  0.00  0.00    -0.166 F 
ATOM     25  F33 MOL d          12.580  29.693  81.515  0.00  0.00    -0.166 F 
ENDBRANCH  20  22
ENDBRANCH  15  16
ENDBRANCH   1  15
BRANCH   2  26
ATOM     26  C8  MOL d           7.666  35.754  77.302  0.00  0.00     0.054 A 
ATOM     27  C9  MOL d           6.633  36.472  76.638  0.00  0.00     0.020 A 
ATOM     28  C10 MOL d           6.964  37.531  75.761  0.00  0.00     0.025 A 
ATOM     29  C11 MOL d           8.329  37.870  75.548  0.00  0.00     0.035 A 
ATOM     30  C12 MOL d           9.360  37.156  76.212  0.00  0.00     0.048 A 
ATOM     31 CL14 MOL d           8.734  39.151  74.480  0.00  0.00    -0.084 Cl
ATOM     32  C13 MOL d           9.040  36.100  77.089  0.00  0.00     0.051 A 
ATOM     33 CL15 MOL d          10.332  35.267  77.884  0.00  0.00    -0.083 Cl
ENDBRANCH   2  26
TORSDOF 8
