REMARK  5 active torsions:
REMARK  status: ('A' for Active; 'I' for Inactive)
REMARK    1  A    between atoms: C_7  and  N_8 
REMARK    2  A    between atoms: C5_14  and  N3_16 
REMARK    3  A    between atoms: N3_16  and  C6_17 
REMARK    4  A    between atoms: C6_17  and  C7_18 
REMARK    5  A    between atoms: C7_18  and  N4_19 
ROOT
ATOM      1  O   MOL d         108.385  18.352  24.194  0.00  0.00    -0.267 OA
ATOM      2  C1  MOL d         107.319  17.975  23.715  0.00  0.00     0.272 A 
ATOM      3  N1  MOL d         106.220  17.652  24.499  0.00  0.00    -0.156 N 
ATOM      4  C2  MOL d         107.109  17.846  22.271  0.00  0.00     0.062 A 
ATOM      5  C15 MOL d         105.847  17.426  21.798  0.00  0.00     0.067 A 
ATOM      6  N6  MOL d         104.848  17.092  22.708  0.00  0.00    -0.191 N 
ATOM      7  C   MOL d         105.035  17.214  24.036  0.00  0.00     0.679 A 
ATOM      8  C14 MOL d         105.576  17.441  20.423  0.00  0.00     0.063 A 
ATOM      9  C13 MOL d         106.552  17.887  19.531  0.00  0.00     0.081 A 
ATOM     10  C4  MOL d         107.802  18.278  20.013  0.00  0.00     0.104 A 
ATOM     11  C3  MOL d         108.078  18.258  21.363  0.00  0.00     0.054 A 
ATOM     12  N5  MOL d         106.500  18.079  18.151  0.00  0.00    -0.188 N 
ATOM     13  C5  MOL d         107.688  18.565  17.840  0.00  0.00     0.701 A 
ATOM     14  N2  MOL d         108.518  18.687  18.902  0.00  0.00    -0.063 NA
ATOM     15  H   MOL d         106.317  17.753  25.489  0.00  0.00     0.187 HD
ATOM     16  H   MOL d         103.945  16.743  22.357  0.00  0.00     0.184 HD
ATOM     17  H   MOL d         105.712  17.885  17.517  0.00  0.00     0.184 HD
ENDROOT
BRANCH  13  18
ATOM     18  N3  MOL d         108.087  18.951  16.628  0.00  0.00    -0.223 N 
ATOM     19  H   MOL d         109.042  19.321  16.515  0.00  0.00     0.177 HD
BRANCH  18  20
ATOM     20  C6  MOL d         107.225  18.870  15.459  0.00  0.00     0.166 C 
BRANCH  20  21
ATOM     21  C7  MOL d         107.978  19.083  14.164  0.00  0.00     0.255 C 
BRANCH  21  22
ATOM     22  N4  MOL d         107.081  19.108  12.963  0.00  0.00    -0.070 N 
ATOM     23  C12 MOL d         107.821  18.713  11.727  0.00  0.00     0.235 C 
ATOM     24  C11 MOL d         106.891  18.658  10.539  0.00  0.00     0.028 C 
ATOM     25  C10 MOL d         106.198  19.988  10.323  0.00  0.00     0.003 C 
ATOM     26  C9  MOL d         105.504  20.445  11.594  0.00  0.00     0.028 C 
ATOM     27  C8  MOL d         106.451  20.451  12.774  0.00  0.00     0.235 C 
ATOM     28  H   MOL d         106.344  18.437  13.115  0.00  0.00     0.279 HD
ENDBRANCH  21  22
ENDBRANCH  20  21
ENDBRANCH  18  20
ENDBRANCH  13  18
BRANCH   7  29
ATOM     29  N   MOL d         104.070  16.886  24.874  0.00  0.00    -0.234 N 
ATOM     30  H   MOL d         104.216  16.980  25.889  0.00  0.00     0.174 HD
ATOM     31  H   MOL d         103.171  16.536  24.513  0.00  0.00     0.174 HD
ENDBRANCH   7  29
TORSDOF 5
