REMARK  2 active torsions:
REMARK  status: ('A' for Active; 'I' for Inactive)
REMARK       I    between atoms: N4_8  and  C11_17 
REMARK    1  A    between atoms: C16_22  and  N4_8 
REMARK    2  A    between atoms: C11_17  and  C12_18 
ROOT
ATOM      1  C1  YKI d          13.310  14.405  26.485  0.00  0.00     0.118 A 
ATOM      2  N1  YKI d          13.026  14.614  27.834  0.00  0.00    -0.271 NA
ATOM      3  C2  YKI d          11.716  14.696  28.295  0.00  0.00     0.148 A 
ATOM      4  N2  YKI d           9.291  14.593  27.488  0.00  0.00    -0.337 N 
ATOM      5  C3  YKI d          12.283  14.261  25.522  0.00  0.00     0.053 A 
ATOM      6  N3  YKI d           9.740  14.258  25.343  0.00  0.00    -0.228 NA
ATOM      7  C4  YKI d           8.758  14.411  26.268  0.00  0.00     0.140 A 
ATOM      8  C5  YKI d          10.953  14.344  25.969  0.00  0.00     0.088 A 
ATOM      9  C6  YKI d          10.658  14.559  27.374  0.00  0.00     0.080 A 
ATOM     10  C7  YKI d           7.331  14.405  26.030  0.00  0.00     0.022 A 
ATOM     11  C8  YKI d           4.475  14.576  25.639  0.00  0.00     0.010 A 
ATOM     12  C9  YKI d           5.159  15.577  26.392  0.00  0.00     0.002 A 
ATOM     13  C10 YKI d           6.578  15.475  26.577  0.00  0.00     0.016 A 
ATOM     14  C16 YKI d           4.571  12.387  24.272  0.00  0.00     0.153 A 
ATOM     15  C17 YKI d           5.196  13.465  25.065  0.00  0.00    -0.019 A 
ATOM     16  C18 YKI d           6.585  13.335  25.230  0.00  0.00    -0.003 A 
ATOM     17  C19 YKI d           5.824  11.517  23.956  0.00  0.00    -0.020 A 
ATOM     18  C20 YKI d           7.009  12.105  24.525  0.00  0.00    -0.016 A 
ATOM     19  C21 YKI d           8.293  11.433  24.326  0.00  0.00     0.013 A 
ATOM     20  C22 YKI d           8.370  10.214  23.575  0.00  0.00     0.001 A 
ATOM     21  C23 YKI d           7.160   9.637  23.009  0.00  0.00     0.001 A 
ATOM     22  C24 YKI d           5.896  10.288  23.198  0.00  0.00     0.010 A 
ATOM     23  H3  YKI d           8.763  14.734  28.361  0.00  0.00     0.167 HD
ENDROOT
BRANCH  14  24
ATOM     24  N4  YKI d           3.569  11.956  24.655  0.00  0.00    -0.344 N 
ATOM     25  C11 YKI d           2.444  11.485  24.079  0.00  0.00     0.253 C 
ATOM     26  O13 YKI d           2.424  11.480  22.839  0.00  0.00    -0.268 OA
ATOM     27  H5  YKI d           3.526  11.925  25.654  0.00  0.00     0.163 HD
BRANCH  25  28
ATOM     28  C12 YKI d           1.243  11.011  24.859  0.00  0.00     0.047 A 
ATOM     29  C14 YKI d           1.292  10.182  26.038  0.00  0.00     0.037 A 
ATOM     30  C15 YKI d           0.047   9.826  26.664  0.00  0.00     0.120 A 
ATOM     31  N5  YKI d          -1.162  10.267  26.134  0.00  0.00    -0.242 NA
ATOM     32  C26 YKI d          -1.224  11.073  24.992  0.00  0.00     0.138 A 
ATOM     33  N6  YKI d          -2.359  11.562  24.386  0.00  0.00    -0.350 N 
ATOM     34  C25 YKI d          -0.080  11.456  24.325  0.00  0.00     0.027 A 
ATOM     35  C27 YKI d          -1.935  12.299  23.294  0.00  0.00     0.090 A 
ATOM     36  H6  YKI d          -3.332  11.409  24.686  0.00  0.00     0.166 HD
ATOM     37  C28 YKI d          -0.527  12.264  23.221  0.00  0.00     0.033 A 
ENDBRANCH  25  28
ENDBRANCH  14  24
TORSDOF 2
