REMARK  12 active torsions:
REMARK  status: ('A' for Active; 'I' for Inactive)
REMARK    1  A    between atoms: C11_1  and  C12_2 
REMARK    2  A    between atoms: N10_12  and  C11_1 
REMARK       I    between atoms: C12_2  and  N13_13 
REMARK    3  A    between atoms: C03_5  and  O02_4 
REMARK    4  A    between atoms: S09_11  and  C08_10 
REMARK    5  A    between atoms: S09_11  and  N10_12 
REMARK    6  A    between atoms: N10_12  and  C15_15 
REMARK    7  A    between atoms: C18_18  and  N19_19 
REMARK    8  A    between atoms: N19_19  and  C20_20 
REMARK    9  A    between atoms: N19_19  and  S24_24 
REMARK   10  A    between atoms: C20_20  and  C21_21 
REMARK       I    between atoms: C21_21  and  N22_22 
REMARK   11  A    between atoms: S24_24  and  C25_25 
REMARK   12  A    between atoms: C28_28  and  O29_29 
ROOT
ATOM      1  C15 MOL d           3.126  -0.486 -21.984  0.00  0.00     0.057 A 
ATOM      2  C16 MOL d           4.434  -0.200 -22.389  0.00  0.00     0.033 A 
ATOM      3  C17 MOL d           5.032   1.066 -22.052  0.00  0.00     0.033 A 
ATOM      4  C18 MOL d           4.322   1.977 -21.326  0.00  0.00     0.057 A 
ATOM      5  C35 MOL d           2.974   1.695 -20.919  0.00  0.00     0.004 A 
ATOM      6  C36 MOL d           2.389   0.452 -21.249  0.00  0.00     0.004 A 
ATOM      7  C37 MOL d           1.077   0.166 -20.841  0.00  0.00     0.014 A 
ATOM      8  C38 MOL d           0.342   1.114 -20.107  0.00  0.00     0.001 A 
ATOM      9  C39 MOL d           0.936   2.382 -19.769  0.00  0.00     0.001 A 
ATOM     10  C40 MOL d           2.222   2.665 -20.166  0.00  0.00     0.014 A 
ENDROOT
BRANCH   1  11
ATOM     11  N10 MOL d           2.570  -1.797 -22.359  0.00  0.00    -0.262 N 
BRANCH  11  12
ATOM     12  C11 MOL d           2.859  -2.935 -21.504  0.00  0.00     0.244 C 
BRANCH  12  13
ATOM     13  C12 MOL d           1.697  -3.644 -20.761  0.00  0.00     0.234 C 
ATOM     14  N13 MOL d           1.992  -4.767 -19.901  0.00  0.00    -0.369 N 
ATOM     15  H10 MOL d           1.252  -5.233 -19.416  0.00  0.00     0.159 HD
ATOM     16  H11 MOL d           2.936  -5.078 -19.791  0.00  0.00     0.159 HD
ATOM     17  O14 MOL d           0.617  -3.275 -20.889  0.00  0.00    -0.272 OA
ENDBRANCH  12  13
ENDBRANCH  11  12
BRANCH  11  18
ATOM     18  S09 MOL d           1.709  -1.922 -23.747  0.00  0.00     0.265 S 
ATOM     19  O41 MOL d           0.894  -3.152 -23.777  0.00  0.00    -0.200 OA
ATOM     20  O42 MOL d           0.692  -0.910 -23.851  0.00  0.00    -0.200 OA
BRANCH  18  21
ATOM     21  C08 MOL d           2.849  -1.856 -25.167  0.00  0.00     0.080 A 
ATOM     22  C05 MOL d           3.327  -3.024 -25.702  0.00  0.00     0.028 A 
ATOM     23  C04 MOL d           4.236  -2.987 -26.822  0.00  0.00     0.038 A 
ATOM     24  C03 MOL d           4.650  -1.696 -27.392  0.00  0.00     0.068 A 
ATOM     25  C06 MOL d           4.178  -0.539 -26.859  0.00  0.00     0.038 A 
ATOM     26  C07 MOL d           3.258  -0.580 -25.720  0.00  0.00     0.028 A 
BRANCH  24  27
ATOM     27  O02 MOL d           5.555  -1.668 -28.506  0.00  0.00    -0.356 OA
ATOM     28  C01 MOL d           5.063  -1.783 -29.817  0.00  0.00     0.210 C 
ENDBRANCH  24  27
ENDBRANCH  18  21
ENDBRANCH  11  18
ENDBRANCH   1  11
BRANCH   4  29
ATOM     29  N19 MOL d           4.947   3.236 -21.039  0.00  0.00    -0.262 N 
BRANCH  29  30
ATOM     30  C20 MOL d           5.907   3.415 -19.947  0.00  0.00     0.244 C 
BRANCH  30  31
ATOM     31  C21 MOL d           5.646   2.834 -18.644  0.00  0.00     0.234 C 
ATOM     32  N22 MOL d           5.359   3.721 -17.502  0.00  0.00    -0.369 N 
ATOM     33  H16 MOL d           5.178   3.331 -16.599  0.00  0.00     0.159 HD
ATOM     34  H17 MOL d           5.346   4.713 -17.630  0.00  0.00     0.159 HD
ATOM     35  O23 MOL d           5.672   1.671 -18.499  0.00  0.00    -0.272 OA
ENDBRANCH  30  31
ENDBRANCH  29  30
BRANCH  29  36
ATOM     36  S24 MOL d           4.588   4.446 -22.078  0.00  0.00     0.265 S 
ATOM     37  O33 MOL d           4.863   5.723 -21.527  0.00  0.00    -0.200 OA
ATOM     38  O34 MOL d           3.175   4.546 -22.378  0.00  0.00    -0.200 OA
BRANCH  36  39
ATOM     39  C25 MOL d           5.549   4.097 -23.570  0.00  0.00     0.080 A 
ATOM     40  C26 MOL d           6.786   4.641 -23.719  0.00  0.00     0.028 A 
ATOM     41  C27 MOL d           7.527   4.366 -24.852  0.00  0.00     0.038 A 
ATOM     42  C28 MOL d           7.012   3.523 -25.841  0.00  0.00     0.068 A 
ATOM     43  C31 MOL d           5.773   2.966 -25.692  0.00  0.00     0.038 A 
ATOM     44  C32 MOL d           5.029   3.236 -24.562  0.00  0.00     0.028 A 
BRANCH  42  45
ATOM     45  O29 MOL d           7.751   3.264 -26.947  0.00  0.00    -0.356 OA
ATOM     46  C30 MOL d           8.962   2.540 -26.812  0.00  0.00     0.210 C 
ENDBRANCH  42  45
ENDBRANCH  36  39
ENDBRANCH  29  36
ENDBRANCH   4  29
TORSDOF 12
