REMARK  8 active torsions:
REMARK  status: ('A' for Active; 'I' for Inactive)
REMARK    1  A    between atoms: C1_1  and  O1_2 
REMARK    2  A    between atoms: C1_1  and  C2_4 
REMARK    3  A    between atoms: O1_2  and  P1_3 
REMARK    4  A    between atoms: C2_4  and  O2_5 
REMARK    5  A    between atoms: C3_6  and  O3_7 
REMARK    6  A    between atoms: C4_8  and  O4_9 
REMARK    7  A    between atoms: C5_10  and  C6_12 
REMARK    8  A    between atoms: C6_12  and  O6_13 
ROOT
ATOM      1  C2  F1X d          -2.028   4.766   4.967  0.00  0.00     0.213 C 
ATOM      2  C3  F1X d          -1.594   5.621   6.149  0.00  0.00     0.213 C 
ATOM      3  C4  F1X d          -2.864   5.665   6.961  0.00  0.00     0.183 C 
ATOM      4  C5  F1X d          -3.240   4.201   6.843  0.00  0.00     0.180 C 
ATOM      5  O5  F1X d          -2.936   3.802   5.501  0.00  0.00    -0.341 OA
ENDROOT
BRANCH   1   6
ATOM      6  C1  F1X d          -0.822   4.116   4.312  0.00  0.00     0.253 C 
BRANCH   6   7
ATOM      7  O1  F1X d          -1.188   3.671   3.015  0.00  0.00    -0.277 OA
BRANCH   7   8
ATOM      8  P1  F1X d          -0.715   4.526   1.738  0.00  0.00     0.422 P 
ATOM      9  O1P F1X d          -1.306   5.894   1.959  0.00  0.00    -0.617 OA
ATOM     10  O2P F1X d           0.788   4.491   1.805  0.00  0.00    -0.617 OA
ATOM     11  O3P F1X d          -1.319   3.787   0.570  0.00  0.00    -0.617 OA
ENDBRANCH   7   8
ENDBRANCH   6   7
ENDBRANCH   1   6
BRANCH   1  12
ATOM     12  O2  F1X d          -2.727   5.574   4.011  0.00  0.00    -0.362 OA
ATOM     13  H3  F1X d          -2.132   6.220   3.649  0.00  0.00     0.213 HD
ENDBRANCH   1  12
BRANCH   2  14
ATOM     14  O3  F1X d          -1.139   6.909   5.741  0.00  0.00    -0.387 OA
ATOM     15  H5  F1X d          -1.840   7.363   5.289  0.00  0.00     0.210 HD
ENDBRANCH   2  14
BRANCH   3  16
ATOM     16  O4  F1X d          -2.668   6.055   8.323  0.00  0.00    -0.390 OA
ATOM     17  H7  F1X d          -3.505   6.061   8.773  0.00  0.00     0.210 HD
ENDBRANCH   3  16
BRANCH   4  18
ATOM     18  C6  F1X d          -4.684   3.986   7.224  0.00  0.00     0.198 C 
BRANCH  18  19
ATOM     19  O6  F1X d          -4.647   3.746   8.625  0.00  0.00    -0.398 OA
ATOM     20  H11 F1X d          -4.271   4.500   9.065  0.00  0.00     0.209 HD
ENDBRANCH  18  19
ENDBRANCH   4  18
TORSDOF 8
