REMARK  15 active torsions:
REMARK  status: ('A' for Active; 'I' for Inactive)
REMARK    1  A    between atoms: PA_1  and  O5_4 
REMARK    2  A    between atoms: O3A_8  and  PA_1 
REMARK    3  A    between atoms: O5_4  and  C5_23 
REMARK    4  A    between atoms: PB_5  and  O3A_8 
REMARK    5  A    between atoms: O3_38  and  PB_5 
REMARK    6  A    between atoms: O3_30  and  PG_9 
REMARK    7  A    between atoms: C1_26  and  N9A_13 
REMARK    8  A    between atoms: C5_23  and  C4_24 
REMARK    9  A    between atoms: C2_27  and  O2_28 
REMARK   10  A    between atoms: C3_29  and  O3_30 
REMARK   11  A    between atoms: C5_32  and  O5_31 
REMARK   12  A    between atoms: O5_31  and  PD_39 
REMARK   13  A    between atoms: C4_33  and  C5_32 
REMARK   14  A    between atoms: C1_35  and  N1T_43 
REMARK   15  A    between atoms: C3_37  and  O3_38 
ROOT
ATOM      1  PA  PAX d         -30.221 -29.408  17.292  0.00  0.00     0.417 P 
ATOM      2  O1A PAX d         -31.389 -30.168  17.927  0.00  0.00    -0.624 OA
ATOM      3  O2A PAX d         -30.373 -29.044  15.811  0.00  0.00    -0.624 OA
ENDROOT
BRANCH   1   4
ATOM      4  O5  PAX d         -29.902 -28.070  18.098  0.00  0.00    -0.287 OA
BRANCH   4   5
ATOM      5  C5  PAX d         -30.827 -27.538  19.020  0.00  0.00     0.216 C 
BRANCH   5   6
ATOM      6  C4  PAX d         -31.424 -26.285  18.461  0.00  0.00     0.180 C 
ATOM      7  O4  PAX d         -30.369 -25.394  17.969  0.00  0.00    -0.353 OA
ATOM      8  C1  PAX d         -30.871 -24.699  16.849  0.00  0.00     0.262 C 
ATOM      9  C2  PAX d         -31.667 -25.798  16.118  0.00  0.00     0.199 C 
ATOM     10  C3  PAX d         -32.364 -26.525  17.278  0.00  0.00     0.199 C 
BRANCH   8  11
ATOM     11  N9A PAX d         -29.773 -23.982  16.130  0.00  0.00    -0.294 N 
ATOM     12  C4A PAX d         -28.858 -24.427  15.183  0.00  0.00     0.167 A 
ATOM     13  N3A PAX d         -28.737 -25.686  14.656  0.00  0.00    -0.222 NA
ATOM     14  C5A PAX d         -28.066 -23.302  14.862  0.00  0.00     0.149 A 
ATOM     15  C2A PAX d         -27.721 -25.764  13.741  0.00  0.00     0.237 A 
ATOM     16  N1A PAX d         -26.877 -24.763  13.335  0.00  0.00    -0.222 NA
ATOM     17  C6A PAX d         -27.026 -23.507  13.883  0.00  0.00     0.155 A 
ATOM     18  N6A PAX d         -26.202 -22.546  13.476  0.00  0.00    -0.382 N 
ATOM     19  H2  PAX d         -26.286 -21.596  13.865  0.00  0.00     0.157 HD
ATOM     20  H3  PAX d         -25.479 -22.751  12.771  0.00  0.00     0.157 HD
ATOM     21  N7A PAX d         -28.473 -22.193  15.588  0.00  0.00    -0.236 NA
ATOM     22  C8A PAX d         -29.476 -22.641  16.316  0.00  0.00     0.214 A 
ENDBRANCH   8  11
BRANCH   9  23
ATOM     23  O2  PAX d         -32.543 -25.297  15.117  0.00  0.00    -0.388 OA
ATOM     24  H10 PAX d         -33.173 -24.707  15.515  0.00  0.00     0.210 HD
ENDBRANCH   9  23
BRANCH  10  25
ATOM     25  O3  PAX d         -33.616 -25.915  17.604  0.00  0.00    -0.272 OA
BRANCH  25  26
ATOM     26  PG  PAX d         -34.893 -26.776  18.155  0.00  0.00     0.422 P 
ATOM     27  O1G PAX d         -34.702 -26.921  19.663  0.00  0.00    -0.617 OA
ATOM     28  O2G PAX d         -36.122 -25.962  17.774  0.00  0.00    -0.617 OA
ATOM     29  O3G PAX d         -34.895 -28.150  17.460  0.00  0.00    -0.617 OA
ENDBRANCH  25  26
ENDBRANCH  10  25
ENDBRANCH   5   6
ENDBRANCH   4   5
ENDBRANCH   1   4
BRANCH   1  30
ATOM     30  O3A PAX d         -28.871 -30.214  17.495  0.00  0.00    -0.180 OA
BRANCH  30  31
ATOM     31  PB  PAX d         -28.159 -30.856  18.749  0.00  0.00     0.418 P 
ATOM     32  O1B PAX d         -27.086 -29.951  19.203  0.00  0.00    -0.624 OA
ATOM     33  O2B PAX d         -29.210 -31.255  19.712  0.00  0.00    -0.624 OA
BRANCH  31  34
ATOM     34  O3  PAX d         -27.588 -32.261  18.160  0.00  0.00    -0.281 OA
BRANCH  34  35
ATOM     35  C3  PAX d         -26.747 -32.301  17.005  0.00  0.00     0.169 C 
ATOM     36  C4  PAX d         -26.814 -33.699  16.379  0.00  0.00     0.178 C 
ATOM     37  O4  PAX d         -25.554 -34.354  16.693  0.00  0.00    -0.356 OA
ATOM     38  C1  PAX d         -24.845 -33.581  17.640  0.00  0.00     0.235 C 
ATOM     39  C2  PAX d         -25.293 -32.142  17.418  0.00  0.00     0.089 C 
BRANCH  36  40
ATOM     40  C5  PAX d         -27.038 -33.682  14.875  0.00  0.00     0.217 C 
BRANCH  40  41
ATOM     41  O5  PAX d         -25.781 -33.813  14.166  0.00  0.00    -0.280 OA
BRANCH  41  42
ATOM     42  PD  PAX d         -25.421 -32.905  12.841  0.00  0.00     0.422 P 
ATOM     43  O1D PAX d         -24.325 -33.693  12.098  0.00  0.00    -0.617 OA
ATOM     44  O2D PAX d         -24.923 -31.540  13.368  0.00  0.00    -0.617 OA
ATOM     45  O3D PAX d         -26.724 -32.797  12.029  0.00  0.00    -0.617 OA
ENDBRANCH  41  42
ENDBRANCH  40  41
ENDBRANCH  36  40
BRANCH  38  46
ATOM     46  N1T PAX d         -23.368 -33.761  17.438  0.00  0.00    -0.282 N 
ATOM     47  C6T PAX d         -22.785 -33.780  16.145  0.00  0.00     0.110 A 
ATOM     48  C5T PAX d         -21.457 -33.938  15.937  0.00  0.00     0.022 A 
ATOM     49  C4T PAX d         -20.570 -34.095  17.095  0.00  0.00     0.256 A 
ATOM     50  CM5 PAX d         -20.914 -33.942  14.543  0.00  0.00     0.056 C 
ATOM     51  N3T PAX d         -21.208 -34.072  18.351  0.00  0.00    -0.275 N 
ATOM     52  O4T PAX d         -19.345 -34.232  17.058  0.00  0.00    -0.267 OA
ATOM     53  C2T PAX d         -22.570 -33.913  18.598  0.00  0.00     0.331 A 
ATOM     54  H20 PAX d         -20.619 -34.182  19.152  0.00  0.00     0.173 HD
ATOM     55  O2T PAX d         -23.022 -33.905  19.720  0.00  0.00    -0.246 OA
ENDBRANCH  38  46
ENDBRANCH  34  35
ENDBRANCH  31  34
ENDBRANCH  30  31
ENDBRANCH   1  30
TORSDOF 15
