REMARK  6 active torsions:
REMARK  status: ('A' for Active; 'I' for Inactive)
REMARK    1  A    between atoms: CBA_6  and  OAG_7 
REMARK    2  A    between atoms: CBE_14  and  CAN_16 
REMARK    3  A    between atoms: CAN_16  and  OAQ_17 
REMARK    4  A    between atoms: OAQ_17  and  CAW_18 
REMARK    5  A    between atoms: CAV_23  and  CAO_24 
REMARK    6  A    between atoms: CAO_24  and  CBD_25 
ROOT
ATOM      1  CAN TDZ d          -4.233 -11.125  18.742  0.00  0.00     0.213 C 
ENDROOT
BRANCH   1   2
ATOM      2  CBE TDZ d          -5.225  -9.929  18.633  0.00  0.00     0.086 C 
ATOM      3  CAM TDZ d          -5.480  -9.611  17.161  0.00  0.00     0.045 C 
ATOM      4  CAL TDZ d          -6.537  -8.508  17.008  0.00  0.00     0.045 C 
ATOM      5  CBB TDZ d          -7.573  -8.467  18.146  0.00  0.00    -0.015 A 
ATOM      6  CAZ TDZ d          -8.592  -7.515  18.164  0.00  0.00    -0.019 A 
ATOM      7  CBC TDZ d          -7.530  -9.375  19.203  0.00  0.00     0.083 A 
ATOM      8  CAC TDZ d          -8.666  -6.502  17.034  0.00  0.00     0.052 C 
ATOM      9  CBA TDZ d          -9.540  -7.461  19.183  0.00  0.00     0.078 A 
ATOM     10  CAX TDZ d          -9.495  -8.364  20.223  0.00  0.00    -0.020 A 
ATOM     11  CAA TDZ d         -10.539  -8.287  21.346  0.00  0.00     0.052 C 
ATOM     12  CAY TDZ d          -8.490  -9.317  20.227  0.00  0.00    -0.019 A 
ATOM     13  CAB TDZ d          -8.456 -10.283  21.381  0.00  0.00     0.052 C 
ATOM     14  OAR TDZ d          -6.531 -10.319  19.227  0.00  0.00    -0.337 OA
ATOM     15  CAD TDZ d          -4.554  -8.716  19.290  0.00  0.00     0.049 C 
BRANCH   9  16
ATOM     16  OAG TDZ d         -10.519  -6.525  19.176  0.00  0.00    -0.360 OA
ATOM     17  H8  TDZ d         -11.069  -6.638  19.942  0.00  0.00     0.217 HD
ENDBRANCH   9  16
ENDBRANCH   1   2
BRANCH   1  18
ATOM     18  OAQ TDZ d          -3.703 -11.482  20.069  0.00  0.00    -0.348 OA
BRANCH  18  19
ATOM     19  CAW TDZ d          -4.713 -11.798  20.939  0.00  0.00     0.068 A 
ATOM     20  CAK TDZ d          -5.563 -12.888  20.726  0.00  0.00     0.037 A 
ATOM     21  CAI TDZ d          -6.585 -13.165  21.636  0.00  0.00     0.010 A 
ATOM     22  CAV TDZ d          -6.793 -12.351  22.758  0.00  0.00    -0.056 A 
ATOM     23  CAH TDZ d          -5.943 -11.265  22.954  0.00  0.00     0.010 A 
ATOM     24  CAJ TDZ d          -4.918 -10.999  22.053  0.00  0.00     0.037 A 
BRANCH  22  25
ATOM     25  CAO TDZ d          -7.899 -12.599  23.824  0.00  0.00     0.063 C 
BRANCH  25  26
ATOM     26  CBD TDZ d          -9.212 -13.282  23.372  0.00  0.00     0.153 A 
ATOM     27  SAS TDZ d          -9.658 -12.876  21.669  0.00  0.00    -0.054 SA
ATOM     28  CAT TDZ d          -9.597 -14.493  21.098  0.00  0.00     0.287 A 
ATOM     29  OAE TDZ d          -9.818 -14.801  19.928  0.00  0.00    -0.260 OA
ATOM     30  NAP TDZ d          -9.274 -15.366  22.066  0.00  0.00    -0.287 N 
ATOM     31  CAU TDZ d          -9.058 -14.817  23.276  0.00  0.00     0.239 A 
ATOM     32  H27 TDZ d          -9.200 -16.349  21.901  0.00  0.00     0.172 HD
ATOM     33  OAF TDZ d          -8.761 -15.522  24.237  0.00  0.00    -0.272 OA
ENDBRANCH  25  26
ENDBRANCH  22  25
ENDBRANCH  18  19
ENDBRANCH   1  18
TORSDOF 6
