REMARK  6 active torsions:
REMARK  status: ('A' for Active; 'I' for Inactive)
REMARK    1  A    between atoms: C2'_10  and  O2'_11 
REMARK    2  A    between atoms: C1'_12  and  N9_13 
REMARK    3  A    between atoms: C2_20  and  N2_21 
REMARK    4  A    between atoms: C2A_33  and  O2A_34 
REMARK    5  A    between atoms: C1A_35  and  N91_36 
REMARK    6  A    between atoms: C21_43  and  N21_44 
ROOT
ATOM      1  P1  C2E d          29.114  33.484   4.733  0.00  0.00     0.408 P 
ATOM      2  O2P C2E d          28.868  32.892   6.104  0.00  0.00    -0.624 OA
ATOM      3  O1P C2E d          28.486  32.568   3.703  0.00  0.00    -0.624 OA
ATOM      4  O5' C2E d          28.336  34.869   4.731  0.00  0.00    -0.287 OA
ATOM      5  C5' C2E d          28.056  35.495   3.520  0.00  0.00     0.216 C 
ATOM      6  C4' C2E d          29.065  36.502   3.037  0.00  0.00     0.180 C 
ATOM      7  O4' C2E d          28.681  36.954   1.766  0.00  0.00    -0.353 OA
ATOM      8  C3' C2E d          29.145  37.767   3.859  0.00  0.00     0.198 C 
ATOM      9  O3' C2E d          30.315  38.463   3.566  0.00  0.00    -0.279 OA
ATOM     10  C2' C2E d          28.033  38.480   3.375  0.00  0.00     0.199 C 
ATOM     11  C1' C2E d          27.936  38.122   1.971  0.00  0.00     0.262 C 
ATOM     12  P11 C2E d          31.435  38.531   4.670  0.00  0.00     0.408 P 
ATOM     13  O21 C2E d          30.809  38.599   6.045  0.00  0.00    -0.624 OA
ATOM     14  O11 C2E d          32.401  39.674   4.488  0.00  0.00    -0.624 OA
ATOM     15  O5A C2E d          32.378  37.313   4.531  0.00  0.00    -0.287 OA
ATOM     16  C5A C2E d          31.966  36.329   5.359  0.00  0.00     0.216 C 
ATOM     17  C4A C2E d          32.476  35.050   4.886  0.00  0.00     0.180 C 
ATOM     18  O4A C2E d          33.757  34.898   5.570  0.00  0.00    -0.353 OA
ATOM     19  C3A C2E d          31.487  34.079   5.411  0.00  0.00     0.198 C 
ATOM     20  O3A C2E d          30.659  33.522   4.431  0.00  0.00    -0.279 OA
ATOM     21  C2A C2E d          32.288  33.183   6.263  0.00  0.00     0.199 C 
ATOM     22  C1A C2E d          33.532  34.000   6.612  0.00  0.00     0.262 C 
ENDROOT
BRANCH  11  23
ATOM     23  N9  C2E d          26.497  37.958   1.346  0.00  0.00    -0.293 N 
ATOM     24  C8  C2E d          25.403  37.584   2.044  0.00  0.00     0.214 A 
ATOM     25  N7  C2E d          24.382  37.489   1.179  0.00  0.00    -0.235 NA
ATOM     26  C5  C2E d          24.845  37.787  -0.059  0.00  0.00     0.159 A 
ATOM     27  C6  C2E d          24.224  37.842  -1.309  0.00  0.00     0.226 A 
ATOM     28  C4  C2E d          26.214  38.091   0.042  0.00  0.00     0.185 A 
ATOM     29  O6  C2E d          22.866  37.580  -1.445  0.00  0.00    -0.169 OA
ATOM     30  N1  C2E d          24.974  38.195  -2.374  0.00  0.00    -0.164 N 
ATOM     31  C2  C2E d          26.286  38.477  -2.253  0.00  0.00     0.702 A 
ATOM     32  H9  C2E d          24.545  38.249  -3.276  0.00  0.00     0.186 HD
ATOM     33  N3  C2E d          26.913  38.423  -1.061  0.00  0.00    -0.044 NA
BRANCH  31  34
ATOM     34  N2  C2E d          27.018  38.832  -3.433  0.00  0.00    -0.233 N 
ATOM     35  H10 C2E d          28.022  39.052  -3.369  0.00  0.00     0.174 HD
ATOM     36  H11 C2E d          26.540  38.867  -4.345  0.00  0.00     0.174 HD
ENDBRANCH  31  34
ENDBRANCH  11  23
BRANCH  10  37
ATOM     37  O2' C2E d          28.092  39.903   3.538  0.00  0.00    -0.388 OA
ATOM     38  H6  C2E d          28.850  40.242   3.076  0.00  0.00     0.210 HD
ENDBRANCH  10  37
BRANCH  21  39
ATOM     39  O2A C2E d          32.569  32.020   5.620  0.00  0.00    -0.388 OA
ATOM     40  H17 C2E d          31.758  31.581   5.394  0.00  0.00     0.210 HD
ENDBRANCH  21  39
BRANCH  22  41
ATOM     41  N91 C2E d          33.532  34.556   8.102  0.00  0.00    -0.293 N 
ATOM     42  C81 C2E d          32.695  35.498   8.571  0.00  0.00     0.214 A 
ATOM     43  N71 C2E d          32.798  35.573   9.910  0.00  0.00    -0.235 NA
ATOM     44  C51 C2E d          33.711  34.657  10.301  0.00  0.00     0.159 A 
ATOM     45  C61 C2E d          34.234  34.277  11.538  0.00  0.00     0.226 A 
ATOM     46  C41 C2E d          34.164  34.004   9.152  0.00  0.00     0.185 A 
ATOM     47  O61 C2E d          33.777  34.869  12.696  0.00  0.00    -0.169 OA
ATOM     48  N11 C2E d          35.158  33.290  11.583  0.00  0.00    -0.164 N 
ATOM     49  C21 C2E d          35.589  32.671  10.477  0.00  0.00     0.702 A 
ATOM     50  H20 C2E d          35.530  33.014  12.469  0.00  0.00     0.186 HD
ATOM     51  N31 C2E d          35.089  33.030   9.281  0.00  0.00    -0.044 NA
BRANCH  49  52
ATOM     52  N21 C2E d          36.616  31.681  10.556  0.00  0.00    -0.233 N 
ATOM     53  H21 C2E d          36.943  31.209   9.701  0.00  0.00     0.174 HD
ATOM     54  H22 C2E d          37.030  31.440  11.468  0.00  0.00     0.174 HD
ENDBRANCH  49  52
ENDBRANCH  22  41
TORSDOF 6
