REMARK  1 active torsions:
REMARK  status: ('A' for Active; 'I' for Inactive)
REMARK    1  A    between atoms: C2_3  and  C6_8 
ROOT
ATOM      1  N2  NCT d         -21.971   0.816   1.439  0.00  0.00    -0.067 N 
ATOM      2  C6  NCT d         -20.969   1.582   0.646  0.00  0.00     0.222 C 
ATOM      3  C7  NCT d         -20.902   0.726  -0.651  0.00  0.00     0.040 C 
ATOM      4  C8  NCT d         -20.768  -0.692  -0.043  0.00  0.00     0.030 C 
ATOM      5  C9  NCT d         -21.488  -0.570   1.322  0.00  0.00     0.235 C 
ATOM      6  C10 NCT d         -21.849   1.189   2.863  0.00  0.00     0.270 C 
ATOM      7  H5  NCT d         -22.912   0.938   1.098  0.00  0.00     0.280 HD
ENDROOT
BRANCH   2   8
ATOM      8  C2  NCT d         -21.302   3.036   0.363  0.00  0.00    -0.010 A 
ATOM      9  C1  NCT d         -20.264   3.898   0.049  0.00  0.00     0.125 A 
ATOM     10  N1  NCT d         -20.471   5.174  -0.232  0.00  0.00    -0.273 NA
ATOM     11  C5  NCT d         -21.701   5.696  -0.200  0.00  0.00     0.116 A 
ATOM     12  C4  NCT d         -22.807   4.891   0.110  0.00  0.00     0.020 A 
ATOM     13  C3  NCT d         -22.614   3.548   0.399  0.00  0.00     0.012 A 
ENDBRANCH   2   8
TORSDOF 1
