REMARK  24 active torsions:
REMARK  status: ('A' for Active; 'I' for Inactive)
REMARK    1  A    between atoms: CA_2  and  N_1 
REMARK    2  A    between atoms: C_3  and  CA_2 
REMARK    3  A    between atoms: CA_2  and  CB_5 
REMARK       I    between atoms: N_7  and  C_3 
REMARK    4  A    between atoms: CB_5  and  OG_6 
REMARK    5  A    between atoms: CA_8  and  N_7 
REMARK    6  A    between atoms: C_9  and  CA_8 
REMARK       I    between atoms: N_12  and  C_9 
REMARK    7  A    between atoms: C_14  and  CA_13 
REMARK       I    between atoms: N_19  and  C_14 
REMARK    8  A    between atoms: CA_20  and  N_19 
REMARK    9  A    between atoms: C_21  and  CA_20 
REMARK   10  A    between atoms: CA_20  and  CB_23 
REMARK       I    between atoms: N_27  and  C_21 
REMARK   11  A    between atoms: CB_23  and  CG_24 
REMARK   12  A    between atoms: CA_28  and  N_27 
REMARK   13  A    between atoms: C_29  and  CA_28 
REMARK   14  A    between atoms: CA_28  and  CB_31 
REMARK       I    between atoms: N_34  and  C_29 
REMARK   15  A    between atoms: CB_31  and  OG1_32 
REMARK   16  A    between atoms: CA_35  and  N_34 
REMARK   17  A    between atoms: C_36  and  CA_35 
REMARK   18  A    between atoms: CA_35  and  CB_38 
REMARK       I    between atoms: N_45  and  C_36 
REMARK   19  A    between atoms: CB_38  and  CG_39 
REMARK   20  A    between atoms: CG_39  and  CD_40 
REMARK   21  A    between atoms: CD_40  and  NE_41 
REMARK       I    between atoms: NE_41  and  CZ_42 
REMARK       I    between atoms: CZ_42  and  NH1_43 
REMARK   22  A    between atoms: C_47  and  CA_46 
REMARK       I    between atoms: C_47  and  N_52 
REMARK   23  A    between atoms: N_52  and  CA_53 
REMARK   24  A    between atoms: CA_53  and  C_54 
ROOT
ATOM      1  CA  MOL d          41.911  59.655  -5.911  0.00  0.00     0.205 C 
ENDROOT
BRANCH   1   2
ATOM      2  C   MOL d          40.809  60.491  -6.539  0.00  0.00     0.243 C 
ATOM      3  O   MOL d          39.898  60.953  -5.851  0.00  0.00    -0.271 OA
ATOM      4  N   MOL d          40.902  60.687  -7.850  0.00  0.00    -0.346 N 
ATOM      5  H31 MOL d          41.666  60.282  -8.352  0.00  0.00     0.163 HD
BRANCH   4   6
ATOM      6  CA  MOL d          39.915  61.478  -8.571  0.00  0.00     0.176 C 
BRANCH   6   7
ATOM      7  C   MOL d          39.335  60.707  -9.752  0.00  0.00     0.243 C 
ATOM      8  O   MOL d          39.931  59.741 -10.220  0.00  0.00    -0.271 OA
ATOM      9  N   MOL d          38.146  61.114 -10.231  0.00  0.00    -0.337 N 
ATOM     10  CA  MOL d          37.418  60.502 -11.349  0.00  0.00     0.179 C 
ATOM     11  CD  MOL d          37.364  62.232  -9.668  0.00  0.00     0.127 C 
ATOM     12  CB  MOL d          36.308  61.513 -11.621  0.00  0.00     0.037 C 
ATOM     13  CG  MOL d          35.986  61.983 -10.247  0.00  0.00     0.022 C 
BRANCH  10  14
ATOM     14  C   MOL d          38.167  60.115 -12.623  0.00  0.00     0.241 C 
ATOM     15  O   MOL d          38.973  60.876 -13.158  0.00  0.00    -0.271 OA
ATOM     16  N   MOL d          37.855  58.915 -13.102  0.00  0.00    -0.345 N 
ATOM     17  H51 MOL d          37.187  58.364 -12.602  0.00  0.00     0.163 HD
BRANCH  16  18
ATOM     18  CA  MOL d          38.436  58.362 -14.317  0.00  0.00     0.181 C 
ATOM     19  CB  MOL d          38.456  56.840 -14.224  0.00  0.00     0.043 C 
BRANCH  18  20
ATOM     20  C   MOL d          37.626  58.805 -15.538  0.00  0.00     0.196 C 
ATOM     21  OXT MOL d          36.649  59.561 -15.350  0.00  0.00    -0.646 OA
ATOM     22  O   MOL d          37.970  58.393 -16.668  0.00  0.00    -0.646 OA
ENDBRANCH  18  20
ENDBRANCH  16  18
ENDBRANCH  10  14
ENDBRANCH   6   7
BRANCH   6  23
ATOM     23  CB  MOL d          40.553  62.797  -9.002  0.00  0.00     0.036 C 
BRANCH  23  24
ATOM     24  CG  MOL d          40.881  63.662  -7.799  0.00  0.00     0.023 C 
BRANCH  24  25
ATOM     25  CD  MOL d          42.015  64.639  -8.028  0.00  0.00     0.138 C 
BRANCH  25  26
ATOM     26  NE  MOL d          42.448  65.206  -6.753  0.00  0.00    -0.227 N 
ATOM     27  CZ  MOL d          43.445  66.073  -6.610  0.00  0.00     0.665 C 
ATOM     28  NH1 MOL d          44.128  66.482  -7.671  0.00  0.00    -0.235 N 
ATOM     29  NH2 MOL d          43.748  66.538  -5.405  0.00  0.00    -0.235 N 
ATOM     30  H40 MOL d          44.901  67.154  -7.559  0.00  0.00     0.174 HD
ATOM     31  H41 MOL d          43.886  66.128  -8.607  0.00  0.00     0.174 HD
ATOM     32  H42 MOL d          43.217  66.220  -4.582  0.00  0.00     0.174 HD
ATOM     33  H43 MOL d          44.514  67.217  -5.293  0.00  0.00     0.174 HD
ATOM     34  H39 MOL d          41.944  64.913  -5.904  0.00  0.00     0.177 HD
ENDBRANCH  25  26
ENDBRANCH  24  25
ENDBRANCH  23  24
ENDBRANCH   6  23
ENDBRANCH   4   6
ENDBRANCH   1   2
BRANCH   1  35
ATOM     35  CB  MOL d          41.480  58.171  -5.919  0.00  0.00     0.146 C 
ATOM     36  CG2 MOL d          42.601  57.289  -5.399  0.00  0.00     0.042 C 
BRANCH  35  37
ATOM     37  OG1 MOL d          40.318  58.001  -5.100  0.00  0.00    -0.393 OA
ATOM     38  H27 MOL d          39.611  58.536  -5.440  0.00  0.00     0.210 HD
ENDBRANCH  35  37
ENDBRANCH   1  35
BRANCH   1  39
ATOM     39  N   MOL d          42.199  60.133  -4.565  0.00  0.00    -0.344 N 
ATOM     40  C   MOL d          43.299  60.835  -4.325  0.00  0.00     0.241 C 
ATOM     41  O   MOL d          44.126  61.087  -5.200  0.00  0.00    -0.271 OA
ATOM     42  H24 MOL d          41.565  59.931  -3.819  0.00  0.00     0.163 HD
BRANCH  40  43
ATOM     43  CA  MOL d          43.529  61.303  -2.897  0.00  0.00     0.186 C 
BRANCH  43  44
ATOM     44  CB  MOL d          43.413  62.828  -2.826  0.00  0.00     0.147 C 
BRANCH  44  45
ATOM     45  CG  MOL d          43.680  63.368  -1.437  0.00  0.00     0.175 C 
ATOM     46  OD1 MOL d          44.868  63.502  -1.067  0.00  0.00    -0.648 OA
ATOM     47  OD2 MOL d          42.704  63.648  -0.710  0.00  0.00    -0.648 OA
ENDBRANCH  44  45
ENDBRANCH  43  44
BRANCH  43  48
ATOM     48  N   MOL d          44.880  60.866  -2.578  0.00  0.00    -0.346 N 
ATOM     49  C   MOL d          45.097  59.663  -2.061  0.00  0.00     0.241 C 
ATOM     50  O   MOL d          44.186  58.887  -1.767  0.00  0.00    -0.271 OA
ATOM     51  H20 MOL d          45.652  61.478  -2.750  0.00  0.00     0.163 HD
BRANCH  49  52
ATOM     52  CA  MOL d          46.551  59.278  -1.821  0.00  0.00     0.179 C 
ATOM     53  N   MOL d          46.640  58.150  -0.890  0.00  0.00    -0.337 N 
ATOM     54  CD  MOL d          47.017  56.909  -1.596  0.00  0.00     0.127 C 
ATOM     55  C   MOL d          46.536  58.369   0.428  0.00  0.00     0.243 C 
ATOM     56  CG  MOL d          46.777  57.275  -3.047  0.00  0.00     0.022 C 
ATOM     57  CB  MOL d          47.199  58.724  -3.084  0.00  0.00     0.037 C 
ATOM     58  O   MOL d          46.392  59.500   0.891  0.00  0.00    -0.271 OA
BRANCH  55  59
ATOM     59  CA  MOL d          46.631  57.155   1.344  0.00  0.00     0.172 C 
ATOM     60  CB  MOL d          45.273  56.446   1.416  0.00  0.00     0.042 C 
BRANCH  59  61
ATOM     61  N   MOL d          47.070  57.522   2.687  0.00  0.00    -0.346 N 
ATOM     62  C   MOL d          48.283  58.006   2.933  0.00  0.00     0.251 C 
ATOM     63  O   MOL d          49.126  58.199   2.057  0.00  0.00    -0.271 OA
ATOM     64  H8  MOL d          46.434  57.405   3.450  0.00  0.00     0.163 HD
BRANCH  62  65
ATOM     65  CA  MOL d          48.591  58.318   4.392  0.00  0.00     0.297 C 
BRANCH  65  66
ATOM     66  CB  MOL d          48.775  59.827   4.570  0.00  0.00     0.206 C 
BRANCH  66  67
ATOM     67  OG  MOL d          47.570  60.512   4.283  0.00  0.00    -0.398 OA
ATOM     68  H7  MOL d          47.703  61.446   4.399  0.00  0.00     0.209 HD
ENDBRANCH  66  67
ENDBRANCH  65  66
BRANCH  65  69
ATOM     69  N   MOL d          49.829  57.597   4.809  0.00  0.00    -0.064 N 
ATOM     70  H1  MOL d          50.030  57.805   5.774  0.00  0.00     0.275 HD
ATOM     71  H2  MOL d          50.601  57.894   4.233  0.00  0.00     0.275 HD
ATOM     72  H3  MOL d          49.692  56.604   4.701  0.00  0.00     0.275 HD
ENDBRANCH  65  69
ENDBRANCH  62  65
ENDBRANCH  59  61
ENDBRANCH  55  59
ENDBRANCH  49  52
ENDBRANCH  43  48
ENDBRANCH  40  43
ENDBRANCH   1  39
TORSDOF 24
