REMARK  3 active torsions:
REMARK  status: ('A' for Active; 'I' for Inactive)
REMARK    1  A    between atoms: C2'_10  and  O2'_11 
REMARK    2  A    between atoms: C1'_12  and  N9_13 
REMARK    3  A    between atoms: C6_17  and  N6_18 
ROOT
ATOM      1  P   CMP d          -7.277 -23.140  -7.472  0.00  0.00     0.408 P 
ATOM      2  O1P CMP d          -7.923 -23.020  -6.081  0.00  0.00    -0.624 OA
ATOM      3  O2P CMP d          -6.667 -24.477  -7.623  0.00  0.00    -0.624 OA
ATOM      4  O5' CMP d          -8.327 -22.803  -8.617  0.00  0.00    -0.287 OA
ATOM      5  C5' CMP d          -8.909 -21.519  -8.791  0.00  0.00     0.216 C 
ATOM      6  C4' CMP d          -7.744 -20.582  -8.865  0.00  0.00     0.180 C 
ATOM      7  O4' CMP d          -8.107 -19.224  -8.856  0.00  0.00    -0.353 OA
ATOM      8  C3' CMP d          -6.842 -20.690  -7.654  0.00  0.00     0.198 C 
ATOM      9  O3' CMP d          -6.237 -21.934  -7.568  0.00  0.00    -0.279 OA
ATOM     10  C2' CMP d          -5.898 -19.564  -7.922  0.00  0.00     0.199 C 
ATOM     11  C1' CMP d          -6.828 -18.571  -8.637  0.00  0.00     0.262 C 
ENDROOT
BRANCH  11  12
ATOM     12  N9  CMP d          -6.972 -17.485  -7.649  0.00  0.00    -0.294 N 
ATOM     13  C8  CMP d          -7.597 -17.629  -6.453  0.00  0.00     0.214 A 
ATOM     14  N7  CMP d          -7.558 -16.469  -5.753  0.00  0.00    -0.236 NA
ATOM     15  C5  CMP d          -6.900 -15.555  -6.506  0.00  0.00     0.149 A 
ATOM     16  C6  CMP d          -6.530 -14.135  -6.350  0.00  0.00     0.155 A 
ATOM     17  C4  CMP d          -6.519 -16.232  -7.760  0.00  0.00     0.167 A 
ATOM     18  N1  CMP d          -5.886 -13.560  -7.407  0.00  0.00    -0.222 NA
ATOM     19  C2  CMP d          -5.560 -14.234  -8.548  0.00  0.00     0.237 A 
ATOM     20  N3  CMP d          -5.859 -15.540  -8.722  0.00  0.00    -0.222 NA
BRANCH  16  21
ATOM     21  N6  CMP d          -6.838 -13.432  -5.214  0.00  0.00    -0.382 N 
ATOM     22  H9  CMP d          -6.567 -12.441  -5.132  0.00  0.00     0.157 HD
ATOM     23  H10 CMP d          -7.340 -13.894  -4.442  0.00  0.00     0.157 HD
ENDBRANCH  16  21
ENDBRANCH  11  12
BRANCH  10  24
ATOM     24  O2' CMP d          -4.713 -19.930  -8.662  0.00  0.00    -0.388 OA
ATOM     25  H6  CMP d          -4.227 -20.585  -8.175  0.00  0.00     0.210 HD
ENDBRANCH  10  24
TORSDOF 3
