REMARK  7 active torsions:
REMARK  status: ('A' for Active; 'I' for Inactive)
REMARK    1  A    between atoms: C9_4  and  N1_5 
REMARK    2  A    between atoms: C16_14  and  N15_15 
REMARK       I    between atoms: N15_15  and  C14_16 
REMARK    3  A    between atoms: C14_16  and  C22_18 
REMARK    4  A    between atoms: C22_18  and  N4_19 
REMARK    5  A    between atoms: C13_21  and  O33_22 
REMARK    6  A    between atoms: C6_25  and  N7_26 
REMARK       I    between atoms: N7_26  and  C5_27 
REMARK    7  A    between atoms: C5_27  and  C2_29 
ROOT
ATOM      1  C22 LZF d          15.585   6.219  24.843  0.00  0.00     0.337 C 
ENDROOT
BRANCH   1   2
ATOM      2  C14 LZF d          15.844   6.987  26.121  0.00  0.00     0.248 C 
ATOM      3  N15 LZF d          15.910   6.340  27.306  0.00  0.00    -0.323 N 
ATOM      4  H8  LZF d          15.759   5.353  27.358  0.00  0.00     0.169 HD
ATOM      5  O27 LZF d          15.976   8.193  26.042  0.00  0.00    -0.271 OA
BRANCH   3   6
ATOM      6  C16 LZF d          16.186   7.060  28.427  0.00  0.00     0.073 A 
ATOM      7  C17 LZF d          17.461   7.066  28.997  0.00  0.00     0.145 A 
ATOM      8  F32 LZF d          18.458   6.338  28.485  0.00  0.00    -0.204 F 
ATOM      9  C11 LZF d          17.756   7.822  30.129  0.00  0.00     0.074 A 
ATOM     10  C9  LZF d          16.764   8.587  30.719  0.00  0.00     0.045 A 
ATOM     11  C26 LZF d          15.489   8.595  30.145  0.00  0.00     0.032 A 
ATOM     12  C28 LZF d          15.183   7.836  29.008  0.00  0.00     0.035 A 
BRANCH  10  13
ATOM     13  N1  LZF d          17.079   9.357  31.863  0.00  0.00    -0.290 N 
ATOM     14  C21 LZF d          16.967   8.864  33.180  0.00  0.00     0.100 A 
ATOM     15  C29 LZF d          17.277   9.651  34.242  0.00  0.00     0.018 A 
ATOM     16  C30 LZF d          17.736  10.974  34.026  0.00  0.00     0.007 A 
ATOM     17  C23 LZF d          17.864  11.467  32.761  0.00  0.00     0.075 A 
ATOM     18  C8  LZF d          17.535  10.665  31.640  0.00  0.00     0.252 A 
ATOM     19  O25 LZF d          17.635  11.064  30.480  0.00  0.00    -0.268 OA
ENDBRANCH  10  13
ENDBRANCH   3   6
ENDBRANCH   1   2
BRANCH   1  20
ATOM     20  N4  LZF d          15.440   4.793  25.155  0.00  0.00    -0.058 N 
ATOM     21  C20 LZF d          15.575   3.925  23.967  0.00  0.00     0.269 C 
ATOM     22  C13 LZF d          14.841   2.647  24.377  0.00  0.00     0.171 C 
ATOM     23  C6  LZF d          13.714   3.108  25.287  0.00  0.00     0.141 C 
ATOM     24  C18 LZF d          14.139   4.484  25.800  0.00  0.00     0.263 C 
ATOM     25  H11 LZF d          16.176   4.554  25.801  0.00  0.00     0.280 HD
BRANCH  22  26
ATOM     26  O33 LZF d          14.267   1.913  23.290  0.00  0.00    -0.387 OA
ATOM     27  C34 LZF d          15.181   1.565  22.243  0.00  0.00     0.202 C 
ENDBRANCH  22  26
BRANCH  23  28
ATOM     28  N7  LZF d          13.721   2.153  26.403  0.00  0.00    -0.348 N 
ATOM     29  C5  LZF d          12.660   1.989  27.191  0.00  0.00     0.259 C 
ATOM     30  O24 LZF d          11.677   2.651  27.020  0.00  0.00    -0.267 OA
ATOM     31  H21 LZF d          14.544   1.612  26.576  0.00  0.00     0.163 HD
BRANCH  29  32
ATOM     32  C2  LZF d          12.641   1.019  28.315  0.00  0.00     0.074 A 
ATOM     33  C12 LZF d          13.406  -0.101  28.612  0.00  0.00     0.027 A 
ATOM     34  C19 LZF d          13.009  -0.719  29.785  0.00  0.00     0.033 A 
ATOM     35  C10 LZF d          11.973   0.023  30.302  0.00  0.00     0.075 A 
ATOM     36  S3  LZF d          11.377   1.390  29.457  0.00  0.00    -0.072 SA
ATOM     37 CL1  LZF d          11.113  -0.343  31.859  0.00  0.00    -0.076 Cl
ENDBRANCH  29  32
ENDBRANCH  23  28
ENDBRANCH   1  20
TORSDOF 7
