REMARK  4 active torsions:
REMARK  status: ('A' for Active; 'I' for Inactive)
REMARK    1  A    between atoms: N_1  and  CA_2 
REMARK    2  A    between atoms: CA_2  and  CB_3 
REMARK    3  A    between atoms: CB_3  and  CG_4 
REMARK    4  A    between atoms: CG_4  and  CD_5 
ROOT
ATOM      1  CA  ABU d           6.848 -13.582  10.389  0.00  0.00     0.230 C 
ENDROOT
BRANCH   1   2
ATOM      2  N   ABU d           8.213 -14.121  10.433  0.00  0.00    -0.079 N 
ATOM      3  H1  ABU d           8.466 -14.318  11.389  0.00  0.00     0.274 HD
ATOM      4  H2  ABU d           8.854 -13.445  10.048  0.00  0.00     0.274 HD
ATOM      5  H3  ABU d           8.256 -14.971   9.892  0.00  0.00     0.274 HD
ENDBRANCH   1   2
BRANCH   1   6
ATOM      6  CB  ABU d           6.417 -13.269   8.977  0.00  0.00     0.038 C 
BRANCH   6   7
ATOM      7  CG  ABU d           5.040 -12.699   8.994  0.00  0.00     0.115 C 
BRANCH   7   8
ATOM      8  CD  ABU d           4.413 -12.458   7.637  0.00  0.00     0.172 C 
ATOM      9  OE1 ABU d           3.092 -12.305   7.589  0.00  0.00    -0.648 OA
ATOM     10  OE2 ABU d           5.090 -12.518   6.516  0.00  0.00    -0.648 OA
ENDBRANCH   7   8
ENDBRANCH   6   7
ENDBRANCH   1   6
TORSDOF 4
