REMARK  2 active torsions:
REMARK  status: ('A' for Active; 'I' for Inactive)
REMARK    1  A    between atoms: S1_2  and  C2_5 
REMARK    2  A    between atoms: C2_5  and  C1_6 
ROOT
ATOM      1  O5  SAT d           2.243  -3.819   9.081  0.00  0.00    -0.595 OA
ATOM      2  S1  SAT d           1.654  -4.896   8.263  0.00  0.00     0.111 S 
ATOM      3  O3  SAT d           0.185  -4.739   8.228  0.00  0.00    -0.595 OA
ATOM      4  O4  SAT d           2.177  -4.798   6.897  0.00  0.00    -0.595 OA
ENDROOT
BRANCH   2   5
ATOM      5  C2  SAT d           2.040  -6.397   8.897  0.00  0.00     0.277 C 
BRANCH   5   6
ATOM      6  C1  SAT d           3.497  -6.782   8.722  0.00  0.00     0.189 C 
ATOM      7  O1  SAT d           3.852  -7.334   7.660  0.00  0.00    -0.647 OA
ATOM      8  O2  SAT d           4.295  -6.576   9.659  0.00  0.00    -0.647 OA
ENDBRANCH   5   6
ENDBRANCH   2   5
TORSDOF 2
