REMARK  5 active torsions:
REMARK  status: ('A' for Active; 'I' for Inactive)
REMARK    1  A    between atoms: CAN_14  and  OAC_3 
REMARK    2  A    between atoms: CAP_16  and  OAD_4 
REMARK    3  A    between atoms: CAQ_17  and  CAM_13 
REMARK    4  A    between atoms: CAM_13  and  CAR_18 
REMARK    5  A    between atoms: CAS_19  and  NAT_20 
ROOT
ATOM      1  CAK MOL d           0.734  -0.732  -5.837  0.00  0.00     0.055 A 
ATOM      2  CAL MOL d          -0.975   0.844  -5.647  0.00  0.00     0.054 A 
ATOM      3  CAN MOL d           0.854  -0.808  -4.417  0.00  0.00     0.102 A 
ATOM      4  CAP MOL d           0.026  -0.021  -3.648  0.00  0.00     0.132 A 
ATOM      5  CAQ MOL d          -0.219   0.126  -6.376  0.00  0.00     0.020 A 
ATOM      6  CAS MOL d          -0.852   0.784  -4.322  0.00  0.00     0.139 A 
ENDROOT
BRANCH   5   7
ATOM      7  CAM MOL d          -0.612   0.415  -7.790  0.00  0.00     0.195 C 
ATOM      8  OAA MOL d          -1.228   1.444  -8.096  0.00  0.00    -0.287 OA
BRANCH   7   9
ATOM      9  CAR MOL d          -0.270  -0.590  -8.793  0.00  0.00     0.053 A 
ATOM     10  CAJ MOL d          -0.391  -1.929  -8.491  0.00  0.00     0.018 A 
ATOM     11  CAH MOL d          -0.042  -2.865  -9.443  0.00  0.00     0.001 A 
ATOM     12  CAG MOL d           0.479  -2.544 -10.667  0.00  0.00     0.003 A 
ATOM     13  CAI MOL d           0.552  -1.199 -10.979  0.00  0.00     0.043 A 
ATOM     14  CAO MOL d           0.166  -0.204 -10.055  0.00  0.00     0.130 A 
ATOM     15  FAF MOL d           0.255   1.080 -10.373  0.00  0.00    -0.205 F 
ENDBRANCH   7   9
ENDBRANCH   5   7
BRANCH   3  16
ATOM     16  OAC MOL d           1.750  -1.620  -3.820  0.00  0.00    -0.358 OA
ATOM     17  H1  MOL d           1.678  -1.530  -2.877  0.00  0.00     0.217 HD
ENDBRANCH   3  16
BRANCH   6  18
ATOM     18  NAT MOL d          -1.718   1.560  -3.873  0.00  0.00    -0.113 N 
ATOM     19  OAB MOL d          -1.890   1.625  -2.619  0.00  0.00    -0.532 OA
ATOM     20  OAE MOL d          -2.576   2.157  -4.762  0.00  0.00    -0.532 OA
ENDBRANCH   6  18
BRANCH   4  21
ATOM     21  OAD MOL d           0.043   0.001  -2.286  0.00  0.00    -0.356 OA
ATOM     22  H2  MOL d          -0.611   0.615  -1.972  0.00  0.00     0.218 HD
ENDBRANCH   4  21
TORSDOF 5
