REMARK  11 active torsions:
REMARK  status: ('A' for Active; 'I' for Inactive)
REMARK    1  A    between atoms: N7_7  and  C10_10 
REMARK    2  A    between atoms: C8_8  and  C31_20 
REMARK    3  A    between atoms: C10_10  and  C11_11 
REMARK    4  A    between atoms: C17_15  and  C19_17 
REMARK    5  A    between atoms: C19_17  and  N20_18 
REMARK    6  A    between atoms: C19_17  and  N21_19 
REMARK    7  A    between atoms: C31_20  and  O32_21 
REMARK    8  A    between atoms: O32_21  and  C33_22 
REMARK    9  A    between atoms: C33_22  and  C34_23 
REMARK   10  A    between atoms: C40_27  and  C42_29 
REMARK   11  A    between atoms: C42_29  and  N43_30 
ROOT
ATOM      1  C1  CBB d           3.821   9.875  26.113  0.00  0.00     0.002 A 
ATOM      2  C2  CBB d           4.901   8.990  25.932  0.00  0.00     0.030 A 
ATOM      3  C3  CBB d           5.331   8.698  24.620  0.00  0.00     0.045 A 
ATOM      4  C4  CBB d           4.669   9.265  23.482  0.00  0.00    -0.007 A 
ATOM      5  C5  CBB d           3.594  10.167  23.685  0.00  0.00     0.014 A 
ATOM      6  C6  CBB d           3.176  10.478  25.002  0.00  0.00     0.001 A 
ATOM      7  N7  CBB d           6.346   7.887  24.136  0.00  0.00    -0.337 N 
ATOM      8  C8  CBB d           6.338   7.891  22.788  0.00  0.00     0.112 A 
ATOM      9  C9  CBB d           5.305   8.746  22.331  0.00  0.00     0.050 A 
ENDROOT
BRANCH   8  10
ATOM     10  C31 CBB d           7.159   7.101  21.987  0.00  0.00     0.310 C 
ATOM     11  O49 CBB d           8.175   6.592  22.353  0.00  0.00    -0.258 OA
BRANCH  10  12
ATOM     12  O32 CBB d           6.710   6.924  20.762  0.00  0.00    -0.312 OA
BRANCH  12  13
ATOM     13  C33 CBB d           7.481   6.123  19.821  0.00  0.00     0.217 C 
BRANCH  13  14
ATOM     14  C34 CBB d           7.476   4.624  20.112  0.00  0.00    -0.033 A 
ATOM     15  C37 CBB d           6.762   4.010  21.176  0.00  0.00     0.009 A 
ATOM     16  C38 CBB d           6.853   2.603  21.375  0.00  0.00     0.002 A 
ATOM     17  C39 CBB d           7.650   1.816  20.509  0.00  0.00     0.015 A 
ATOM     18  C40 CBB d           8.351   2.433  19.437  0.00  0.00     0.007 A 
ATOM     19  C41 CBB d           8.253   3.827  19.244  0.00  0.00     0.024 A 
BRANCH  18  20
ATOM     20  C42 CBB d           9.241   1.716  18.526  0.00  0.00     0.102 C 
ATOM     21  N44 CBB d          10.175   0.905  19.014  0.00  0.00    -0.385 N 
ATOM     22  H24 CBB d          10.228   0.731  20.028  0.00  0.00     0.157 HD
ATOM     23  H25 CBB d          10.846   0.450  18.378  0.00  0.00     0.157 HD
BRANCH  20  24
ATOM     24  N43 CBB d           9.180   1.934  17.220  0.00  0.00    -0.385 N 
ATOM     25  H22 CBB d           9.810   1.426  16.583  0.00  0.00     0.157 HD
ATOM     26  H23 CBB d           8.503   2.612  16.842  0.00  0.00     0.157 HD
ENDBRANCH  20  24
ENDBRANCH  18  20
ENDBRANCH  13  14
ENDBRANCH  12  13
ENDBRANCH  10  12
ENDBRANCH   8  10
BRANCH   7  27
ATOM     27  C10 CBB d           7.206   7.105  24.998  0.00  0.00     0.168 C 
BRANCH  27  28
ATOM     28  C11 CBB d           8.522   7.750  25.298  0.00  0.00    -0.039 A 
ATOM     29  C14 CBB d           9.117   8.870  24.647  0.00  0.00     0.009 A 
ATOM     30  C15 CBB d          10.385   9.333  25.091  0.00  0.00     0.002 A 
ATOM     31  C16 CBB d          11.044   8.682  26.163  0.00  0.00     0.015 A 
ATOM     32  C17 CBB d          10.403   7.583  26.797  0.00  0.00     0.007 A 
ATOM     33  C18 CBB d           9.159   7.130  26.349  0.00  0.00     0.024 A 
BRANCH  32  34
ATOM     34  C19 CBB d          10.940   6.868  27.941  0.00  0.00     0.102 C 
BRANCH  34  35
ATOM     35  N20 CBB d          12.233   6.933  28.254  0.00  0.00    -0.385 N 
ATOM     36  H12 CBB d          12.592   6.417  29.070  0.00  0.00     0.157 HD
ATOM     37  H13 CBB d          12.874   7.499  27.680  0.00  0.00     0.157 HD
ENDBRANCH  34  35
BRANCH  34  38
ATOM     38  N21 CBB d          10.037   6.137  28.640  0.00  0.00    -0.385 N 
ATOM     39  H14 CBB d           9.049   6.125  28.350  0.00  0.00     0.157 HD
ATOM     40  H15 CBB d          10.339   5.593  29.461  0.00  0.00     0.157 HD
ENDBRANCH  34  38
ENDBRANCH  32  34
ENDBRANCH  27  28
ENDBRANCH   7  27
TORSDOF 11
