REMARK  1 active torsions:
REMARK  status: ('A' for Active; 'I' for Inactive)
REMARK    1  A    between atoms: N1_8  and  O1_9 
ROOT
ATOM      1  S1  MOL d          14.953   0.160  16.984  0.00  0.00    -0.057 SA
ATOM      2  C1  MOL d          15.452   1.364  15.825  0.00  0.00     0.134 A 
ATOM      3  C2  MOL d          15.034   2.711  15.976  0.00  0.00    -0.022 A 
ATOM      4  C6  MOL d          14.242   3.126  17.199  0.00  0.00     0.051 C 
ATOM      5  C3  MOL d          15.375   3.628  15.051  0.00  0.00     0.011 A 
ATOM      6  C4  MOL d          16.154   3.259  13.959  0.00  0.00     0.020 A 
ATOM      7  C5  MOL d          16.524   1.943  13.791  0.00  0.00     0.124 A 
ATOM      8  N1  MOL d          16.201   1.004  14.756  0.00  0.00    -0.225 N 
ENDROOT
BRANCH   8   9
ATOM      9  O1  MOL d          16.556  -0.274  14.589  0.00  0.00    -0.282 OA
ATOM     10  H7  MOL d          16.156  -0.612  13.796  0.00  0.00     0.245 HD
ENDBRANCH   8   9
TORSDOF 1
