REMARK  6 active torsions:
REMARK  status: ('A' for Active; 'I' for Inactive)
REMARK    1  A    between atoms: C4_2  and  S6_6 
REMARK    2  A    between atoms: S6_6  and  N11_8 
REMARK    3  A    between atoms: C22_10  and  C9_12 
REMARK    4  A    between atoms: C9_12  and  C10_14 
REMARK    5  A    between atoms: C10_14  and  S13_15 
REMARK    6  A    between atoms: S13_15  and  C14_16 
ROOT
ATOM      1  C2  E1E d          11.049  -4.456   9.591  0.00  0.00     0.040 A 
ATOM      2  C4  E1E d          12.357  -3.665   7.695  0.00  0.00     0.101 A 
ATOM      3  C5  E1E d          13.017  -4.918   7.618  0.00  0.00     0.028 A 
ATOM      4 CL1  E1E d          10.547  -1.908   8.760  0.00  0.00    -0.083 Cl
ATOM      5  C3  E1E d          11.392  -3.421   8.682  0.00  0.00     0.058 A 
ATOM      6  C22 E1E d          11.693  -5.672   9.527  0.00  0.00     0.012 A 
ATOM      7  C1  E1E d          12.685  -5.912   8.532  0.00  0.00     0.017 A 
ENDROOT
BRANCH   6   8
ATOM      8  C9  E1E d          11.282  -6.705  10.533  0.00  0.00     0.169 C 
ATOM      9  O12 E1E d          11.053  -6.336  11.711  0.00  0.00    -0.291 OA
BRANCH   8  10
ATOM     10  C10 E1E d          11.148  -8.143  10.105  0.00  0.00     0.166 C 
BRANCH  10  11
ATOM     11  S13 E1E d          10.809  -9.162  11.573  0.00  0.00    -0.082 SA
BRANCH  11  12
ATOM     12  C14 E1E d           9.021  -9.099  11.479  0.00  0.00     0.189 A 
ATOM     13  N17 E1E d           8.291  -8.415  10.522  0.00  0.00    -0.228 NA
ATOM     14  C18 E1E d           6.920  -8.475  10.554  0.00  0.00     0.035 A 
ATOM     15  C21 E1E d           6.122  -7.739   9.532  0.00  0.00     0.070 C 
ATOM     16  C19 E1E d           6.267  -9.240  11.553  0.00  0.00     0.053 A 
ATOM     17  C16 E1E d           7.050  -9.923  12.503  0.00  0.00     0.035 A 
ATOM     18  N15 E1E d           8.400  -9.821  12.445  0.00  0.00    -0.228 NA
ATOM     19  C20 E1E d           6.499 -10.767  13.607  0.00  0.00     0.070 C 
ENDBRANCH  11  12
ENDBRANCH  10  11
ENDBRANCH   8  10
ENDBRANCH   6   8
BRANCH   2  20
ATOM     20  S6  E1E d          12.840  -2.351   6.573  0.00  0.00     0.258 S 
ATOM     21  O8  E1E d          13.466  -1.308   7.480  0.00  0.00    -0.201 OA
ATOM     22  O7  E1E d          11.574  -1.773   5.661  0.00  0.00    -0.201 OA
BRANCH  20  23
ATOM     23  N11 E1E d          14.234  -2.982   5.559  0.00  0.00    -0.324 N 
ATOM     24  H3  E1E d          14.652  -2.396   4.865  0.00  0.00     0.169 HD
ATOM     25  H4  E1E d          14.575  -3.911   5.701  0.00  0.00     0.169 HD
ENDBRANCH  20  23
ENDBRANCH   2  20
TORSDOF 6
