REMARK  7 active torsions:
REMARK  status: ('A' for Active; 'I' for Inactive)
REMARK    1  A    between atoms: C2_2  and  C6_6 
REMARK    2  A    between atoms: C3_3  and  O20_16 
REMARK    3  A    between atoms: C5_5  and  C9_9 
REMARK    4  A    between atoms: C11_11  and  N27_21 
REMARK    5  A    between atoms: O20_16  and  C21_17 
REMARK    6  A    between atoms: C21_17  and  C22_18 
REMARK    7  A    between atoms: N27_21  and  C28_22 
ROOT
ATOM      1  S1  MOL d          44.651  14.074   0.621  0.00  0.00    -0.078 SA
ATOM      2  C2  MOL d          44.790  15.482   1.571  0.00  0.00     0.117 A 
ATOM      3  C3  MOL d          45.694  15.246   2.640  0.00  0.00     0.112 A 
ATOM      4  C4  MOL d          46.229  13.927   2.620  0.00  0.00     0.064 A 
ATOM      5  C5  MOL d          45.734  13.135   1.547  0.00  0.00     0.036 A 
ATOM      6 BR19 MOL d          47.477  13.332   3.945  0.00  0.00    -0.047 Br
ENDROOT
BRANCH   5   7
ATOM      7  C9  MOL d          46.016  11.711   1.183  0.00  0.00    -0.015 A 
ATOM      8  C10 MOL d          47.261  11.037   1.445  0.00  0.00     0.042 A 
ATOM      9  C11 MOL d          47.405   9.664   1.072  0.00  0.00     0.029 A 
ATOM     10  C12 MOL d          46.329   8.956   0.440  0.00  0.00     0.029 A 
ATOM     11  C13 MOL d          45.095   9.613   0.173  0.00  0.00     0.003 A 
ATOM     12  C14 MOL d          44.949  10.980   0.549  0.00  0.00     0.013 A 
BRANCH   9  13
ATOM     13  N27 MOL d          48.621   8.965   1.342  0.00  0.00    -0.385 N 
ATOM     14  H7  MOL d          49.406   9.565   1.050  0.00  0.00     0.160 HD
BRANCH  13  15
ATOM     15  C28 MOL d          49.155   7.765   1.857  0.00  0.00     0.081 C 
ATOM     16  C30 MOL d          50.680   7.822   2.038  0.00  0.00     0.025 C 
ATOM     17  C31 MOL d          51.158   6.452   2.580  0.00  0.00     0.002 C 
ATOM     18  C32 MOL d          50.428   6.046   3.893  0.00  0.00     0.000 C 
ATOM     19  C33 MOL d          48.879   6.119   3.778  0.00  0.00     0.002 C 
ATOM     20  C34 MOL d          48.424   7.470   3.193  0.00  0.00     0.025 C 
ENDBRANCH  13  15
ENDBRANCH   9  13
ENDBRANCH   5   7
BRANCH   2  21
ATOM     21  C6  MOL d          44.057  16.643   1.248  0.00  0.00     0.219 C 
ATOM     22  O7  MOL d          43.498  16.680   0.150  0.00  0.00    -0.643 OA
ATOM     23  O8  MOL d          43.981  17.581   2.036  0.00  0.00    -0.643 OA
ENDBRANCH   2  21
BRANCH   3  24
ATOM     24  O20 MOL d          46.063  16.174   3.649  0.00  0.00    -0.338 OA
BRANCH  24  25
ATOM     25  C21 MOL d          47.249  16.932   3.412  0.00  0.00     0.288 C 
BRANCH  25  26
ATOM     26  C22 MOL d          47.651  17.592   4.727  0.00  0.00     0.198 C 
ATOM     27  O25 MOL d          46.877  17.525   5.697  0.00  0.00    -0.646 OA
ATOM     28  O26 MOL d          48.732  18.166   4.783  0.00  0.00    -0.646 OA
ENDBRANCH  25  26
ENDBRANCH  24  25
ENDBRANCH   3  24
TORSDOF 7
