REMARK  7 active torsions:
REMARK  status: ('A' for Active; 'I' for Inactive)
REMARK    1  A    between atoms: SBD_2  and  NAD_4 
REMARK    2  A    between atoms: SBD_2  and  OAS_5 
REMARK    3  A    between atoms: OAS_5  and  CAX_6 
REMARK    4  A    between atoms: CAT_22  and  CAK_23 
REMARK    5  A    between atoms: CAV_25  and  OAR_26 
REMARK    6  A    between atoms: OAR_26  and  SBC_27 
REMARK    7  A    between atoms: SBC_27  and  NAC_30 
ROOT
ATOM      1  CAX WZB d          -4.478   2.193  14.815  0.00  0.00     0.152 C 
ATOM      2  CAM WZB d          -4.336   1.368  13.512  0.00  0.00     0.034 C 
ATOM      3  CAO WZB d          -3.338   2.159  12.643  0.00  0.00     0.008 C 
ATOM      4  CBB WZB d          -4.272   3.640  14.369  0.00  0.00    -0.012 C 
ATOM      5  CBA WZB d          -2.970   3.309  13.595  0.00  0.00     0.001 C 
ATOM      6  CAB WZB d          -5.518   4.093  13.518  0.00  0.00     0.018 C 
ATOM      7  CAQ WZB d          -4.029   4.739  15.434  0.00  0.00     0.013 C 
ATOM      8  CAP WZB d          -3.279   5.979  14.885  0.00  0.00     0.010 C 
ATOM      9  CAY WZB d          -1.996   5.575  14.109  0.00  0.00     0.024 C 
ATOM     10  CAZ WZB d          -2.310   4.564  12.931  0.00  0.00    -0.001 C 
ATOM     11  CAN WZB d          -1.013   4.199  12.153  0.00  0.00     0.010 C 
ATOM     12  CAL WZB d          -0.409   5.462  11.465  0.00  0.00     0.039 C 
ATOM     13  CAU WZB d          -0.490   6.733  12.322  0.00  0.00    -0.049 A 
ATOM     14  CAI WZB d           0.212   7.925  11.883  0.00  0.00     0.046 A 
ATOM     15  CAW WZB d          -1.244   6.784  13.567  0.00  0.00    -0.047 A 
ATOM     16  CAJ WZB d          -1.096   7.994  14.047  0.00  0.00     0.018 A 
ATOM     17  CAT WZB d          -0.564   9.186  13.890  0.00  0.00    -0.023 A 
ATOM     18  CAV WZB d           0.189   9.150  12.643  0.00  0.00     0.098 A 
ENDROOT
BRANCH   1  19
ATOM     19  OAS WZB d          -5.745   1.974  15.458  0.00  0.00    -0.254 OA
BRANCH  19  20
ATOM     20  SBD WZB d          -5.844   1.123  16.859  0.00  0.00     0.355 S 
ATOM     21  OAH WZB d          -7.259   1.081  17.195  0.00  0.00    -0.176 OA
ATOM     22  OAG WZB d          -5.064   1.720  17.890  0.00  0.00    -0.176 OA
BRANCH  20  23
ATOM     23  NAD WZB d          -5.257  -0.257  16.596  0.00  0.00    -0.306 N 
ATOM     24  H1  WZB d          -5.224  -0.934  17.331  0.00  0.00     0.171 HD
ATOM     25  H2  WZB d          -4.905  -0.486  15.688  0.00  0.00     0.171 HD
ENDBRANCH  20  23
ENDBRANCH  19  20
ENDBRANCH   1  19
BRANCH  17  26
ATOM     26  CAK WZB d          -0.683  10.394  14.814  0.00  0.00     0.037 C 
ATOM     27  CAA WZB d          -1.882  11.221  14.368  0.00  0.00     0.010 C 
ENDBRANCH  17  26
BRANCH  18  28
ATOM     28  OAR WZB d           0.893  10.247  12.161  0.00  0.00    -0.216 OA
BRANCH  28  29
ATOM     29  SBC WZB d           2.543  10.254  12.257  0.00  0.00     0.360 S 
ATOM     30  OAF WZB d           3.008  11.647  12.059  0.00  0.00    -0.176 OA
ATOM     31  OAE WZB d           3.116   9.406  11.188  0.00  0.00    -0.176 OA
BRANCH  29  32
ATOM     32  NAC WZB d           3.041   9.733  13.605  0.00  0.00    -0.305 N 
ATOM     33  H29 WZB d           4.022   9.686  13.791  0.00  0.00     0.171 HD
ATOM     34  H30 WZB d           2.385   9.439  14.301  0.00  0.00     0.171 HD
ENDBRANCH  29  32
ENDBRANCH  28  29
ENDBRANCH  18  28
TORSDOF 7
