REMARK  9 active torsions:
REMARK  status: ('A' for Active; 'I' for Inactive)
REMARK    1  A    between atoms: C2_4  and  C3_1 
REMARK    2  A    between atoms: N2_2  and  C13_15 
REMARK    3  A    between atoms: C9_23  and  O2_5 
REMARK    4  A    between atoms: O2_5  and  C10_25 
REMARK    5  A    between atoms: C17_9  and  N6_8 
REMARK    6  A    between atoms: C15_14  and  C16_13 
REMARK    7  A    between atoms: C4_17  and  C5_18 
REMARK    8  A    between atoms: C5_18  and  O1_21 
REMARK    9  A    between atoms: C10_25  and  C11_26 
ROOT
ATOM      1  N2  G93 d          22.356 -18.599   9.703  0.00  0.00    -0.326 N 
ATOM      2  N3  G93 d          22.853 -16.829   8.364  0.00  0.00    -0.223 NA
ATOM      3  C2  G93 d          23.230 -18.192   6.272  0.00  0.00     0.141 A 
ATOM      4  N1  G93 d          23.212 -19.460   5.809  0.00  0.00    -0.247 NA
ATOM      5  C1  G93 d          22.919 -17.947   7.613  0.00  0.00     0.126 A 
ATOM      6  C15 G93 d          22.509 -17.261   9.599  0.00  0.00     0.166 A 
ATOM      7  C12 G93 d          22.615 -19.029   8.449  0.00  0.00     0.103 A 
ATOM      8  C9  G93 d          22.609 -20.337   7.946  0.00  0.00     0.115 A 
ATOM      9  C8  G93 d          22.922 -20.507   6.593  0.00  0.00     0.157 A 
ENDROOT
BRANCH   8  10
ATOM     10  O2  G93 d          22.308 -21.434   8.724  0.00  0.00    -0.347 OA
BRANCH  10  11
ATOM     11  C10 G93 d          22.036 -22.721   8.149  0.00  0.00     0.182 C 
BRANCH  11  12
ATOM     12  C11 G93 d          21.489 -23.699   9.184  0.00  0.00     0.036 C 
ATOM     13  C18 G93 d          20.195 -23.178   9.795  0.00  0.00     0.239 C 
ATOM     14  N7  G93 d          19.747 -24.015  10.902  0.00  0.00    -0.075 N 
ATOM     15  C19 G93 d          20.667 -24.607  11.858  0.00  0.00     0.232 C 
ATOM     16  H21 G93 d          19.244 -24.783  10.486  0.00  0.00     0.277 HD
ATOM     17  H22 G93 d          19.110 -23.449  11.441  0.00  0.00     0.277 HD
ATOM     18  C20 G93 d          22.000 -25.013  11.232  0.00  0.00     0.028 C 
ATOM     19  C21 G93 d          22.507 -23.927  10.293  0.00  0.00     0.010 C 
ENDBRANCH  11  12
ENDBRANCH  10  11
ENDBRANCH   8  10
BRANCH   1  20
ATOM     20  C13 G93 d          21.973 -19.395  10.885  0.00  0.00     0.126 C 
ATOM     21  C14 G93 d          23.160 -19.998  11.598  0.00  0.00     0.027 C 
ENDBRANCH   1  20
BRANCH   6  22
ATOM     22  C16 G93 d          22.356 -16.272  10.726  0.00  0.00     0.179 A 
ATOM     23  C17 G93 d          22.313 -14.895  10.538  0.00  0.00     0.186 A 
ATOM     24  N5  G93 d          22.187 -14.209  11.686  0.00  0.00    -0.085 NA
ATOM     25  O3  G93 d          22.190 -15.283  12.642  0.00  0.00    -0.104 OA
ATOM     26  N4  G93 d          22.311 -16.593  12.041  0.00  0.00    -0.097 NA
BRANCH  23  27
ATOM     27  N6  G93 d          22.362 -14.292   9.314  0.00  0.00    -0.380 N 
ATOM     28  H1  G93 d          22.459 -14.863   8.462  0.00  0.00     0.158 HD
ATOM     29  H2  G93 d          22.302 -13.266   9.242  0.00  0.00     0.158 HD
ENDBRANCH  23  27
ENDBRANCH   6  22
BRANCH   3  30
ATOM     30  C3  G93 d          23.495 -17.251   5.431  0.00  0.00    -0.041 C 
ATOM     31  C4  G93 d          23.758 -16.535   4.508  0.00  0.00    -0.062 C 
BRANCH  31  32
ATOM     32  C5  G93 d          23.836 -15.626   3.343  0.00  0.00     0.114 C 
ATOM     33  C7  G93 d          23.025 -14.366   3.627  0.00  0.00     0.060 C 
ATOM     34  C6  G93 d          25.295 -15.276   3.082  0.00  0.00     0.060 C 
BRANCH  32  35
ATOM     35  O1  G93 d          23.324 -16.280   2.178  0.00  0.00    -0.378 OA
ATOM     36  H14 G93 d          23.833 -17.064   2.007  0.00  0.00     0.211 HD
ENDBRANCH  32  35
ENDBRANCH  31  32
ENDBRANCH   3  30
TORSDOF 9
