REMARK  5 active torsions:
REMARK  status: ('A' for Active; 'I' for Inactive)
REMARK       I    between atoms: C7_2  and  N2_4 
REMARK    1  A    between atoms: N2_4  and  C2_5 
REMARK    2  A    between atoms: C3_6  and  O3_7 
REMARK    3  A    between atoms: C4_8  and  O4_9 
REMARK    4  A    between atoms: C5_10  and  C6_11 
REMARK    5  A    between atoms: C6_11  and  O6_12 
ROOT
ATOM      1  C2  LTM d           7.766 -11.639   3.753  0.00  0.00     0.207 C 
ATOM      2  C3  LTM d           7.482 -10.563   2.711  0.00  0.00     0.180 C 
ATOM      3  C4  LTM d           6.622 -11.153   1.587  0.00  0.00     0.174 C 
ATOM      4  C5  LTM d           5.283 -11.534   2.213  0.00  0.00     0.139 C 
ATOM      5  N5  LTM d           5.538 -12.706   3.085  0.00  0.00    -0.350 N 
ATOM      6  C1  LTM d           6.657 -12.663   3.882  0.00  0.00     0.243 C 
ATOM      7  O1  LTM d           6.753 -13.527   4.749  0.00  0.00    -0.271 OA
ATOM      8  H14 LTM d           4.922 -13.494   3.093  0.00  0.00     0.163 HD
ENDROOT
BRANCH   1   9
ATOM      9  N2  LTM d           8.128 -11.039   5.069  0.00  0.00    -0.346 N 
ATOM     10  C7  LTM d           7.115 -10.468   5.832  0.00  0.00     0.214 C 
ATOM     11  O7  LTM d           5.942 -10.473   5.493  0.00  0.00    -0.274 OA
ATOM     12  C8  LTM d           7.516  -9.827   7.127  0.00  0.00     0.117 C 
ATOM     13  H4  LTM d           9.074 -11.047   5.394  0.00  0.00     0.163 HD
ENDBRANCH   1   9
BRANCH   2  14
ATOM     14  O3  LTM d           8.777 -10.162   2.235  0.00  0.00    -0.390 OA
ATOM     15  H7  LTM d           8.675  -9.486   1.575  0.00  0.00     0.210 HD
ENDBRANCH   2  14
BRANCH   3  16
ATOM     16  O4  LTM d           6.450 -10.183   0.550  0.00  0.00    -0.391 OA
ATOM     17  H9  LTM d           7.300  -9.939   0.202  0.00  0.00     0.210 HD
ENDBRANCH   3  16
BRANCH   4  18
ATOM     18  C6  LTM d           4.226 -11.973   1.205  0.00  0.00     0.191 C 
BRANCH  18  19
ATOM     19  O6  LTM d           4.806 -13.080   0.477  0.00  0.00    -0.399 OA
ATOM     20  H13 LTM d           4.184 -13.394  -0.169  0.00  0.00     0.209 HD
ENDBRANCH  18  19
ENDBRANCH   4  18
TORSDOF 5
