REMARK  5 active torsions:
REMARK  status: ('A' for Active; 'I' for Inactive)
REMARK    1  A    between atoms: C6_6  and  S1_7 
REMARK    2  A    between atoms: S1_7  and  N1_10 
REMARK    3  A    between atoms: N1_10  and  C7_11 
REMARK    4  A    between atoms: C8_15  and  S3_16 
REMARK    5  A    between atoms: S3_16  and  N4_19 
ROOT
ATOM      1  C7  D8W d          -4.794   3.614  13.868  0.00  0.00     0.204 A 
ATOM      2  S2  D8W d          -5.929   3.440  15.133  0.00  0.00    -0.015 SA
ATOM      3  N2  D8W d          -3.919   2.582  13.798  0.00  0.00    -0.122 NA
ATOM      4  N3  D8W d          -4.167   1.623  14.817  0.00  0.00    -0.126 NA
ATOM      5  C8  D8W d          -5.209   1.938  15.606  0.00  0.00     0.237 A 
ENDROOT
BRANCH   1   6
ATOM      6  N1  D8W d          -4.770   4.671  13.015  0.00  0.00    -0.257 N 
ATOM      7  H6  D8W d          -4.340   4.508  12.127  0.00  0.00     0.181 HD
BRANCH   6   8
ATOM      8  S1  D8W d          -5.314   6.065  13.244  0.00  0.00     0.264 S 
ATOM      9  O1  D8W d          -6.234   6.291  14.344  0.00  0.00    -0.200 OA
ATOM     10  O2  D8W d          -5.917   6.548  11.975  0.00  0.00    -0.200 OA
BRANCH   8  11
ATOM     11  C6  D8W d          -4.014   6.955  13.595  0.00  0.00     0.079 A 
ATOM     12  C1  D8W d          -3.748   7.217  14.930  0.00  0.00     0.025 A 
ATOM     13  C2  D8W d          -2.652   8.010  15.259  0.00  0.00     0.002 A 
ATOM     14  C3  D8W d          -1.877   8.530  14.225  0.00  0.00     0.000 A 
ATOM     15  C4  D8W d          -2.171   8.292  12.886  0.00  0.00     0.002 A 
ATOM     16  C5  D8W d          -3.266   7.485  12.557  0.00  0.00     0.025 A 
ENDBRANCH   8  11
ENDBRANCH   6   8
ENDBRANCH   1   6
BRANCH   5  17
ATOM     17  S3  D8W d          -5.916   0.903  16.706  0.00  0.00     0.282 S 
ATOM     18  O3  D8W d          -5.352   1.221  17.984  0.00  0.00    -0.199 OA
ATOM     19  O4  D8W d          -7.305   1.148  16.663  0.00  0.00    -0.199 OA
BRANCH  17  20
ATOM     20  N4  D8W d          -5.533  -0.579  16.299  0.00  0.00    -0.323 N 
ATOM     21  H7  D8W d          -5.866  -1.349  16.843  0.00  0.00     0.169 HD
ATOM     22  H8  D8W d          -4.958  -0.745  15.498  0.00  0.00     0.169 HD
ENDBRANCH  17  20
ENDBRANCH   5  17
TORSDOF 5
