REMARK  3 active torsions:
REMARK  status: ('A' for Active; 'I' for Inactive)
REMARK    1  A    between atoms: P_1  and  O1P_2 
REMARK    2  A    between atoms: O1P_2  and  C2_6 
REMARK    3  A    between atoms: C2_6  and  C1_7 
ROOT
ATOM      1  O1P PGA d          21.922  -2.191   7.702  0.00  0.00    -0.272 OA
ENDROOT
BRANCH   1   2
ATOM      2  P   PGA d          22.125  -1.695   6.149  0.00  0.00     0.422 P 
ATOM      3  O2P PGA d          21.802  -2.979   5.433  0.00  0.00    -0.617 OA
ATOM      4  O3P PGA d          23.554  -1.262   6.055  0.00  0.00    -0.617 OA
ATOM      5  O4P PGA d          21.101  -0.597   5.998  0.00  0.00    -0.617 OA
ENDBRANCH   1   2
BRANCH   1   6
ATOM      6  C2  PGA d          20.650  -2.203   8.365  0.00  0.00     0.295 C 
BRANCH   6   7
ATOM      7  C1  PGA d          20.981  -2.772   9.656  0.00  0.00     0.198 C 
ATOM      8  O1  PGA d          22.098  -2.582  10.405  0.00  0.00    -0.646 OA
ATOM      9  O2  PGA d          20.198  -3.636  10.339  0.00  0.00    -0.646 OA
ENDBRANCH   6   7
ENDBRANCH   1   6
TORSDOF 3
