REMARK  9 active torsions:
REMARK  status: ('A' for Active; 'I' for Inactive)
REMARK    1  A    between atoms: C15_3  and  C14_21 
REMARK    2  A    between atoms: C21_5  and  C22_6 
REMARK    3  A    between atoms: N20_25  and  C21_5 
REMARK    4  A    between atoms: C25_27  and  C26_8 
REMARK    5  A    between atoms: C03_12  and  C02_11 
REMARK    6  A    between atoms: N05_14  and  C06_15 
REMARK    7  A    between atoms: C19_24  and  C18_23 
REMARK    8  A    between atoms: C19_24  and  N20_25 
REMARK    9  A    between atoms: C29_29  and  C30_30 
ROOT
ATOM      1  C15 MOL d          -1.899  11.293  -0.026  0.00  0.00    -0.007 A 
ATOM      2  fur MOL d           0.489  11.060  -0.106  0.00  0.00     0.015 A 
ATOM      3  C16 MOL d          -0.744  11.007  -0.738  0.00  0.00     0.014 A 
ATOM      4  C18 MOL d           0.558  11.396   1.238  0.00  0.00     0.002 A 
ATOM      5  C37 MOL d          -0.593  11.674   1.950  0.00  0.00     0.015 A 
ATOM      6  C38 MOL d          -1.820  11.632   1.317  0.00  0.00     0.014 A 
ENDROOT
BRANCH   4   7
ATOM      7  C19 MOL d           1.866  11.450   1.939  0.00  0.00     0.107 C 
ATOM      8  S36 MOL d           1.945  10.789   3.465  0.00  0.00    -0.060 SA
BRANCH   7   9
ATOM      9  N20 MOL d           2.859  12.365   1.466  0.00  0.00    -0.376 N 
ATOM     10  H   MOL d           2.664  13.086   0.801  0.00  0.00     0.160 HD
BRANCH   9  11
ATOM     11  C21 MOL d           4.160  12.153   2.034  0.00  0.00     0.159 C 
BRANCH  11  12
ATOM     12  C22 MOL d           4.936  10.901   1.794  0.00  0.00    -0.041 A 
ATOM     13  C23 MOL d           6.037  10.666   2.600  0.00  0.00     0.010 A 
ATOM     14  C24 MOL d           6.806   9.532   2.416  0.00  0.00     0.015 A 
ATOM     15  C25 MOL d           6.469   8.624   1.427  0.00  0.00    -0.002 A 
ATOM     16  C34 MOL d           5.380   8.861   0.600  0.00  0.00     0.015 A 
ATOM     17  C35 MOL d           4.607  10.001   0.784  0.00  0.00     0.010 A 
BRANCH  15  18
ATOM     18  C26 MOL d           7.314   7.424   1.219  0.00  0.00     0.086 A 
ATOM     19  C27 MOL d           8.290   6.906   2.078  0.00  0.00     0.041 A 
ATOM     20  C28 MOL d           8.836   5.774   1.389  0.00  0.00     0.047 A 
ATOM     21  C29 MOL d           8.132   5.713   0.182  0.00  0.00     0.152 A 
ATOM     22  O33 MOL d           7.282   6.697   0.139  0.00  0.00    -0.303 OA
BRANCH  21  23
ATOM     23  C30 MOL d           8.279   4.749  -0.933  0.00  0.00     0.234 C 
ATOM     24  O31 MOL d           9.239   3.934  -0.971  0.00  0.00    -0.642 OA
ATOM     25  O32 MOL d           7.415   4.782  -1.848  0.00  0.00    -0.642 OA
ENDBRANCH  21  23
ENDBRANCH  15  18
ENDBRANCH  11  12
ENDBRANCH   9  11
ENDBRANCH   7   9
ENDBRANCH   4   7
BRANCH   1  26
ATOM     26  C14 MOL d          -3.215  11.230  -0.713  0.00  0.00     0.071 A 
ATOM     27  N05 MOL d          -4.351  10.752  -0.212  0.00  0.00    -0.233 N 
ATOM     28  N04 MOL d          -5.325  10.836  -1.095  0.00  0.00    -0.160 NA
ATOM     29  C03 MOL d          -4.871  11.355  -2.223  0.00  0.00     0.156 A 
ATOM     30  C39 MOL d          -3.488  11.636  -2.049  0.00  0.00     0.073 A 
BRANCH  27  31
ATOM     31  C06 MOL d          -4.522  10.250   1.112  0.00  0.00     0.060 A 
ATOM     32  C13 MOL d          -5.276  10.982   2.014  0.00  0.00     0.033 A 
ATOM     33  C12 MOL d          -5.451  10.526   3.308  0.00  0.00     0.028 A 
ATOM     34  C10 MOL d          -4.866   9.338   3.698  0.00  0.00     0.055 A 
ATOM     35  C08 MOL d          -4.105   8.612   2.798  0.00  0.00     0.058 A 
ATOM     36 CL1  MOL d          -5.103   8.786   5.314  0.00  0.00    -0.083 Cl
ATOM     37  C07 MOL d          -3.928   9.062   1.502  0.00  0.00     0.057 A 
ATOM     38 CL0  MOL d          -3.375   7.124   3.274  0.00  0.00    -0.082 Cl
ENDBRANCH  27  31
BRANCH  29  39
ATOM     39  C02 MOL d          -5.693  11.589  -3.439  0.00  0.00     0.230 C 
ATOM     40  O01 MOL d          -6.916  11.289  -3.415  0.00  0.00    -0.643 OA
ATOM     41  O40 MOL d          -5.162  12.066  -4.474  0.00  0.00    -0.643 OA
ENDBRANCH  29  39
ENDBRANCH   1  26
TORSDOF 9
