REMARK  4 active torsions:
REMARK  status: ('A' for Active; 'I' for Inactive)
REMARK    1  A    between atoms: C2_2  and  N1_1 
REMARK    2  A    between atoms: C3_3  and  C2_2 
REMARK    3  A    between atoms: S24_10  and  C3_3 
REMARK    4  A    between atoms: C5_4  and  S24_10 
ROOT
ATOM      1  C2  AT3 d          27.490  19.937  14.968  0.00  0.00     0.246 C 
ENDROOT
BRANCH   1   2
ATOM      2  N1  AT3 d          26.909  18.589  14.925  0.00  0.00    -0.078 N 
ATOM      3  C8  AT3 d          25.472  18.665  14.764  0.00  0.00     0.271 C 
ATOM      4  C9  AT3 d          27.439  17.742  13.871  0.00  0.00     0.271 C 
ATOM      5  C10 AT3 d          27.192  17.944  16.199  0.00  0.00     0.271 C 
ENDBRANCH   1   2
BRANCH   1   6
ATOM      6  C3  AT3 d          28.000  20.508  13.648  0.00  0.00     0.110 C 
BRANCH   6   7
ATOM      7  S24 AT3 d          29.634  19.952  13.259  0.00  0.00    -0.091 SA
BRANCH   7   8
ATOM      8  C5  AT3 d          29.545  19.082  11.860  0.00  0.00     0.182 C 
ATOM      9  O7  AT3 d          28.479  19.037  11.308  0.00  0.00    -0.286 OA
ATOM     10  C6  AT3 d          30.748  18.394  11.319  0.00  0.00     0.104 C 
ENDBRANCH   7   8
ENDBRANCH   6   7
ENDBRANCH   1   6
TORSDOF 4
