2ha5_ligand

Created by X-TOOL on Fri Sep 26 17:34:32 2014
 26 25  0  0  0  0  0  0  0  0999 V2000
   26.9090   18.5890   14.9250  N 0  3  0  1  0  4
   27.4900   19.9370   14.9680  C 0  0  0  3  0  4
   28.0000   20.5080   13.6480  C 0  0  0  3  0  4
   29.5450   19.0820   11.8600  C 0  0  0  1  0  3
   28.4790   19.0370   11.3080  O 0  0  0  1  0  1
   30.7480   18.3940   11.3190  C 0  0  0  4  0  4
   25.4720   18.6650   14.7640  C 0  0  0  4  0  4
   27.4390   17.7420   13.8710  C 0  0  0  4  0  4
   27.1920   17.9440   16.1990  C 0  0  0  4  0  4
   29.6340   19.9520   13.2590  S 0  0  0  1  0  2
   28.3370   19.9123   15.6694  H 0  0  0  1  0  1
   26.7174   20.6205   15.3500  H 0  0  0  1  0  1
   28.0076   21.6058   13.7174  H 0  0  0  1  0  1
   27.3196   20.1963   12.8419  H 0  0  0  1  0  1
   30.4841   17.8726   10.3871  H 0  0  0  1  0  1
   31.1156   17.6646   12.0557  H 0  0  0  1  0  1
   31.5337   19.1361   11.1141  H 0  0  0  1  0  1
   25.0522   17.6487   14.7336  H 0  0  0  1  0  1
   25.2353   19.1877   13.8255  H 0  0  0  1  0  1
   25.0368   19.2163   15.6106  H 0  0  0  1  0  1
   28.5318   17.6696   13.9735  H 0  0  0  1  0  1
   27.1907   18.1767   12.8915  H 0  0  0  1  0  1
   26.9961   16.7382   13.9496  H 0  0  0  1  0  1
   26.8010   18.5644   17.0189  H 0  0  0  1  0  1
   28.2792   17.8245   16.3160  H 0  0  0  1  0  1
   26.7096   16.9558   16.2249  H 0  0  0  1  0  1
  2  1  1  0  0  2
  1  7  1  0  0  2
  1  8  1  0  0  2
  1  9  1  0  0  2
  3  2  1  0  0  2
 10  3  1  0  0  2
  4  5  2  0  0  2
  4  6  1  0  0  2
  4 10  1  0  0  2
  2 11  1  0  0  2
  2 12  1  0  0  2
  3 13  1  0  0  2
  3 14  1  0  0  2
  6 15  1  0  0  2
  6 16  1  0  0  2
  6 17  1  0  0  2
  7 18  1  0  0  2
  7 19  1  0  0  2
  7 20  1  0  0  2
  8 21  1  0  0  2
  8 22  1  0  0  2
  8 23  1  0  0  2
  9 24  1  0  0  2
  9 25  1  0  0  2
  9 26  1  0  0  2
M  END
> <MOLECULAR_FORMULA>
C7H16NOS

> <MOLECULAR_WEIGHT>
162.2

> <NUM_HB_ATOMS>
2  

> <NUM_ROTOR>
3  

> <XLOGP2>
0.64 

$$$$
