REMARK  14 active torsions:
REMARK  status: ('A' for Active; 'I' for Inactive)
REMARK    1  A    between atoms: C2_1  and  O39_38 
REMARK    2  A    between atoms: S8_7  and  C5_4 
REMARK    3  A    between atoms: N11_10  and  S8_7 
REMARK    4  A    between atoms: N11_10  and  C12_11 
REMARK    5  A    between atoms: C16_15  and  N11_10 
REMARK    6  A    between atoms: C12_11  and  C13_12 
REMARK    7  A    between atoms: C17_16  and  C16_15 
REMARK    8  A    between atoms: C17_16  and  O18_17 
REMARK    9  A    between atoms: C19_18  and  C17_16 
REMARK   10  A    between atoms: C19_18  and  N20_19 
REMARK   11  A    between atoms: C32_31  and  C19_18 
REMARK       I    between atoms: N20_19  and  C21_20 
REMARK   12  A    between atoms: C21_20  and  O23_22 
REMARK   13  A    between atoms: O23_22  and  C24_23 
REMARK   14  A    between atoms: C38_37  and  C32_31 
ROOT
ATOM      1  C19 G52 d         -12.101 -19.234  18.610  0.00  0.00     0.120 C 
ENDROOT
BRANCH   1   2
ATOM      2  C17 G52 d         -13.589 -19.000  18.381  0.00  0.00     0.155 C 
BRANCH   2   3
ATOM      3  C16 G52 d         -14.421 -20.208  18.782  0.00  0.00     0.141 C 
BRANCH   3   4
ATOM      4  N11 G52 d         -14.243 -21.257  17.780  0.00  0.00    -0.204 NA
BRANCH   4   5
ATOM      5  S8  G52 d         -13.654 -22.655  18.415  0.00  0.00     0.243 S 
ATOM      6  O9  G52 d         -12.698 -22.268  19.503  0.00  0.00    -0.206 OA
ATOM      7  O10 G52 d         -13.005 -23.382  17.317  0.00  0.00    -0.206 OA
BRANCH   5   8
ATOM      8  C5  G52 d         -14.984 -23.592  19.064  0.00  0.00     0.074 C 
ATOM      9  C4  G52 d         -15.357 -23.422  20.375  0.00  0.00     0.027 C 
ATOM     10  C3  G52 d         -16.429 -24.148  20.869  0.00  0.00     0.038 C 
ATOM     11  C2  G52 d         -17.188 -24.992  20.057  0.00  0.00     0.068 C 
ATOM     12  C7  G52 d         -16.749 -25.236  18.767  0.00  0.00     0.038 C 
ATOM     13  C6  G52 d         -15.674 -24.496  18.273  0.00  0.00     0.027 C 
BRANCH  11  14
ATOM     14  O39 G52 d         -18.219 -25.627  20.654  0.00  0.00    -0.356 OA
ATOM     15  C40 G52 d         -19.044 -26.376  19.769  0.00  0.00     0.210 C 
ENDBRANCH  11  14
ENDBRANCH   5   8
ENDBRANCH   4   5
BRANCH   4  16
ATOM     16  C12 G52 d         -15.347 -21.412  16.859  0.00  0.00     0.111 C 
BRANCH  16  17
ATOM     17  C13 G52 d         -15.296 -20.440  15.673  0.00  0.00    -0.009 C 
ATOM     18  C14 G52 d         -13.967 -20.507  14.916  0.00  0.00     0.011 C 
ATOM     19  C15 G52 d         -16.398 -20.807  14.651  0.00  0.00     0.011 C 
ENDBRANCH  16  17
ENDBRANCH   4  16
ENDBRANCH   3   4
ENDBRANCH   2   3
BRANCH   2  20
ATOM     20  O18 G52 d         -14.064 -17.815  19.029  0.00  0.00    -0.392 OA
ATOM     21  H17 G52 d         -13.530 -17.075  18.764  0.00  0.00     0.210 HD
ENDBRANCH   2  20
ENDBRANCH   1   2
BRANCH   1  22
ATOM     22  N20 G52 d         -11.319 -18.192  17.962  0.00  0.00    -0.329 N 
ATOM     23  C21 G52 d         -10.523 -18.275  16.897  0.00  0.00     0.361 C 
ATOM     24  O22 G52 d         -10.333 -19.282  16.198  0.00  0.00    -0.238 OA
ATOM     25  H19 G52 d         -11.389 -17.284  18.375  0.00  0.00     0.165 HD
BRANCH  23  26
ATOM     26  O23 G52 d          -9.890 -17.106  16.615  0.00  0.00    -0.296 OA
BRANCH  26  27
ATOM     27  C24 G52 d          -8.932 -17.146  15.556  0.00  0.00     0.166 C 
ATOM     28  C25 G52 d          -9.164 -15.892  14.710  0.00  0.00     0.204 C 
ATOM     29  O26 G52 d          -8.505 -14.825  15.392  0.00  0.00    -0.358 OA
ATOM     30  C27 G52 d          -7.451 -15.340  16.208  0.00  0.00     0.270 C 
ATOM     31  O28 G52 d          -7.743 -15.008  17.570  0.00  0.00    -0.331 OA
ATOM     32  C31 G52 d          -7.523 -16.853  16.101  0.00  0.00     0.082 C 
ATOM     33  C29 G52 d          -7.716 -16.147  18.404  0.00  0.00     0.267 C 
ATOM     34  C30 G52 d          -7.300 -17.329  17.529  0.00  0.00     0.054 C 
ATOM     35  O41 G52 d          -6.703 -16.038  19.407  0.00  0.00    -0.361 OA
ATOM     36  C43 G52 d          -5.801 -17.443  17.857  0.00  0.00     0.036 C 
ATOM     37  C42 G52 d          -5.481 -16.223  18.700  0.00  0.00     0.171 C 
ENDBRANCH  26  27
ENDBRANCH  23  26
ENDBRANCH   1  22
BRANCH   1  38
ATOM     38  C32 G52 d         -11.753 -19.270  20.101  0.00  0.00     0.066 C 
BRANCH  38  39
ATOM     39  C38 G52 d         -10.270 -19.552  20.299  0.00  0.00    -0.056 C 
ATOM     40  C33 G52 d          -9.443 -18.522  20.739  0.00  0.00     0.007 C 
ATOM     41  C34 G52 d          -8.087 -18.765  20.814  0.00  0.00     0.001 C 
ATOM     42  C35 G52 d          -7.578 -19.999  20.438  0.00  0.00     0.000 C 
ATOM     43  C36 G52 d          -8.425 -21.054  20.125  0.00  0.00     0.001 C 
ATOM     44  C37 G52 d          -9.781 -20.816  20.013  0.00  0.00     0.007 C 
ENDBRANCH  38  39
ENDBRANCH   1  38
TORSDOF 14
