REMARK  6 active torsions:
REMARK  status: ('A' for Active; 'I' for Inactive)
REMARK    1  A    between atoms: C6_6  and  N6_7 
REMARK    2  A    between atoms: C9_10  and  C1'_11 
REMARK    3  A    between atoms: C2'_12  and  O2'_13 
REMARK    4  A    between atoms: C3'_14  and  O3'_15 
REMARK    5  A    between atoms: C4'_16  and  C5'_18 
REMARK    6  A    between atoms: C5'_18  and  O5'_19 
ROOT
ATOM      1  N1  FM2 d         144.539  70.248  64.745  0.00  0.00    -0.331 N 
ATOM      2  C2  FM2 d         143.735  69.698  63.719  0.00  0.00     0.211 A 
ATOM      3  N3  FM2 d         143.651  68.354  63.512  0.00  0.00    -0.239 NA
ATOM      4  C4  FM2 d         144.416  67.601  64.417  0.00  0.00     0.119 A 
ATOM      5  C5  FM2 d         145.226  68.064  65.477  0.00  0.00     0.124 A 
ATOM      6  C6  FM2 d         145.329  69.484  65.694  0.00  0.00     0.132 A 
ATOM      7  N7  FM2 d         145.811  67.005  66.139  0.00  0.00    -0.272 N 
ATOM      8  N8  FM2 d         145.383  65.949  65.500  0.00  0.00    -0.174 NA
ATOM      9  C9  FM2 d         144.538  66.215  64.436  0.00  0.00     0.117 A 
ATOM     10  C11 FM2 d         144.617  71.678  64.769  0.00  0.00     0.158 C 
ATOM     11  H4  FM2 d         146.442  67.039  66.952  0.00  0.00     0.189 HD
ENDROOT
BRANCH   9  12
ATOM     12  C1' FM2 d         144.025  65.011  63.623  0.00  0.00     0.209 C 
ATOM     13  C2' FM2 d         143.105  65.325  62.402  0.00  0.00     0.184 C 
ATOM     14  C3' FM2 d         143.929  64.787  61.174  0.00  0.00     0.180 C 
ATOM     15  C4' FM2 d         145.352  64.656  61.669  0.00  0.00     0.177 C 
ATOM     16  O4' FM2 d         145.199  64.358  63.097  0.00  0.00    -0.367 OA
BRANCH  13  17
ATOM     17  O2' FM2 d         141.842  64.702  62.574  0.00  0.00    -0.390 OA
ATOM     18  H7  FM2 d         141.961  63.762  62.643  0.00  0.00     0.210 HD
ENDBRANCH  13  17
BRANCH  14  19
ATOM     19  O3' FM2 d         143.449  63.531  60.660  0.00  0.00    -0.390 OA
ATOM     20  H9  FM2 d         142.548  63.630  60.375  0.00  0.00     0.210 HD
ENDBRANCH  14  19
BRANCH  15  21
ATOM     21  C5' FM2 d         146.188  65.962  61.428  0.00  0.00     0.198 C 
BRANCH  21  22
ATOM     22  O5' FM2 d         147.346  66.002  62.267  0.00  0.00    -0.398 OA
ATOM     23  H13 FM2 d         147.077  65.979  63.178  0.00  0.00     0.209 HD
ENDBRANCH  21  22
ENDBRANCH  15  21
ENDBRANCH   9  12
BRANCH   6  24
ATOM     24  N6  FM2 d         146.014  70.060  66.576  0.00  0.00    -0.383 N 
ATOM     25  H2  FM2 d         146.569  69.504  67.242  0.00  0.00     0.157 HD
ATOM     26  H3  FM2 d         146.020  71.088  66.633  0.00  0.00     0.157 HD
ENDBRANCH   6  24
TORSDOF 6
