REMARK  10 active torsions:
REMARK  status: ('A' for Active; 'I' for Inactive)
REMARK    1  A    between atoms: C2_2  and  C11_7 
REMARK    2  A    between atoms: N1_3  and  O1_32 
REMARK    3  A    between atoms: C11_7  and  C1_8 
REMARK    4  A    between atoms: C1_8  and  N18_9 
REMARK    5  A    between atoms: N18_9  and  C21_10 
REMARK    6  A    between atoms: N2_11  and  O28_16 
REMARK    7  A    between atoms: C10_12  and  C33_18 
REMARK    8  A    between atoms: C33_18  and  C34_19 
REMARK       I    between atoms: C34_19  and  N37_20 
REMARK    9  A    between atoms: N37_20  and  C39_22 
REMARK   10  A    between atoms: C39_22  and  C40_23 
ROOT
ATOM      1  C21 L17 d          18.256 -15.223  22.670  0.00  0.00     0.129 A 
ATOM      2  N2  L17 d          17.635 -14.123  22.138  0.00  0.00    -0.210 N 
ATOM      3  C10 L17 d          18.238 -13.414  21.162  0.00  0.00     0.072 A 
ATOM      4  C24 L17 d          19.523 -13.811  20.690  0.00  0.00     0.059 A 
ATOM      5  C25 L17 d          20.193 -14.953  21.211  0.00  0.00     0.030 A 
ATOM      6  C3  L17 d          19.547 -15.685  22.232  0.00  0.00     0.052 A 
ATOM      7 CL2  L17 d          20.283 -12.906  19.456  0.00  0.00    -0.082 Cl
ENDROOT
BRANCH   1   8
ATOM      8  N18 L17 d          17.560 -15.821  23.749  0.00  0.00    -0.368 N 
ATOM      9  H7  L17 d          16.659 -15.408  24.029  0.00  0.00     0.161 HD
BRANCH   8  10
ATOM     10  C1  L17 d          18.048 -17.012  24.506  0.00  0.00     0.207 C 
BRANCH  10  11
ATOM     11  C11 L17 d          18.732 -16.692  25.817  0.00  0.00     0.303 C 
ATOM     12  F1  L17 d          19.044 -17.900  26.334  0.00  0.00    -0.197 F 
ATOM     13  F2  L17 d          17.805 -16.093  26.600  0.00  0.00    -0.197 F 
BRANCH  11  14
ATOM     14  C2  L17 d          20.008 -15.863  25.667  0.00  0.00     0.112 A 
ATOM     15  C8  L17 d          20.015 -14.452  25.980  0.00  0.00     0.034 A 
ATOM     16  C6  L17 d          21.223 -13.728  25.678  0.00  0.00     0.004 A 
ATOM     17  C5  L17 d          22.375 -14.366  25.073  0.00  0.00     0.020 A 
ATOM     18  C4  L17 d          22.327 -15.773  24.783  0.00  0.00     0.123 A 
ATOM     19  N1  L17 d          21.159 -16.450  25.096  0.00  0.00    -0.234 N 
BRANCH  19  20
ATOM     20  O1  L17 d          21.114 -17.771  24.787  0.00  0.00    -0.283 OA
ATOM     21  H19 L17 d          20.272 -18.127  25.045  0.00  0.00     0.245 HD
ENDBRANCH  19  20
ENDBRANCH  11  14
ENDBRANCH  10  11
ENDBRANCH   8  10
ENDBRANCH   1   8
BRANCH   2  22
ATOM     22  O28 L17 d          16.394 -13.788  22.631  0.00  0.00    -0.281 OA
ATOM     23  H10 L17 d          15.757 -13.816  21.927  0.00  0.00     0.245 HD
ENDBRANCH   2  22
BRANCH   3  24
ATOM     24  C33 L17 d          17.518 -12.195  20.602  0.00  0.00     0.164 C 
BRANCH  24  25
ATOM     25  C34 L17 d          16.064 -12.532  20.269  0.00  0.00     0.223 C 
ATOM     26  N37 L17 d          15.188 -11.591  20.632  0.00  0.00    -0.352 N 
ATOM     27  H13 L17 d          15.500 -10.718  21.007  0.00  0.00     0.163 HD
ATOM     28  O38 L17 d          15.771 -13.573  19.687  0.00  0.00    -0.273 OA
BRANCH  26  29
ATOM     29  C39 L17 d          13.757 -11.868  20.467  0.00  0.00     0.113 C 
ATOM     30  C7  L17 d          13.174 -11.033  19.331  0.00  0.00     0.037 C 
BRANCH  29  31
ATOM     31  C40 L17 d          12.956 -11.596  21.678  0.00  0.00    -0.034 A 
ATOM     32  C43 L17 d          13.150 -10.394  22.451  0.00  0.00     0.033 A 
ATOM     33  C44 L17 d          12.264 -10.181  23.572  0.00  0.00     0.034 A 
ATOM     34  C45 L17 d          11.227 -11.141  23.924  0.00  0.00     0.024 A 
ATOM     35 CL1  L17 d          12.423  -8.735  24.495  0.00  0.00    -0.084 Cl
ATOM     36  C9  L17 d          11.018 -12.330  23.143  0.00  0.00     0.002 A 
ATOM     37  C50 L17 d          11.904 -12.533  22.022  0.00  0.00     0.009 A 
ENDBRANCH  29  31
ENDBRANCH  26  29
ENDBRANCH  24  25
ENDBRANCH   3  24
TORSDOF 10
