REMARK  1 active torsions:
REMARK  status: ('A' for Active; 'I' for Inactive)
REMARK    1  A    between atoms: C_1  and  C1_4 
ROOT
ATOM      1  C1  BEZ d          12.111   3.473  24.057  0.00  0.00     0.040 A 
ATOM      2  C2  BEZ d          12.767   3.776  25.250  0.00  0.00     0.018 A 
ATOM      3  C3  BEZ d          13.542   2.820  25.906  0.00  0.00     0.001 A 
ATOM      4  C4  BEZ d          13.655   1.565  25.341  0.00  0.00     0.000 A 
ATOM      5  C5  BEZ d          13.026   1.268  24.157  0.00  0.00     0.001 A 
ATOM      6  C6  BEZ d          12.249   2.202  23.485  0.00  0.00     0.018 A 
ENDROOT
BRANCH   1   7
ATOM      7  C   BEZ d          11.300   4.472  23.328  0.00  0.00     0.209 C 
ATOM      8  O2  BEZ d          10.848   5.555  23.937  0.00  0.00    -0.644 OA
ATOM      9  O1  BEZ d          10.997   4.285  22.163  0.00  0.00    -0.644 OA
ENDBRANCH   1   7
TORSDOF 1
