REMARK  6 active torsions:
REMARK  status: ('A' for Active; 'I' for Inactive)
REMARK    1  A    between atoms: N1_1  and  C3_2 
REMARK    2  A    between atoms: C3_2  and  C4_4 
REMARK    3  A    between atoms: C7_7  and  C10_10 
REMARK    4  A    between atoms: C17_17  and  C18_32 
REMARK    5  A    between atoms: N19_18  and  C23_22 
REMARK    6  A    between atoms: C23_22  and  C24_23 
ROOT
ATOM      1  C10 UIP d          15.540 -11.324  19.999  0.00  0.00     0.235 C 
ATOM      2  N11 UIP d          15.384 -12.539  19.131  0.00  0.00    -0.057 N 
ATOM      3  C12 UIP d          14.378 -12.405  18.040  0.00  0.00     0.236 C 
ATOM      4  C13 UIP d          15.181 -12.483  16.717  0.00  0.00     0.030 C 
ATOM      5  C14 UIP d          16.585 -12.044  17.090  0.00  0.00     0.035 C 
ATOM      6  C15 UIP d          16.741 -12.705  18.477  0.00  0.00     0.196 C 
ATOM      7  C16 UIP d          17.772 -11.860  19.298  0.00  0.00     0.055 C 
ATOM      8  C17 UIP d          18.875 -12.805  19.875  0.00  0.00     0.094 C 
ATOM      9  N19 UIP d          18.359 -13.241  21.142  0.00  0.00    -0.342 N 
ATOM     10  C20 UIP d          17.170 -12.642  21.489  0.00  0.00     0.227 C 
ATOM     11  O21 UIP d          16.600 -12.776  22.603  0.00  0.00    -0.273 OA
ATOM     12  C22 UIP d          16.966 -11.419  20.560  0.00  0.00     0.121 C 
ATOM     13  H10 UIP d          15.151 -13.338  19.700  0.00  0.00     0.281 HD
ENDROOT
BRANCH   1  14
ATOM     14  C7  UIP d          14.408 -11.194  20.980  0.00  0.00    -0.027 A 
ATOM     15  C8  UIP d          13.658 -12.305  21.375  0.00  0.00     0.010 A 
ATOM     16  C9  UIP d          12.595 -12.166  22.284  0.00  0.00     0.016 A 
ATOM     17  C4  UIP d          12.276 -10.907  22.815  0.00  0.00     0.007 A 
ATOM     18  C5  UIP d          13.034  -9.790  22.422  0.00  0.00     0.016 A 
ATOM     19  C6  UIP d          14.064  -9.939  21.512  0.00  0.00     0.010 A 
BRANCH  17  20
ATOM     20  C3  UIP d          11.201 -10.807  23.738  0.00  0.00     0.102 C 
ATOM     21  N2  UIP d          10.816  -9.640  24.319  0.00  0.00    -0.385 N 
ATOM     22  H3  UIP d          11.314  -8.766  24.098  0.00  0.00     0.157 HD
ATOM     23  H4  UIP d          10.026  -9.630  24.980  0.00  0.00     0.157 HD
BRANCH  20  24
ATOM     24  N1  UIP d          10.478 -11.879  24.102  0.00  0.00    -0.385 N 
ATOM     25  H1  UIP d          10.699 -12.806  23.711  0.00  0.00     0.157 HD
ATOM     26  H2  UIP d           9.703 -11.774  24.772  0.00  0.00     0.157 HD
ENDBRANCH  20  24
ENDBRANCH  17  20
ENDBRANCH   1  14
BRANCH   8  27
ATOM     27  C18 UIP d          20.276 -12.147  19.973  0.00  0.00     0.021 C 
ATOM     28  C42 UIP d          20.902 -12.030  18.577  0.00  0.00     0.007 C 
ENDBRANCH   8  27
BRANCH   9  29
ATOM     29  C23 UIP d          18.859 -14.425  21.928  0.00  0.00     0.165 C 
BRANCH  29  30
ATOM     30  C24 UIP d          19.890 -14.126  22.997  0.00  0.00    -0.037 A 
ATOM     31  C32 UIP d          19.492 -13.694  24.304  0.00  0.00     0.012 A 
ATOM     32  C31 UIP d          20.382 -13.370  25.350  0.00  0.00     0.040 A 
ATOM     33  C30 UIP d          21.734 -13.458  25.011  0.00  0.00     0.105 A 
ATOM     34  O29 UIP d          22.827 -13.062  25.758  0.00  0.00    -0.323 OA
ATOM     35  C26 UIP d          22.166 -13.889  23.740  0.00  0.00     0.105 A 
ATOM     36  C28 UIP d          23.954 -13.711  25.073  0.00  0.00     0.352 C 
ATOM     37  O27 UIP d          23.552 -14.102  23.734  0.00  0.00    -0.323 OA
ATOM     38  C25 UIP d          21.262 -14.225  22.705  0.00  0.00     0.048 A 
ENDBRANCH  29  30
ENDBRANCH   9  29
TORSDOF 6
