REMARK  3 active torsions:
REMARK  status: ('A' for Active; 'I' for Inactive)
REMARK    1  A    between atoms: N8_4  and  C4_10 
REMARK    2  A    between atoms: C11_6  and  C14_7 
REMARK    3  A    between atoms: C5_11  and  O7_12 
ROOT
ATOM      1  O13 MOL d          10.695  45.904  27.620  0.00  0.00    -0.273 OA
ATOM      2  C9  MOL d          11.620  45.695  26.851  0.00  0.00     0.225 C 
ATOM      3  C10 MOL d          11.682  46.210  25.439  0.00  0.00     0.120 C 
ATOM      4  N8  MOL d          12.712  44.987  27.089  0.00  0.00    -0.315 N 
ATOM      5  C12 MOL d          13.614  44.769  25.969  0.00  0.00     0.148 C 
ATOM      6  C11 MOL d          12.801  45.373  24.819  0.00  0.00     0.114 C 
ENDROOT
BRANCH   4   7
ATOM      7  C4  MOL d          12.999  44.475  28.368  0.00  0.00     0.070 A 
ATOM      8  C5  MOL d          13.000  43.102  28.606  0.00  0.00     0.092 A 
ATOM      9  C6  MOL d          13.290  42.612  29.879  0.00  0.00     0.039 A 
ATOM     10  C1  MOL d          13.574  43.491  30.922  0.00  0.00     0.003 A 
ATOM     11  C2  MOL d          13.573  44.865  30.689  0.00  0.00     0.002 A 
ATOM     12  C3  MOL d          13.288  45.355  29.414  0.00  0.00     0.033 A 
BRANCH   8  13
ATOM     13  O7  MOL d          12.725  42.220  27.605  0.00  0.00    -0.358 OA
ATOM     14  H6  MOL d          12.770  41.334  27.944  0.00  0.00     0.217 HD
ENDBRANCH   8  13
ENDBRANCH   4   7
BRANCH   6  15
ATOM     15  C14 MOL d          12.216  44.271  23.981  0.00  0.00     0.179 C 
ATOM     16  O15 MOL d          11.020  43.942  24.151  0.00  0.00    -0.648 OA
ATOM     17  O16 MOL d          12.950  43.715  23.135  0.00  0.00    -0.648 OA
ENDBRANCH   6  15
TORSDOF 3
