REMARK  10 active torsions:
REMARK  status: ('A' for Active; 'I' for Inactive)
REMARK    1  A    between atoms: C1_1  and  C8_8 
REMARK    2  A    between atoms: C8_8  and  N7_7 
REMARK    3  A    between atoms: N7_7  and  C28_28 
REMARK    4  A    between atoms: C8_8  and  C9_9 
REMARK       I    between atoms: C9_9  and  N11_11 
REMARK    5  A    between atoms: C12_12  and  C13_13 
REMARK       I    between atoms: C13_13  and  N15_15 
REMARK    6  A    between atoms: N15_15  and  C16_16 
REMARK    7  A    between atoms: C16_16  and  C17_17 
REMARK    8  A    between atoms: C20_20  and  C23_23 
REMARK    9  A    between atoms: C23_23  and  N25_24 
REMARK   10  A    between atoms: C28_28  and  C29_29 
REMARK       I    between atoms: C29_29  and  N30_31 
ROOT
ATOM      1  C9  MVF d          17.986 -13.459  22.155  0.00  0.00     0.251 C 
ATOM      2  O0  MVF d          16.969 -12.875  22.485  0.00  0.00    -0.271 OA
ATOM      3  N11 MVF d          18.799 -12.900  21.227  0.00  0.00    -0.337 N 
ATOM      4  C12 MVF d          18.633 -11.702  20.390  0.00  0.00     0.180 C 
ATOM      5  C26 MVF d          19.794 -12.138  19.472  0.00  0.00     0.055 C 
ATOM      6  C27 MVF d          20.034 -13.251  20.497  0.00  0.00     0.129 C 
ENDROOT
BRANCH   1   7
ATOM      7  C8  MVF d          18.264 -14.782  22.810  0.00  0.00     0.281 C 
BRANCH   7   8
ATOM      8  C1  MVF d          18.826 -14.492  24.216  0.00  0.00     0.026 C 
ATOM      9  C2  MVF d          18.926 -15.791  25.038  0.00  0.00     0.007 C 
ATOM     10  C3  MVF d          19.463 -15.447  26.436  0.00  0.00     0.000 C 
ATOM     11  C4  MVF d          20.860 -14.805  26.334  0.00  0.00     0.000 C 
ATOM     12  C5  MVF d          20.794 -13.495  25.541  0.00  0.00     0.000 C 
ATOM     13  C6  MVF d          20.204 -13.784  24.144  0.00  0.00     0.007 C 
ENDBRANCH   7   8
BRANCH   7  14
ATOM     14  N7  MVF d          16.974 -15.526  22.862  0.00  0.00    -0.054 N 
ATOM     15  H12 MVF d          16.299 -14.941  23.329  0.00  0.00     0.278 HD
ATOM     16  H13 MVF d          17.123 -16.364  23.402  0.00  0.00     0.278 HD
BRANCH  14  17
ATOM     17  C28 MVF d          16.396 -15.928  21.551  0.00  0.00     0.335 C 
BRANCH  17  18
ATOM     18  C29 MVF d          14.957 -16.394  21.693  0.00  0.00     0.241 C 
ATOM     19  O30 MVF d          14.361 -16.355  22.755  0.00  0.00    -0.272 OA
ATOM     20  N30 MVF d          14.300 -16.885  20.625  0.00  0.00    -0.369 N 
ATOM     21  H33 MVF d          13.353 -17.192  20.718  0.00  0.00     0.159 HD
ATOM     22  H34 MVF d          14.759 -16.943  19.739  0.00  0.00     0.159 HD
ENDBRANCH  17  18
ENDBRANCH  14  17
ENDBRANCH   7  14
ENDBRANCH   1   7
BRANCH   4  23
ATOM     23  C13 MVF d          17.243 -11.820  19.807  0.00  0.00     0.240 C 
ATOM     24  O14 MVF d          16.939 -12.863  19.254  0.00  0.00    -0.271 OA
ATOM     25  N15 MVF d          16.314 -10.871  20.053  0.00  0.00    -0.355 N 
ATOM     26  H16 MVF d          16.557 -10.049  20.568  0.00  0.00     0.162 HD
BRANCH  25  27
ATOM     27  C16 MVF d          14.951 -11.057  19.560  0.00  0.00     0.161 C 
BRANCH  27  28
ATOM     28  C17 MVF d          13.978 -11.011  20.709  0.00  0.00    -0.040 A 
ATOM     29  C22 MVF d          13.659 -12.170  21.404  0.00  0.00     0.010 A 
ATOM     30  C21 MVF d          12.739 -12.123  22.444  0.00  0.00     0.016 A 
ATOM     31  C20 MVF d          12.156 -10.888  22.802  0.00  0.00     0.007 A 
ATOM     32  C19 MVF d          12.501  -9.721  22.097  0.00  0.00     0.016 A 
ATOM     33  C18 MVF d          13.413  -9.791  21.060  0.00  0.00     0.010 A 
BRANCH  31  34
ATOM     34  C23 MVF d          11.165 -10.805  23.907  0.00  0.00     0.102 C 
ATOM     35  N24 MVF d          10.945  -9.667  24.505  0.00  0.00    -0.385 N 
ATOM     36  H25 MVF d          11.477  -8.829  24.230  0.00  0.00     0.157 HD
ATOM     37  H26 MVF d          10.239  -9.606  25.253  0.00  0.00     0.157 HD
BRANCH  34  38
ATOM     38  N25 MVF d          10.433 -11.916  24.299  0.00  0.00    -0.385 N 
ATOM     39  H23 MVF d           9.751 -11.839  25.067  0.00  0.00     0.157 HD
ATOM     40  H24 MVF d          10.572 -12.818  23.822  0.00  0.00     0.157 HD
ENDBRANCH  34  38
ENDBRANCH  31  34
ENDBRANCH  27  28
ENDBRANCH  25  27
ENDBRANCH   4  23
TORSDOF 10
