2qrg_ligand

Created by X-TOOL on Fri Sep 26 17:34:40 2014
 42 44  0  0  0  0  0  0  0  0999 V2000
   37.2640   26.6140   35.0690  C 0  0  0  4  0  4
   37.9810   26.0510   33.9560  O 0  0  0  1  0  2
   37.1670   25.5740   32.9600  C 0  0  0  1  0  3
   37.7550   25.0240   31.8220  C 0  0  0  2  0  3
   36.9620   24.5260   30.7830  C 0  0  0  2  0  3
   35.7670   25.6230   33.0530  C 0  0  0  2  0  3
   34.9750   25.1210   32.0150  C 0  0  0  2  0  3
   35.5710   24.5660   30.8780  C 0  0  0  1  0  3
   34.7850   24.0860   29.8200  C 0  0  0  1  0  3
   35.2840   23.3430   28.5820  C 0  0  0  3  0  4
   33.4700   24.2530   29.6950  N 0  0  0  1  0  2
   32.9520   23.6970   28.4860  O 0  0  0  1  0  2
   33.9930   22.9180   27.8760  C 0  0  0  1  0  4
   33.7750   21.5110   28.1170  O 0  0  0  1  0  2
   32.5500   20.9950   27.5300  C 0  0  0  2  0  4
   32.4080   19.5330   27.9740  C 0  0  0  3  0  4
   33.4000   18.7350   27.3090  O 0  0  0  2  0  2
   32.5900   21.1640   25.9950  C 0  0  0  2  0  4
   31.3630   20.6960   25.4160  O 0  0  0  2  0  2
   32.8400   22.6280   25.6070  C 0  0  0  2  0  4
   33.0610   22.7310   24.1940  O 0  0  0  2  0  2
   34.0610   23.1980   26.3570  C 0  0  0  2  0  4
   34.1640   24.6070   26.1110  O 0  0  0  2  0  2
   37.9802   26.9731   35.8227  H 0  0  0  1  0  1
   36.6170   25.8445   35.5154  H 0  0  0  1  0  1
   36.6466   27.4548   34.7200  H 0  0  0  1  0  1
   38.8352   24.9819   31.7417  H 0  0  0  1  0  1
   37.4306   24.1070   29.8999  H 0  0  0  1  0  1
   35.2984   26.0511   33.9318  H 0  0  0  1  0  1
   33.8945   25.1623   32.0922  H 0  0  0  1  0  1
   35.8844   22.4659   28.8651  H 0  0  0  1  0  1
   35.8831   24.0059   27.9404  H 0  0  0  1  0  1
   31.6924   21.5654   27.9161  H 0  0  0  1  0  1
   31.4050   19.1654   27.7118  H 0  0  0  1  0  1
   32.5508   19.4643   29.0625  H 0  0  0  1  0  1
   34.2656   19.0538   27.5361  H 0  0  0  1  0  1
   33.4171   20.5556   25.6004  H 0  0  0  1  0  1
   31.3977   20.8042   24.4728  H 0  0  0  1  0  1
   31.9520   23.2195   25.8745  H 0  0  0  1  0  1
   33.2146   23.6399   23.9641  H 0  0  0  1  0  1
   34.9638   22.7091   25.9621  H 0  0  0  1  0  1
   33.3754   25.0393   26.4172  H 0  0  0  1  0  1
  1  2  1  0  0  2
  2  3  1  0  0  2
  3  4  4  0  0  1
  3  6  4  0  0  1
  4  5  4  0  0  1
  5  8  4  0  0  1
  6  7  4  0  0  1
  7  8  4  0  0  1
  8  9  1  0  0  2
  9 10  1  0  0  1
  9 11  2  0  0  1
 10 13  1  0  0  1
 11 12  1  0  0  1
 12 13  1  0  0  1
 13 14  1  0  0  1
 13 22  1  0  0  1
 14 15  1  0  0  1
 15 16  1  0  0  2
 15 18  1  0  0  1
 16 17  1  0  0  2
 18 19  1  0  0  2
 18 20  1  0  0  1
 20 21  1  0  0  2
 20 22  1  0  0  1
 22 23  1  0  0  2
  1 24  1  0  0  2
  1 25  1  0  0  2
  1 26  1  0  0  2
  4 27  1  0  0  2
  5 28  1  0  0  2
  6 29  1  0  0  2
  7 30  1  0  0  2
 10 31  1  0  0  2
 10 32  1  0  0  2
 15 33  1  0  0  2
 16 34  1  0  0  2
 16 35  1  0  0  2
 17 36  1  0  0  2
 18 37  1  0  0  2
 19 38  1  0  0  2
 20 39  1  0  0  2
 21 40  1  0  0  2
 22 41  1  0  0  2
 23 42  1  0  0  2
M  END
> <MOLECULAR_FORMULA>
C15H19NO7

> <MOLECULAR_WEIGHT>
325.2

> <NUM_HB_ATOMS>
8  

> <NUM_ROTOR>
2  

> <XLOGP2>
0.00 

$$$$
