REMARK  9 active torsions:
REMARK  status: ('A' for Active; 'I' for Inactive)
REMARK       I    between atoms: C16_2  and  N17_3 
REMARK    1  A    between atoms: C16_2  and  C15_17 
REMARK    2  A    between atoms: C20_12  and  C21_13 
REMARK    3  A    between atoms: C14_18  and  C13_19 
REMARK    4  A    between atoms: C10_20  and  O11_21 
REMARK    5  A    between atoms: C07_23  and  O08_24 
REMARK    6  A    between atoms: C05_27  and  C04_28 
REMARK    7  A    between atoms: C04_28  and  C03_29 
REMARK    8  A    between atoms: C34_32  and  N35_33 
REMARK    9  A    between atoms: C02_35  and  N01_36 
ROOT
ATOM      1  C13 53I d          18.088 -27.750  -1.942  0.00  0.00     0.001 A 
ATOM      2  C10 53I d          17.203 -26.765  -1.469  0.00  0.00     0.111 A 
ATOM      3  C07 53I d          15.885 -26.755  -1.917  0.00  0.00     0.102 A 
ATOM      4  C06 53I d          15.449 -27.742  -2.853  0.00  0.00     0.047 A 
ATOM      5  C05 53I d          16.332 -28.728  -3.320  0.00  0.00    -0.050 A 
ATOM      6  C31 53I d          17.640 -28.737  -2.883  0.00  0.00     0.022 A 
ENDROOT
BRANCH   1   7
ATOM      7  C14 53I d          19.512 -27.836  -1.507  0.00  0.00     0.020 C 
ATOM      8  C15 53I d          20.219 -26.735  -1.088  0.00  0.00     0.077 C 
BRANCH   8   9
ATOM      9  C16 53I d          21.553 -26.955  -0.326  0.00  0.00     0.267 C 
ATOM     10  O30 53I d          21.778 -26.286   0.711  0.00  0.00    -0.267 OA
ATOM     11  N17 53I d          22.560 -27.928  -0.792  0.00  0.00    -0.167 N 
ATOM     12  N18 53I d          22.338 -28.682  -1.909  0.00  0.00     0.014 N 
ATOM     13  C20 53I d          23.785 -28.087  -0.001  0.00  0.00     0.152 C 
ATOM     14  C19 53I d          23.359 -29.549  -2.376  0.00  0.00     0.299 C 
ATOM     15  H1  53I d          22.130 -28.042  -2.659  0.00  0.00     0.306 HD
ATOM     16  H2  53I d          21.529 -29.254  -1.722  0.00  0.00     0.306 HD
ATOM     17  C25 53I d          24.317 -30.068  -1.389  0.00  0.00    -0.022 A 
ATOM     18  C26 53I d          25.019 -31.304  -1.622  0.00  0.00     0.009 A 
ATOM     19  C24 53I d          24.527 -29.388  -0.261  0.00  0.00    -0.025 A 
ATOM     20  C27 53I d          25.929 -31.792  -0.650  0.00  0.00     0.001 A 
ATOM     21  C28 53I d          26.149 -31.090   0.515  0.00  0.00     0.001 A 
ATOM     22  C29 53I d          25.467 -29.895   0.744  0.00  0.00     0.010 A 
BRANCH  13  23
ATOM     23  C21 53I d          24.755 -26.926  -0.114  0.00  0.00     0.036 C 
ATOM     24  C22 53I d          24.747 -25.926  -1.046  0.00  0.00    -0.020 C 
ATOM     25  C23 53I d          24.621 -24.468  -0.600  0.00  0.00     0.009 C 
ATOM     26  C37 53I d          25.555 -26.165  -2.326  0.00  0.00     0.009 C 
ENDBRANCH  13  23
ENDBRANCH   8   9
ENDBRANCH   1   7
BRANCH   2  27
ATOM     27  O11 53I d          17.633 -25.798  -0.531  0.00  0.00    -0.352 OA
ATOM     28  C12 53I d          17.235 -24.480  -0.625  0.00  0.00     0.210 C 
ENDBRANCH   2  27
BRANCH   3  29
ATOM     29  O08 53I d          14.959 -25.793  -1.471  0.00  0.00    -0.353 OA
ATOM     30  C09 53I d          13.612 -25.829  -1.938  0.00  0.00     0.210 C 
ENDBRANCH   3  29
BRANCH   5  31
ATOM     31  C04 53I d          15.828 -29.744  -4.318  0.00  0.00     0.082 C 
BRANCH  31  32
ATOM     32  C03 53I d          16.093 -31.207  -4.049  0.00  0.00     0.010 A 
ATOM     33  C32 53I d          16.560 -31.768  -2.832  0.00  0.00     0.147 A 
ATOM     34  N33 53I d          16.738 -33.148  -2.764  0.00  0.00    -0.075 NA
ATOM     35  C34 53I d          16.465 -33.939  -3.814  0.00  0.00     0.721 A 
ATOM     36  N36 53I d          16.029 -33.412  -4.977  0.00  0.00    -0.045 NA
ATOM     37  C02 53I d          15.831 -32.074  -5.114  0.00  0.00     0.148 A 
BRANCH  35  38
ATOM     38  N35 53I d          16.650 -35.357  -3.772  0.00  0.00    -0.231 N 
ATOM     39  H31 53I d          16.981 -35.808  -2.907  0.00  0.00     0.174 HD
ATOM     40  H32 53I d          16.452 -35.927  -4.607  0.00  0.00     0.174 HD
ENDBRANCH  35  38
BRANCH  37  41
ATOM     41  N01 53I d          15.352 -31.548  -6.354  0.00  0.00    -0.383 N 
ATOM     42  H33 53I d          15.157 -32.182  -7.142  0.00  0.00     0.157 HD
ATOM     43  H34 53I d          15.201 -30.535  -6.460  0.00  0.00     0.157 HD
ENDBRANCH  37  41
ENDBRANCH  31  32
ENDBRANCH   5  31
TORSDOF 9
