REMARK  3 active torsions:
REMARK  status: ('A' for Active; 'I' for Inactive)
REMARK    1  A    between atoms: C1_1  and  C16_16 
REMARK    2  A    between atoms: C10_10  and  N1_26 
REMARK    3  A    between atoms: C13_13  and  O6_23 
ROOT
ATOM      1  C1  MOL d          15.511  22.908  40.433  0.00  0.00     0.057 A 
ATOM      2  C2  MOL d          14.118  22.887  40.210  0.00  0.00     0.059 A 
ATOM      3  C3  MOL d          13.201  22.902  41.254  0.00  0.00     0.107 A 
ATOM      4  C4  MOL d          13.619  22.940  42.606  0.00  0.00     0.117 A 
ATOM      5  C5  MOL d          15.056  22.966  42.956  0.00  0.00     0.025 A 
ATOM      6  C6  MOL d          16.031  22.954  41.809  0.00  0.00     0.028 A 
ATOM      7  C7  MOL d          15.557  22.999  44.325  0.00  0.00    -0.009 A 
ATOM      8  C8  MOL d          17.021  23.005  44.550  0.00  0.00     0.014 A 
ATOM      9  C9  MOL d          17.896  22.994  43.440  0.00  0.00     0.052 A 
ATOM     10  C10 MOL d          17.445  22.984  42.102  0.00  0.00     0.116 A 
ATOM     11  C11 MOL d          14.720  23.016  45.498  0.00  0.00     0.016 A 
ATOM     12  C12 MOL d          15.250  23.037  46.790  0.00  0.00     0.040 A 
ATOM     13  C13 MOL d          16.632  23.037  46.995  0.00  0.00     0.099 A 
ATOM     14  C14 MOL d          17.562  23.020  45.885  0.00  0.00     0.112 A 
ATOM     15  C15 MOL d          11.376  22.904  42.475  0.00  0.00     0.352 A 
ATOM     16  C17 MOL d          20.190  21.914  46.048  0.00  0.00     0.210 C 
ATOM     17  O1  MOL d          18.863  22.586  46.021  0.00  0.00    -0.352 OA
ATOM     18  O2  MOL d          11.851  22.878  41.117  0.00  0.00    -0.323 OA
ATOM     19  O3  MOL d          12.494  22.942  43.385  0.00  0.00    -0.322 OA
ENDROOT
BRANCH  13  20
ATOM     20  O6  MOL d          17.097  23.053  48.335  0.00  0.00    -0.358 OA
ATOM     21  H10 MOL d          18.047  23.051  48.339  0.00  0.00     0.217 HD
ENDBRANCH  13  20
BRANCH  10  22
ATOM     22  N1  MOL d          18.703  23.390  41.099  0.00  0.00    -0.115 N 
ATOM     23  O7  MOL d          18.717  23.989  40.216  0.00  0.00    -0.532 OA
ATOM     24  O8  MOL d          19.599  23.192  41.923  0.00  0.00    -0.532 OA
ENDBRANCH  10  22
BRANCH   1  25
ATOM     25  C16 MOL d          16.329  23.026  39.140  0.00  0.00     0.210 C 
ATOM     26  O5  MOL d          15.892  23.495  38.095  0.00  0.00    -0.644 OA
ATOM     27  O4  MOL d          17.248  22.282  38.800  0.00  0.00    -0.644 OA
ENDBRANCH   1  25
TORSDOF 3
