REMARK  6 active torsions:
REMARK  status: ('A' for Active; 'I' for Inactive)
REMARK    1  A    between atoms: C3_3  and  N4_4 
REMARK    2  A    between atoms: C8_8  and  C9_9 
REMARK    3  A    between atoms: C9_9  and  C10_10 
REMARK    4  A    between atoms: C12_12  and  O13_13 
REMARK    5  A    between atoms: C15_15  and  O16_16 
REMARK    6  A    between atoms: C18_18  and  O19_19 
ROOT
ATOM      1  C9  TOP d          16.305   5.394   0.306  0.00  0.00     0.082 C 
ENDROOT
BRANCH   1   2
ATOM      2  C8  TOP d          16.916   5.939   1.566  0.00  0.00     0.010 A 
ATOM      3  C1  TOP d          16.412   5.459   2.779  0.00  0.00     0.147 A 
ATOM      4  N2  TOP d          16.869   5.945   3.924  0.00  0.00    -0.075 NA
ATOM      5  C3  TOP d          17.798   7.001   3.981  0.00  0.00     0.721 A 
ATOM      6  N5  TOP d          18.311   7.473   2.851  0.00  0.00    -0.045 NA
ATOM      7  C6  TOP d          17.941   6.999   1.657  0.00  0.00     0.148 A 
ATOM      8  N7  TOP d          18.470   7.574   0.567  0.00  0.00    -0.383 N 
ATOM      9  H4  TOP d          18.210   7.237  -0.371  0.00  0.00     0.157 HD
ATOM     10  H5  TOP d          19.137   8.353   0.668  0.00  0.00     0.157 HD
BRANCH   5  11
ATOM     11  N4  TOP d          18.199   7.451   5.216  0.00  0.00    -0.231 N 
ATOM     12  H2  TOP d          17.776   7.059   6.069  0.00  0.00     0.174 HD
ATOM     13  H3  TOP d          18.923   8.181   5.288  0.00  0.00     0.174 HD
ENDBRANCH   5  11
ENDBRANCH   1   2
BRANCH   1  14
ATOM     14  C10 TOP d          15.107   6.216  -0.203  0.00  0.00    -0.048 C 
ATOM     15  C11 TOP d          13.897   6.267   0.509  0.00  0.00     0.047 C 
ATOM     16  C12 TOP d          12.819   7.065   0.001  0.00  0.00     0.104 C 
ATOM     17  C15 TOP d          12.899   7.656  -1.304  0.00  0.00     0.135 C 
ATOM     18  C18 TOP d          14.115   7.515  -2.007  0.00  0.00     0.104 C 
ATOM     19  C21 TOP d          15.265   6.844  -1.494  0.00  0.00     0.047 C 
BRANCH  16  20
ATOM     20  O13 TOP d          11.582   7.187   0.526  0.00  0.00    -0.353 OA
ATOM     21  C14 TOP d          11.456   6.532   1.819  0.00  0.00     0.210 C 
ENDBRANCH  16  20
BRANCH  17  22
ATOM     22  O16 TOP d          11.747   8.327  -1.741  0.00  0.00    -0.351 OA
ATOM     23  C17 TOP d          11.030   7.535  -2.757  0.00  0.00     0.210 C 
ENDBRANCH  17  22
BRANCH  18  24
ATOM     24  O19 TOP d          14.098   8.211  -3.217  0.00  0.00    -0.353 OA
ATOM     25  C20 TOP d          15.316   8.059  -3.921  0.00  0.00     0.210 C 
ENDBRANCH  18  24
ENDBRANCH   1  14
TORSDOF 6
