REMARK  13 active torsions:
REMARK  status: ('A' for Active; 'I' for Inactive)
REMARK    1  A    between atoms: O5'_1  and  C5'_2 
REMARK    2  A    between atoms: C5'_2  and  C4'_3 
REMARK    3  A    between atoms: C3'_5  and  O3'_6 
REMARK    4  A    between atoms: O3'_6  and  P_20 
REMARK    5  A    between atoms: C2'_7  and  O2'_8 
REMARK    6  A    between atoms: C1'_9  and  N9_10 
REMARK    7  A    between atoms: C6_14  and  N6_15 
REMARK    8  A    between atoms: P_20  and  O5'_23 
REMARK    9  A    between atoms: O5'_23  and  C5'_24 
REMARK   10  A    between atoms: C5'_24  and  C4'_25 
REMARK   11  A    between atoms: C3'_27  and  O3'_28 
REMARK   12  A    between atoms: C2'_29  and  O2'_30 
REMARK   13  A    between atoms: C1'_31  and  N1_32 
ROOT
ATOM      1  O3'   A d          10.547  20.177  12.887  0.00  0.00    -0.279 OA
ENDROOT
BRANCH   1   2
ATOM      2  C3'   A d          11.191  21.393  13.230  0.00  0.00     0.198 C 
ATOM      3  C4'   A d          11.240  21.639  14.732  0.00  0.00     0.180 C 
ATOM      4  O4'   A d          11.419  23.076  14.845  0.00  0.00    -0.353 OA
ATOM      5  C1'   A d          11.012  23.707  13.646  0.00  0.00     0.262 C 
ATOM      6  C2'   A d          10.453  22.624  12.725  0.00  0.00     0.199 C 
BRANCH   3   7
ATOM      7  C5'   A d          12.332  20.926  15.494  0.00  0.00     0.198 C 
BRANCH   7   8
ATOM      8  O5'   A d          13.617  21.440  15.176  0.00  0.00    -0.398 OA
ATOM      9  H1    A d          13.651  22.363  15.398  0.00  0.00     0.209 HD
ENDBRANCH   7   8
ENDBRANCH   3   7
BRANCH   5  10
ATOM     10  N9    A d          12.178  24.383  13.044  0.00  0.00    -0.294 N 
ATOM     11  C8    A d          13.494  24.306  13.446  0.00  0.00     0.214 A 
ATOM     12  N7    A d          14.311  25.021  12.709  0.00  0.00    -0.236 NA
ATOM     13  C5    A d          13.484  25.610  11.757  0.00  0.00     0.149 A 
ATOM     14  C6    A d          13.751  26.480  10.687  0.00  0.00     0.155 A 
ATOM     15  C4    A d          12.167  25.227  11.949  0.00  0.00     0.167 A 
ATOM     16  N1    A d          12.708  26.879   9.927  0.00  0.00    -0.222 NA
ATOM     17  C2    A d          11.484  26.425  10.228  0.00  0.00     0.237 A 
ATOM     18  N3    A d          11.108  25.606  11.207  0.00  0.00    -0.222 NA
BRANCH  14  19
ATOM     19  N6    A d          14.971  26.928  10.381  0.00  0.00    -0.382 N 
ATOM     20  H10   A d          15.100  27.565   9.582  0.00  0.00     0.157 HD
ATOM     21  H11   A d          15.783  26.636  10.944  0.00  0.00     0.157 HD
ENDBRANCH  14  19
ENDBRANCH   5  10
BRANCH   6  22
ATOM     22  O2'   A d           9.061  22.500  12.969  0.00  0.00    -0.388 OA
ATOM     23  H7    A d           8.729  21.733  12.518  0.00  0.00     0.210 HD
ENDBRANCH   6  22
ENDBRANCH   1   2
BRANCH   1  24
ATOM     24  P     A d          11.193  19.185  11.795  0.00  0.00     0.408 P 
ATOM     25  OP1   A d          10.187  18.122  11.544  0.00  0.00    -0.624 OA
ATOM     26  OP2   A d          12.569  18.804  12.208  0.00  0.00    -0.624 OA
BRANCH  24  27
ATOM     27  O5'   A d          11.330  20.085  10.481  0.00  0.00    -0.287 OA
BRANCH  27  28
ATOM     28  C5'   A d          10.190  20.586   9.789  0.00  0.00     0.216 C 
BRANCH  28  29
ATOM     29  C4'   A d          10.593  21.483   8.638  0.00  0.00     0.180 C 
ATOM     30  O4'   A d          11.233  22.685   9.147  0.00  0.00    -0.353 OA
ATOM     31  C1'   A d          12.257  23.100   8.266  0.00  0.00     0.263 C 
ATOM     32  C2'   A d          12.263  22.140   7.071  0.00  0.00     0.198 C 
ATOM     33  C3'   A d          11.618  20.898   7.673  0.00  0.00     0.182 C 
BRANCH  31  34
ATOM     34  N1    A d          13.546  23.064   8.992  0.00  0.00    -0.280 N 
ATOM     35  C2    A d          14.598  23.774   8.453  0.00  0.00     0.331 A 
ATOM     36  O2    A d          14.482  24.426   7.425  0.00  0.00    -0.246 OA
ATOM     37  N3    A d          15.780  23.698   9.157  0.00  0.00    -0.275 N 
ATOM     38  C4    A d          16.003  22.990  10.320  0.00  0.00     0.250 A 
ATOM     39  H21   A d          16.556  24.209   8.787  0.00  0.00     0.173 HD
ATOM     40  O4    A d          17.119  23.008  10.845  0.00  0.00    -0.268 OA
ATOM     41  C5    A d          14.862  22.275  10.808  0.00  0.00     0.092 A 
ATOM     42  C6    A d          13.697  22.327  10.146  0.00  0.00     0.104 A 
ENDBRANCH  31  34
BRANCH  32  43
ATOM     43  O2'   A d          11.452  22.681   6.031  0.00  0.00    -0.388 OA
ATOM     44  H19   A d          11.342  22.031   5.347  0.00  0.00     0.210 HD
ENDBRANCH  32  43
BRANCH  33  45
ATOM     45  O3'   A d          11.041  20.038   6.704  0.00  0.00    -0.390 OA
ATOM     46  H17   A d          10.405  20.523   6.191  0.00  0.00     0.210 HD
ENDBRANCH  33  45
ENDBRANCH  28  29
ENDBRANCH  27  28
ENDBRANCH  24  27
ENDBRANCH   1  24
TORSDOF 13
