REMARK  9 active torsions:
REMARK  status: ('A' for Active; 'I' for Inactive)
REMARK    1  A    between atoms: N3_3  and  S9_9 
REMARK    2  A    between atoms: C4_4  and  C6_6 
REMARK    3  A    between atoms: S9_9  and  C10_10 
REMARK    4  A    between atoms: C15_15  and  C18_18 
REMARK       I    between atoms: C18_18  and  N19_19 
REMARK    5  A    between atoms: N19_19  and  C20_20 
REMARK    6  A    between atoms: C20_20  and  C25_25 
REMARK    7  A    between atoms: C20_20  and  C21_21 
REMARK    8  A    between atoms: C21_21  and  C22_22 
REMARK    9  A    between atoms: C22_22  and  C23_23 
ROOT
ATOM      1  C10 TP3 d          16.554  15.403  33.873  0.00  0.00     0.079 A 
ATOM      2  C13 TP3 d          15.284  15.935  33.835  0.00  0.00     0.026 A 
ATOM      3  C14 TP3 d          14.364  15.509  34.777  0.00  0.00     0.018 A 
ATOM      4  C15 TP3 d          14.761  14.544  35.722  0.00  0.00     0.032 A 
ATOM      5  C16 TP3 d          16.070  14.018  35.726  0.00  0.00     0.018 A 
ATOM      6  C17 TP3 d          16.989  14.454  34.779  0.00  0.00     0.026 A 
ENDROOT
BRANCH   4   7
ATOM      7  C18 TP3 d          13.699  14.106  36.707  0.00  0.00     0.252 C 
ATOM      8  O24 TP3 d          12.499  14.167  36.409  0.00  0.00    -0.268 OA
ATOM      9  N19 TP3 d          14.041  13.375  37.783  0.00  0.00    -0.342 N 
ATOM     10  H12 TP3 d          15.002  13.204  38.002  0.00  0.00     0.163 HD
BRANCH   9  11
ATOM     11  C20 TP3 d          12.954  12.827  38.639  0.00  0.00     0.186 C 
BRANCH  11  12
ATOM     12  C25 TP3 d          13.498  13.236  40.052  0.00  0.00     0.196 C 
ATOM     13  O27 TP3 d          14.734  13.343  40.193  0.00  0.00    -0.646 OA
ATOM     14  O26 TP3 d          12.634  13.432  40.923  0.00  0.00    -0.646 OA
ENDBRANCH  11  12
BRANCH  11  15
ATOM     15  C21 TP3 d          12.619  11.341  38.496  0.00  0.00     0.046 C 
BRANCH  15  16
ATOM     16  C22 TP3 d          13.452  10.578  37.466  0.00  0.00     0.116 C 
BRANCH  16  17
ATOM     17  C23 TP3 d          13.431   9.067  37.661  0.00  0.00     0.172 C 
ATOM     18  O29 TP3 d          12.871   8.329  36.830  0.00  0.00    -0.648 OA
ATOM     19  O28 TP3 d          14.010   8.623  38.677  0.00  0.00    -0.648 OA
ENDBRANCH  16  17
ENDBRANCH  15  16
ENDBRANCH  11  15
ENDBRANCH   9  11
ENDBRANCH   4   7
BRANCH   1  20
ATOM     20  S9  TP3 d          17.718  15.966  32.662  0.00  0.00     0.261 S 
ATOM     21  O12 TP3 d          17.638  17.555  32.613  0.00  0.00    -0.200 OA
ATOM     22  O11 TP3 d          19.117  15.463  33.136  0.00  0.00    -0.200 OA
BRANCH  20  23
ATOM     23  N3  TP3 d          17.222  15.293  31.159  0.00  0.00    -0.292 N 
ATOM     24  C2  TP3 d          17.453  13.873  30.897  0.00  0.00     0.136 C 
ATOM     25  C1  TP3 d          16.083  13.517  30.251  0.00  0.00     0.023 C 
ATOM     26  C5  TP3 d          15.895  14.731  29.317  0.00  0.00     0.039 C 
ATOM     27  C4  TP3 d          16.291  15.927  30.234  0.00  0.00     0.197 C 
BRANCH  27  28
ATOM     28  C6  TP3 d          16.625  17.198  29.452  0.00  0.00     0.197 C 
ATOM     29  O8  TP3 d          15.660  18.030  29.384  0.00  0.00    -0.646 OA
ATOM     30  O7  TP3 d          17.697  17.475  28.889  0.00  0.00    -0.646 OA
ENDBRANCH  27  28
ENDBRANCH  20  23
ENDBRANCH   1  20
TORSDOF 9
