REMARK  13 active torsions:
REMARK  status: ('A' for Active; 'I' for Inactive)
REMARK    1  A    between atoms: N01_1  and  C08_8 
REMARK    2  A    between atoms: N03_3  and  C23_23 
REMARK    3  A    between atoms: C04_4  and  C41_41 
REMARK    4  A    between atoms: C05_5  and  O30_30 
REMARK    5  A    between atoms: C06_6  and  O31_31 
REMARK    6  A    between atoms: C07_7  and  C32_32 
REMARK    7  A    between atoms: C08_8  and  C09_9 
REMARK    8  A    between atoms: C11_11  and  C51_42 
REMARK    9  A    between atoms: C41_41  and  O16_16 
REMARK   10  A    between atoms: O16_16  and  C17_17 
REMARK   11  A    between atoms: C23_23  and  C24_24 
REMARK   12  A    between atoms: C32_32  and  O33_33 
REMARK   13  A    between atoms: O33_33  and  C34_34 
REMARK       I    between atoms: C51_42  and  N53_44 
ROOT
ATOM      1  N01 NM1 d          11.349  23.709   5.942  0.00  0.00    -0.281 N 
ATOM      2  S02 NM1 d          11.806  22.203   6.446  0.00  0.00     0.320 S 
ATOM      3  N03 NM1 d          13.431  22.292   6.215  0.00  0.00    -0.281 N 
ATOM      4  C04 NM1 d          13.851  22.223   4.796  0.00  0.00     0.153 C 
ATOM      5  C05 NM1 d          14.022  23.605   4.144  0.00  0.00     0.174 C 
ATOM      6  C06 NM1 d          13.048  24.679   4.615  0.00  0.00     0.174 C 
ATOM      7  C07 NM1 d          11.556  24.303   4.610  0.00  0.00     0.153 C 
ATOM      8  O15 NM1 d          11.236  21.156   5.599  0.00  0.00    -0.182 OA
ATOM      9  O40 NM1 d          11.584  22.102   7.888  0.00  0.00    -0.182 OA
ENDROOT
BRANCH   1  10
ATOM     10  C08 NM1 d          10.170  24.189   6.519  0.00  0.00     0.176 C 
BRANCH  10  11
ATOM     11  C09 NM1 d           9.892  25.457   7.218  0.00  0.00    -0.039 A 
ATOM     12  C14 NM1 d          10.745  25.849   8.302  0.00  0.00     0.009 A 
ATOM     13  C13 NM1 d          10.527  27.076   8.987  0.00  0.00     0.002 A 
ATOM     14  C12 NM1 d           9.456  27.914   8.582  0.00  0.00     0.017 A 
ATOM     15  C11 NM1 d           8.600  27.521   7.490  0.00  0.00     0.032 A 
ATOM     16  C10 NM1 d           8.825  26.293   6.815  0.00  0.00     0.026 A 
BRANCH  15  17
ATOM     17  C51 NM1 d           7.487  28.417   7.050  0.00  0.00     0.251 C 
ATOM     18  N53 NM1 d           6.290  27.868   6.633  0.00  0.00    -0.361 N 
ATOM     19  C54 NM1 d           5.236  28.784   6.247  0.00  0.00     0.149 C 
ATOM     20  H34 NM1 d           6.156  26.878   6.599  0.00  0.00     0.162 HD
ATOM     21  O52 NM1 d           7.660  29.662   7.084  0.00  0.00    -0.268 OA
ENDBRANCH  15  17
ENDBRANCH  10  11
ENDBRANCH   1  10
BRANCH   7  22
ATOM     22  C32 NM1 d          10.913  23.466   3.470  0.00  0.00     0.204 C 
BRANCH  22  23
ATOM     23  O33 NM1 d           9.472  23.505   3.658  0.00  0.00    -0.349 OA
BRANCH  23  24
ATOM     24  C34 NM1 d           8.661  24.401   3.003  0.00  0.00     0.068 A 
ATOM     25  C39 NM1 d           7.313  24.033   2.707  0.00  0.00     0.037 A 
ATOM     26  C38 NM1 d           6.432  24.943   2.037  0.00  0.00     0.003 A 
ATOM     27  C37 NM1 d           6.900  26.230   1.653  0.00  0.00     0.000 A 
ATOM     28  C36 NM1 d           8.244  26.618   1.933  0.00  0.00     0.003 A 
ATOM     29  C35 NM1 d           9.116  25.712   2.605  0.00  0.00     0.037 A 
ENDBRANCH  23  24
ENDBRANCH  22  23
ENDBRANCH   7  22
BRANCH   6  30
ATOM     30  O31 NM1 d          13.274  25.832   3.814  0.00  0.00    -0.391 OA
ATOM     31  H24 NM1 d          14.172  26.122   3.925  0.00  0.00     0.210 HD
ENDBRANCH   6  30
BRANCH   3  32
ATOM     32  C23 NM1 d          14.271  22.898   7.306  0.00  0.00     0.176 C 
BRANCH  32  33
ATOM     33  C24 NM1 d          15.213  22.033   8.110  0.00  0.00    -0.040 A 
ATOM     34  C29 NM1 d          16.634  22.115   7.901  0.00  0.00     0.009 A 
ATOM     35  C28 NM1 d          17.531  21.294   8.653  0.00  0.00     0.001 A 
ATOM     36  C27 NM1 d          17.005  20.379   9.626  0.00  0.00     0.000 A 
ATOM     37  C26 NM1 d          15.588  20.294   9.842  0.00  0.00     0.001 A 
ATOM     38  C25 NM1 d          14.698  21.122   9.083  0.00  0.00     0.009 A 
ENDBRANCH  32  33
ENDBRANCH   3  32
BRANCH   5  39
ATOM     39  O30 NM1 d          15.320  24.102   4.395  0.00  0.00    -0.391 OA
ATOM     40  H23 NM1 d          15.415  24.955   3.988  0.00  0.00     0.210 HD
ENDBRANCH   5  39
BRANCH   4  41
ATOM     41  C41 NM1 d          15.082  21.332   4.600  0.00  0.00     0.204 C 
BRANCH  41  42
ATOM     42  O16 NM1 d          14.854  20.350   3.560  0.00  0.00    -0.349 OA
BRANCH  42  43
ATOM     43  C17 NM1 d          15.864  19.459   3.222  0.00  0.00     0.068 A 
ATOM     44  C22 NM1 d          15.954  18.953   1.885  0.00  0.00     0.037 A 
ATOM     45  C21 NM1 d          16.985  18.030   1.517  0.00  0.00     0.003 A 
ATOM     46  C20 NM1 d          17.943  17.605   2.489  0.00  0.00     0.000 A 
ATOM     47  C19 NM1 d          17.875  18.098   3.830  0.00  0.00     0.003 A 
ATOM     48  C18 NM1 d          16.840  19.017   4.190  0.00  0.00     0.037 A 
ENDBRANCH  42  43
ENDBRANCH  41  42
ENDBRANCH   4  41
TORSDOF 13
