REMARK  12 active torsions:
REMARK  status: ('A' for Active; 'I' for Inactive)
REMARK    1  A    between atoms: C1_1  and  O1_7 
REMARK    2  A    between atoms: C2_2  and  O2_6 
REMARK    3  A    between atoms: C5_4  and  C6_8 
REMARK    4  A    between atoms: S4_5  and  C7_10 
REMARK    5  A    between atoms: C6_8  and  O6_9 
REMARK    6  A    between atoms: C7_10  and  C8_11 
REMARK    7  A    between atoms: C8_11  and  C9_12 
REMARK    8  A    between atoms: C8_11  and  O8_15 
REMARK    9  A    between atoms: C9_12  and  C10_13 
REMARK   10  A    between atoms: C9_12  and  O9_16 
REMARK   11  A    between atoms: C10_13  and  O10_14 
REMARK   12  A    between atoms: O9_16  and  S9_17 
ROOT
ATOM      1  C7  SSD d          44.328  90.961  34.478  0.00  0.00     0.098 C 
ENDROOT
BRANCH   1   2
ATOM      2  S4  SSD d          43.991  92.745  34.317  0.00  0.00    -0.206 SA
ATOM      3  C3  SSD d          45.442  93.409  33.420  0.00  0.00     0.098 C 
ATOM      4  C2  SSD d          46.439  93.662  34.570  0.00  0.00     0.156 C 
ATOM      5  C1  SSD d          45.593  94.327  35.651  0.00  0.00     0.162 C 
ATOM      6  C5  SSD d          44.462  93.308  35.967  0.00  0.00     0.092 C 
BRANCH   4   7
ATOM      7  O2  SSD d          47.456  94.628  34.197  0.00  0.00    -0.392 OA
ATOM      8  H6  SSD d          48.050  94.758  34.927  0.00  0.00     0.210 HD
ENDBRANCH   4   7
BRANCH   5   9
ATOM      9  O1  SSD d          46.419  94.519  36.799  0.00  0.00    -0.392 OA
ATOM     10  H7  SSD d          47.105  95.143  36.593  0.00  0.00     0.210 HD
ENDBRANCH   5   9
BRANCH   6  11
ATOM     11  C6  SSD d          43.323  93.946  36.785  0.00  0.00     0.181 C 
BRANCH  11  12
ATOM     12  O6  SSD d          42.848  95.128  36.160  0.00  0.00    -0.400 OA
ATOM     13  H10 SSD d          42.148  95.502  36.682  0.00  0.00     0.209 HD
ENDBRANCH  11  12
ENDBRANCH   6  11
ENDBRANCH   1   2
BRANCH   1  14
ATOM     14  C8  SSD d          43.748  90.063  33.393  0.00  0.00     0.159 C 
BRANCH  14  15
ATOM     15  C9  SSD d          44.057  88.599  33.737  0.00  0.00     0.198 C 
BRANCH  15  16
ATOM     16  C10 SSD d          43.576  87.674  32.620  0.00  0.00     0.200 C 
BRANCH  16  17
ATOM     17  O10 SSD d          42.276  88.138  32.282  0.00  0.00    -0.398 OA
ATOM     18  H17 SSD d          42.329  89.040  31.989  0.00  0.00     0.209 HD
ENDBRANCH  16  17
ENDBRANCH  15  16
BRANCH  15  19
ATOM     19  O9  SSD d          43.369  88.244  34.950  0.00  0.00    -0.247 OA
BRANCH  19  20
ATOM     20  S9  SSD d          44.076  87.612  36.052  0.00  0.00     0.252 S 
ATOM     21  O11 SSD d          45.018  88.545  36.741  0.00  0.00    -0.572 OA
ATOM     22  O12 SSD d          43.062  87.185  37.099  0.00  0.00    -0.572 OA
ATOM     23  O13 SSD d          44.847  86.434  35.537  0.00  0.00    -0.572 OA
ENDBRANCH  19  20
ENDBRANCH  15  19
ENDBRANCH  14  15
BRANCH  14  24
ATOM     24  O8  SSD d          44.313  90.377  32.129  0.00  0.00    -0.392 OA
ATOM     25  H18 SSD d          43.939  89.808  31.466  0.00  0.00     0.210 HD
ENDBRANCH  14  24
ENDBRANCH   1  14
TORSDOF 12
