REMARK  6 active torsions:
REMARK  status: ('A' for Active; 'I' for Inactive)
REMARK    1  A    between atoms: S18_2  and  N8_4 
REMARK    2  A    between atoms: S18_2  and  C4_5 
REMARK    3  A    between atoms: C1_8  and  N11_11 
REMARK    4  A    between atoms: N11_11  and  N12_12 
REMARK    5  A    between atoms: N12_12  and  C13_13 
REMARK    6  A    between atoms: C16_16  and  N19_17 
ROOT
ATOM      1  N11 MOL d          17.176   6.544  14.022  0.00  0.00    -0.300 N 
ATOM      2  H7  MOL d          16.560   7.365  13.938  0.00  0.00     0.187 HD
ENDROOT
BRANCH   1   3
ATOM      3  C1  MOL d          16.744   5.411  14.618  0.00  0.00     0.048 A 
ATOM      4  C6  MOL d          17.614   4.368  14.980  0.00  0.00     0.032 A 
ATOM      5  C5  MOL d          17.113   3.229  15.634  0.00  0.00     0.027 A 
ATOM      6  C4  MOL d          15.745   3.117  15.907  0.00  0.00     0.079 A 
ATOM      7  C3  MOL d          14.889   4.158  15.502  0.00  0.00     0.027 A 
ATOM      8  C2  MOL d          15.381   5.292  14.852  0.00  0.00     0.032 A 
BRANCH   6   9
ATOM      9  S18 MOL d          15.105   1.727  16.785  0.00  0.00     0.256 S 
ATOM     10  O10 MOL d          13.673   1.787  16.641  0.00  0.00    -0.201 OA
ATOM     11  O9  MOL d          15.660   1.827  18.119  0.00  0.00    -0.201 OA
BRANCH   9  12
ATOM     12  N8  MOL d          15.692   0.419  16.065  0.00  0.00    -0.324 N 
ATOM     13  H1  MOL d          15.413   0.194  15.131  0.00  0.00     0.169 HD
ATOM     14  H2  MOL d          16.337  -0.172  16.550  0.00  0.00     0.169 HD
ENDBRANCH   9  12
ENDBRANCH   6   9
ENDBRANCH   1   3
BRANCH   1  15
ATOM     15  N12 MOL d          18.437   6.572  13.539  0.00  0.00    -0.300 N 
ATOM     16  H8  MOL d          18.825   5.713  13.125  0.00  0.00     0.187 HD
BRANCH  15  17
ATOM     17  C13 MOL d          19.212   7.680  13.576  0.00  0.00     0.048 A 
ATOM     18  C18 MOL d          19.038   8.739  14.485  0.00  0.00     0.033 A 
ATOM     19  C17 MOL d          19.898   9.854  14.466  0.00  0.00     0.031 A 
ATOM     20  C16 MOL d          20.951   9.904  13.538  0.00  0.00     0.025 A 
ATOM     21  C15 MOL d          21.127   8.842  12.634  0.00  0.00     0.031 A 
ATOM     22  C14 MOL d          20.266   7.735  12.662  0.00  0.00     0.033 A 
BRANCH  20  23
ATOM     23  N19 MOL d          21.822  11.020  13.504  0.00  0.00    -0.399 N 
ATOM     24  H11 MOL d          22.593  11.051  12.821  0.00  0.00     0.156 HD
ATOM     25  H12 MOL d          21.685  11.800  14.162  0.00  0.00     0.156 HD
ENDBRANCH  20  23
ENDBRANCH  15  17
ENDBRANCH   1  15
TORSDOF 6
