REMARK  7 active torsions:
REMARK  status: ('A' for Active; 'I' for Inactive)
REMARK    1  A    between atoms: OAS_19  and  CAL_12 
REMARK    2  A    between atoms: NBC_29  and  CAM_13 
REMARK    3  A    between atoms: CAR_18  and  CAV_22 
REMARK    4  A    between atoms: NBA_27  and  CAR_18 
REMARK    5  A    between atoms: CAT_20  and  OAS_19 
REMARK    6  A    between atoms: CAZ_26  and  CAT_20 
REMARK    7  A    between atoms: CAY_25  and  CAU_21 
REMARK       I    between atoms: CAU_21  and  NBB_28 
ROOT
ATOM      1  OAF PP0 d         -18.656  -2.379   7.465  0.00  0.00    -0.267 OA
ATOM      2  CAN PP0 d         -18.353  -3.108   2.983  0.00  0.00     0.255 C 
ATOM      3  CAO PP0 d         -16.536  -3.628   4.598  0.00  0.00     0.255 C 
ATOM      4  CAP PP0 d         -18.791  -1.962   3.894  0.00  0.00     0.154 C 
ATOM      5  CAQ PP0 d         -16.856  -2.426   5.438  0.00  0.00     0.154 C 
ATOM      6  CAU PP0 d         -19.113  -2.175   6.347  0.00  0.00     0.256 C 
ATOM      7  NBA PP0 d         -16.909  -3.418   3.182  0.00  0.00    -0.064 N 
ATOM      8  NBB PP0 d         -18.301  -2.180   5.270  0.00  0.00    -0.345 N 
ATOM      9  H32 PP0 d         -16.339  -2.685   2.790  0.00  0.00     0.280 HD
ENDROOT
BRANCH   6  10
ATOM     10  CAY PP0 d         -20.611  -1.938   6.211  0.00  0.00     0.062 A 
ATOM     11  CAW PP0 d         -21.236  -0.774   5.819  0.00  0.00    -0.011 A 
ATOM     12  CAC PP0 d         -20.520   0.516   5.420  0.00  0.00     0.052 C 
ATOM     13  CAZ PP0 d         -22.608  -1.035   5.857  0.00  0.00     0.117 A 
ATOM     14  NBC PP0 d         -22.788  -2.301   6.244  0.00  0.00    -0.345 N 
ATOM     15  CAX PP0 d         -21.614  -2.859   6.469  0.00  0.00     0.024 A 
ATOM     16  CAD PP0 d         -21.438  -4.295   6.929  0.00  0.00     0.069 C 
BRANCH  13  17
ATOM     17  CAT PP0 d         -23.751  -0.090   5.480  0.00  0.00     0.310 C 
ATOM     18  OAE PP0 d         -23.506   0.979   4.915  0.00  0.00    -0.258 OA
BRANCH  17  19
ATOM     19  OAS PP0 d         -25.043  -0.483   5.738  0.00  0.00    -0.317 OA
BRANCH  19  20
ATOM     20  CAL PP0 d         -26.130   0.404   5.319  0.00  0.00     0.175 C 
ATOM     21  CAA PP0 d         -27.376   0.205   6.216  0.00  0.00     0.034 C 
ENDBRANCH  19  20
ENDBRANCH  17  19
ENDBRANCH  13  17
BRANCH  14  22
ATOM     22  CAM PP0 d         -24.079  -2.987   6.426  0.00  0.00     0.125 C 
ATOM     23  CAB PP0 d         -24.635  -3.552   5.089  0.00  0.00     0.027 C 
ENDBRANCH  14  22
ENDBRANCH   6  10
BRANCH   7  24
ATOM     24  CAR PP0 d         -16.711  -4.687   2.471  0.00  0.00     0.273 C 
BRANCH  24  25
ATOM     25  CAV PP0 d         -15.238  -5.153   2.441  0.00  0.00    -0.033 A 
ATOM     26  CAJ PP0 d         -14.924  -6.428   2.910  0.00  0.00     0.009 A 
ATOM     27  CAH PP0 d         -13.604  -6.887   2.868  0.00  0.00     0.001 A 
ATOM     28  CAG PP0 d         -12.587  -6.068   2.360  0.00  0.00     0.000 A 
ATOM     29  CAI PP0 d         -12.913  -4.789   1.895  0.00  0.00     0.001 A 
ATOM     30  CAK PP0 d         -14.239  -4.326   1.925  0.00  0.00     0.009 A 
ENDBRANCH  24  25
ENDBRANCH   7  24
TORSDOF 7
