REMARK  5 active torsions:
REMARK  status: ('A' for Active; 'I' for Inactive)
REMARK    1  A    between atoms: C10_10  and  C5_5 
REMARK    2  A    between atoms: C7_7  and  C14_13 
REMARK    3  A    between atoms: C8_8  and  N17_16 
REMARK    4  A    between atoms: N17_16  and  S18_17 
REMARK    5  A    between atoms: S18_17  and  C20_19 
ROOT
ATOM      1  C7  FIH d           7.076  31.905  74.985  0.00  0.00     0.109 A 
ATOM      2  C8  FIH d           7.915  32.273  76.028  0.00  0.00     0.068 A 
ATOM      3  C9  FIH d           9.297  32.041  75.690  0.00  0.00     0.051 A 
ATOM      4  C10 FIH d           9.482  31.507  74.415  0.00  0.00     0.018 A 
ATOM      5  S11 FIH d           7.957  31.300  73.667  0.00  0.00    -0.080 SA
ENDROOT
BRANCH   2   6
ATOM      6  N17 FIH d           7.461  32.824  77.308  0.00  0.00    -0.279 N 
ATOM      7  H6  FIH d           6.704  32.379  77.786  0.00  0.00     0.179 HD
BRANCH   6   8
ATOM      8  S18 FIH d           8.182  34.198  78.007  0.00  0.00     0.263 S 
ATOM      9  O26 FIH d           9.466  33.756  78.538  0.00  0.00    -0.200 OA
ATOM     10  O27 FIH d           7.274  34.633  79.065  0.00  0.00    -0.200 OA
BRANCH   8  11
ATOM     11  C20 FIH d           8.449  35.569  76.863  0.00  0.00     0.079 A 
ATOM     12  C19 FIH d           7.350  36.387  76.455  0.00  0.00     0.026 A 
ATOM     13  C24 FIH d           7.567  37.464  75.552  0.00  0.00     0.008 A 
ATOM     14  C23 FIH d           8.875  37.729  75.052  0.00  0.00    -0.062 A 
ATOM     15  C22 FIH d           9.968  36.915  75.458  0.00  0.00     0.008 A 
ATOM     16  C25 FIH d           9.103  38.867  74.094  0.00  0.00     0.048 C 
ATOM     17  C21 FIH d           9.758  35.837  76.362  0.00  0.00     0.026 A 
ENDBRANCH   8  11
ENDBRANCH   6   8
ENDBRANCH   2   6
BRANCH   1  18
ATOM     18  C14 FIH d           5.595  32.013  74.989  0.00  0.00     0.219 C 
ATOM     19  O15 FIH d           4.969  31.406  74.095  0.00  0.00    -0.643 OA
ATOM     20  O16 FIH d           5.048  32.711  75.869  0.00  0.00    -0.643 OA
ENDBRANCH   1  18
BRANCH   4  21
ATOM     21  C5  FIH d          10.739  31.136  73.700  0.00  0.00    -0.019 A 
ATOM     22  C4  FIH d          10.711  30.154  72.666  0.00  0.00     0.016 A 
ATOM     23  C3  FIH d          11.885  29.790  71.962  0.00  0.00     0.043 A 
ATOM     24  C2  FIH d          13.130  30.396  72.270  0.00  0.00     0.116 A 
ATOM     25  C1  FIH d          13.180  31.379  73.304  0.00  0.00     0.043 A 
ATOM     26  F12 FIH d          14.210  30.053  71.611  0.00  0.00    -0.206 F 
ATOM     27  C6  FIH d          11.996  31.747  74.012  0.00  0.00     0.016 A 
ENDBRANCH   4  21
TORSDOF 5
