REMARK  4 active torsions:
REMARK  status: ('A' for Active; 'I' for Inactive)
REMARK    1  A    between atoms: C1_1  and  O1_7 
REMARK    2  A    between atoms: C2_2  and  O2_8 
REMARK    3  A    between atoms: C3_3  and  O3_9 
REMARK    4  A    between atoms: C4_4  and  O4_10 
ROOT
ATOM      1  C1  FCB d          39.774   2.503  42.519  0.00  0.00     0.288 C 
ATOM      2  C2  FCB d          39.658   2.007  41.083  0.00  0.00     0.204 C 
ATOM      3  C3  FCB d          38.464   2.654  40.386  0.00  0.00     0.182 C 
ATOM      4  C4  FCB d          37.199   2.519  41.215  0.00  0.00     0.178 C 
ATOM      5  C5  FCB d          37.457   3.051  42.621  0.00  0.00     0.152 C 
ATOM      6  C6  FCB d          36.244   2.912  43.518  0.00  0.00     0.042 C 
ATOM      7  O5  FCB d          38.550   2.304  43.217  0.00  0.00    -0.351 OA
ENDROOT
BRANCH   1   8
ATOM      8  O1  FCB d          40.757   1.791  43.164  0.00  0.00    -0.369 OA
ATOM      9  H9  FCB d          40.529   0.869  43.167  0.00  0.00     0.212 HD
ENDBRANCH   1   8
BRANCH   2  10
ATOM     10  O2  FCB d          40.841   2.329  40.379  0.00  0.00    -0.388 OA
ATOM     11  H10 FCB d          41.583   1.911  40.801  0.00  0.00     0.210 HD
ENDBRANCH   2  10
BRANCH   3  12
ATOM     12  O3  FCB d          38.275   2.040  39.120  0.00  0.00    -0.390 OA
ATOM     13  H11 FCB d          38.111   1.112  39.241  0.00  0.00     0.210 HD
ENDBRANCH   3  12
BRANCH   4  14
ATOM     14  O4  FCB d          36.824   1.146  41.292  0.00  0.00    -0.390 OA
ATOM     15  H12 FCB d          36.666   0.812  40.417  0.00  0.00     0.210 HD
ENDBRANCH   4  14
TORSDOF 4
