REMARK  2 active torsions:
REMARK  status: ('A' for Active; 'I' for Inactive)
REMARK    1  A    between atoms: C1'_1  and  C1_4 
REMARK    2  A    between atoms: C2_5  and  O2_10 
ROOT
ATOM      1  C1  SAL d          70.456  80.964  27.007  0.00  0.00     0.073 A 
ATOM      2  C2  SAL d          70.786  82.049  26.211  0.00  0.00     0.082 A 
ATOM      3  C3  SAL d          70.204  82.123  24.960  0.00  0.00     0.037 A 
ATOM      4  C4  SAL d          69.333  81.100  24.546  0.00  0.00     0.003 A 
ATOM      5  C5  SAL d          69.008  80.011  25.369  0.00  0.00     0.001 A 
ATOM      6  C6  SAL d          69.579  79.938  26.630  0.00  0.00     0.021 A 
ENDROOT
BRANCH   1   7
ATOM      7  C1' SAL d          71.091  80.906  28.354  0.00  0.00     0.212 C 
ATOM      8  O1' SAL d          71.873  81.854  28.679  0.00  0.00    -0.644 OA
ATOM      9  O2' SAL d          70.803  79.864  28.987  0.00  0.00    -0.644 OA
ENDBRANCH   1   7
BRANCH   2  10
ATOM     10  O2  SAL d          71.671  83.013  26.696  0.00  0.00    -0.360 OA
ATOM     11  H5  SAL d          71.952  82.772  27.571  0.00  0.00     0.217 HD
ENDBRANCH   2  10
TORSDOF 2
