REMARK  7 active torsions:
REMARK  status: ('A' for Active; 'I' for Inactive)
REMARK    1  A    between atoms: C1_1  and  C2_2 
REMARK    2  A    between atoms: C15_12  and  C1_1 
REMARK    3  A    between atoms: C4_4  and  C9_9 
REMARK    4  A    between atoms: C7_7  and  N8_8 
REMARK       I    between atoms: N8_8  and  C28_18 
REMARK    5  A    between atoms: C28_18  and  C30_20 
REMARK    6  A    between atoms: C35_24  and  C37_26 
REMARK    7  A    between atoms: C37_26  and  C41_27 
ROOT
ATOM      1  N8  NJQ d           1.561 -33.909 -17.319  0.00  0.00    -0.321 N 
ATOM      2  C28 NJQ d           2.187 -34.815 -16.570  0.00  0.00     0.274 C 
ATOM      3  O29 NJQ d           3.139 -35.528 -16.895  0.00  0.00    -0.266 OA
ATOM      4  H6  NJQ d           0.886 -33.368 -16.816  0.00  0.00     0.169 HD
ENDROOT
BRANCH   1   5
ATOM      5  C7  NJQ d           1.658 -33.580 -18.614  0.00  0.00     0.041 A 
ATOM      6  C2  NJQ d           1.392 -32.261 -19.035  0.00  0.00    -0.026 A 
ATOM      7  C3  NJQ d           1.398 -31.955 -20.386  0.00  0.00     0.028 A 
ATOM      8  C4  NJQ d           1.636 -32.933 -21.330  0.00  0.00     0.041 A 
ATOM      9  C5  NJQ d           1.867 -34.263 -20.934  0.00  0.00     0.020 A 
ATOM     10  C6  NJQ d           1.872 -34.555 -19.573  0.00  0.00     0.031 A 
BRANCH   6  11
ATOM     11  C1  NJQ d           1.162 -31.106 -18.070  0.00  0.00     0.079 C 
BRANCH  11  12
ATOM     12  C15 NJQ d          -0.251 -31.011 -17.589  0.00  0.00    -0.054 A 
ATOM     13  C20 NJQ d          -1.277 -31.609 -18.278  0.00  0.00     0.007 A 
ATOM     14  C19 NJQ d          -2.570 -31.465 -17.800  0.00  0.00     0.001 A 
ATOM     15  C18 NJQ d          -2.842 -30.782 -16.641  0.00  0.00     0.000 A 
ATOM     16  C22 NJQ d          -1.808 -30.197 -15.950  0.00  0.00     0.001 A 
ATOM     17  C21 NJQ d          -0.511 -30.306 -16.426  0.00  0.00     0.007 A 
ENDBRANCH  11  12
ENDBRANCH   6  11
BRANCH   8  18
ATOM     18  C9  NJQ d           1.607 -32.587 -22.792  0.00  0.00     0.209 C 
ATOM     19  O10 NJQ d           1.718 -33.535 -23.584  0.00  0.00    -0.644 OA
ATOM     20  O11 NJQ d           1.426 -31.403 -23.132  0.00  0.00    -0.644 OA
ENDBRANCH   8  18
ENDBRANCH   1   5
BRANCH   2  21
ATOM     21  C30 NJQ d           1.624 -34.919 -15.195  0.00  0.00     0.125 A 
ATOM     22  C32 NJQ d           2.091 -35.914 -14.355  0.00  0.00     0.037 A 
ATOM     23  C33 NJQ d           1.561 -35.984 -13.099  0.00  0.00     0.004 A 
ATOM     24  C34 NJQ d           0.566 -35.104 -12.698  0.00  0.00     0.027 A 
ATOM     25  C35 NJQ d           0.119 -34.133 -13.592  0.00  0.00     0.035 A 
ATOM     26  N36 NJQ d           0.655 -34.076 -14.793  0.00  0.00    -0.248 NA
BRANCH  25  27
ATOM     27  C37 NJQ d          -0.999 -33.128 -13.238  0.00  0.00     0.064 C 
BRANCH  27  28
ATOM     28  C41 NJQ d          -2.499 -33.588 -13.258  0.00  0.00    -0.009 C 
ATOM     29  C44 NJQ d          -2.787 -35.013 -13.791  0.00  0.00     0.005 C 
ATOM     30  C57 NJQ d          -4.103 -35.150 -14.552  0.00  0.00     0.000 C 
ATOM     31  C47 NJQ d          -5.237 -34.282 -13.953  0.00  0.00     0.000 C 
ATOM     32  C48 NJQ d          -4.910 -32.785 -14.192  0.00  0.00     0.000 C 
ATOM     33  C45 NJQ d          -3.445 -32.437 -13.779  0.00  0.00     0.005 C 
ENDBRANCH  27  28
ENDBRANCH  25  27
ENDBRANCH   2  21
TORSDOF 7
