3njq_ligand

Created by X-TOOL on Fri Sep 26 17:34:52 2014
 59 62  0  0  0  0  0  0  0  0999 V2000
    1.1620  -31.1060  -18.0700  C 0  0  0  3  0  4
    1.3920  -32.2610  -19.0350  C 0  0  0  1  0  3
    1.3980  -31.9550  -20.3860  C 0  0  0  2  0  3
    1.6360  -32.9330  -21.3300  C 0  0  0  1  0  3
    1.8670  -34.2630  -20.9340  C 0  0  0  2  0  3
    1.8720  -34.5550  -19.5730  C 0  0  0  2  0  3
    1.6580  -33.5800  -18.6140  C 0  0  0  1  0  3
    1.5610  -33.9090  -17.3190  N 0  0  0  2  0  3
    1.6070  -32.5870  -22.7920  C 0  5  0  1  0  3
    1.7180  -33.5350  -23.5840  O 0  0  0  1  0  1
    1.4260  -31.4030  -23.1320  O 0  0  0  1  0  1
   -0.2510  -31.0110  -17.5890  C 0  0  0  1  0  3
   -2.8420  -30.7820  -16.6410  C 0  0  0  2  0  3
   -2.5700  -31.4650  -17.8000  C 0  0  0  2  0  3
   -1.2770  -31.6090  -18.2780  C 0  0  0  2  0  3
   -0.5110  -30.3060  -16.4260  C 0  0  0  2  0  3
   -1.8080  -30.1970  -15.9500  C 0  0  0  2  0  3
    2.1870  -34.8150  -16.5700  C 0  0  0  1  0  3
    3.1390  -35.5280  -16.8950  O 0  0  0  1  0  1
    1.6240  -34.9190  -15.1950  C 0  0  0  1  0  3
    2.0910  -35.9140  -14.3550  C 0  0  0  2  0  3
    1.5610  -35.9840  -13.0990  C 0  0  0  2  0  3
    0.5660  -35.1040  -12.6980  C 0  0  0  2  0  3
    0.1190  -34.1330  -13.5920  C 0  0  0  1  0  3
    0.6550  -34.0760  -14.7930  N 0  0  0  1  0  2
   -0.9990  -33.1280  -13.2380  C 0  0  0  3  0  4
   -2.4990  -33.5880  -13.2580  C 0  0  0  2  0  4
   -2.7870  -35.0130  -13.7910  C 0  0  0  3  0  4
   -3.4450  -32.4370  -13.7790  C 0  0  0  3  0  4
   -5.2370  -34.2820  -13.9530  C 0  0  0  3  0  4
   -4.9100  -32.7850  -14.1920  C 0  0  0  3  0  4
   -4.1030  -35.1500  -14.5520  C 0  0  0  3  0  4
    1.4210  -30.1669  -18.5810  H 0  0  0  1  0  1
    1.8192  -31.2426  -17.1986  H 0  0  0  1  0  1
    1.2136  -30.9356  -20.7053  H 0  0  0  1  0  1
    2.0368  -35.0406  -21.6699  H 0  0  0  1  0  1
    2.0487  -35.5761  -19.2547  H 0  0  0  1  0  1
    0.8864  -33.3684  -16.8163  H 0  0  0  1  0  1
   -3.8595  -30.7049  -16.2753  H 0  0  0  1  0  1
   -3.3895  -31.9042  -18.3573  H 0  0  0  1  0  1
   -1.0800  -32.1818  -19.1770  H 0  0  0  1  0  1
    0.3034  -29.8373  -15.8855  H 0  0  0  1  0  1
   -2.0065  -29.6515  -15.0346  H 0  0  0  1  0  1
    2.8513  -36.6137  -14.6828  H 0  0  0  1  0  1
    1.9218  -36.7360  -12.4066  H 0  0  0  1  0  1
    0.1420  -35.1709  -11.7026  H 0  0  0  1  0  1
   -0.9129  -32.2930  -13.9489  H 0  0  0  1  0  1
   -0.7909  -32.7661  -12.2203  H 0  0  0  1  0  1
   -2.7572  -33.6739  -12.1922  H 0  0  0  1  0  1
   -2.8125  -35.7019  -12.9338  H 0  0  0  1  0  1
   -1.9678  -35.2991  -14.4671  H 0  0  0  1  0  1
   -2.9585  -31.9954  -14.6612  H 0  0  0  1  0  1
   -3.5066  -31.6845  -12.9791  H 0  0  0  1  0  1
   -6.1902  -34.5334  -14.4410  H 0  0  0  1  0  1
   -5.3163  -34.4739  -12.8728  H 0  0  0  1  0  1
   -5.0420  -32.5582  -15.2602  H 0  0  0  1  0  1
   -5.6026  -32.1704  -13.5983  H 0  0  0  1  0  1
   -4.4161  -36.2041  -14.5253  H 0  0  0  1  0  1
   -3.9391  -34.8425  -15.5953  H 0  0  0  1  0  1
  1  2  1  0  0  2
 12  1  1  0  0  2
  2  3  4  0  0  1
  2  7  4  0  0  1
  3  4  4  0  0  1
  4  5  4  0  0  1
  4  9  1  0  0  2
  6  5  4  0  0  1
  7  6  4  0  0  1
  7  8  1  0  0  2
  8 18  1  0  0  2
  9 10  2  0  0  2
  9 11  2  0  0  2
 15 12  4  0  0  1
 12 16  4  0  0  1
 14 13  4  0  0  1
 13 17  4  0  0  1
 14 15  4  0  0  1
 16 17  4  0  0  1
 18 19  2  0  0  2
 18 20  1  0  0  2
 20 21  4  0  0  1
 20 25  4  0  0  1
 21 22  4  0  0  1
 22 23  4  0  0  1
 23 24  4  0  0  1
 24 25  4  0  0  1
 24 26  1  0  0  2
 26 27  1  0  0  2
 27 28  1  0  0  1
 27 29  1  0  0  1
 28 32  1  0  0  1
 29 31  1  0  0  1
 31 30  1  0  0  1
 30 32  1  0  0  1
  1 33  1  0  0  2
  1 34  1  0  0  2
  3 35  1  0  0  2
  5 36  1  0  0  2
  6 37  1  0  0  2
  8 38  1  0  0  2
 13 39  1  0  0  2
 14 40  1  0  0  2
 15 41  1  0  0  2
 16 42  1  0  0  2
 17 43  1  0  0  2
 21 44  1  0  0  2
 22 45  1  0  0  2
 23 46  1  0  0  2
 26 47  1  0  0  2
 26 48  1  0  0  2
 27 49  1  0  0  2
 28 50  1  0  0  2
 28 51  1  0  0  2
 29 52  1  0  0  2
 29 53  1  0  0  2
 30 54  1  0  0  2
 30 55  1  0  0  2
 31 56  1  0  0  2
 31 57  1  0  0  2
 32 58  1  0  0  2
 32 59  1  0  0  2
M  END
> <MOLECULAR_FORMULA>
C27H27N2O3

> <MOLECULAR_WEIGHT>
427.3

> <NUM_HB_ATOMS>
5  

> <NUM_ROTOR>
4  

> <XLOGP2>
6.16 

$$$$
