REMARK  4 active torsions:
REMARK  status: ('A' for Active; 'I' for Inactive)
REMARK    1  A    between atoms: N_1  and  CA_2 
REMARK    2  A    between atoms: CA_2  and  CB_3 
REMARK    3  A    between atoms: CB_3  and  CG_4 
REMARK    4  A    between atoms: CG_4  and  CD_5 
ROOT
ATOM      1  CA  ABU d          23.242  19.581  16.724  0.00  0.00     0.230 C 
ENDROOT
BRANCH   1   2
ATOM      2  N   ABU d          23.271  20.885  16.095  0.00  0.00    -0.079 N 
ATOM      3  H1  ABU d          23.398  20.776  15.101  0.00  0.00     0.274 HD
ATOM      4  H2  ABU d          24.034  21.424  16.474  0.00  0.00     0.274 HD
ATOM      5  H3  ABU d          22.401  21.363  16.272  0.00  0.00     0.274 HD
ENDBRANCH   1   2
BRANCH   1   6
ATOM      6  CB  ABU d          23.055  19.579  18.234  0.00  0.00     0.038 C 
BRANCH   6   7
ATOM      7  CG  ABU d          23.789  18.457  18.945  0.00  0.00     0.115 C 
BRANCH   7   8
ATOM      8  CD  ABU d          23.112  17.097  19.014  0.00  0.00     0.172 C 
ATOM      9  OE1 ABU d          23.295  16.422  20.211  0.00  0.00    -0.648 OA
ATOM     10  OE2 ABU d          22.819  16.484  18.025  0.00  0.00    -0.648 OA
ENDBRANCH   7   8
ENDBRANCH   6   7
ENDBRANCH   1   6
TORSDOF 4
