REMARK  3 active torsions:
REMARK  status: ('A' for Active; 'I' for Inactive)
REMARK    1  A    between atoms: P_2  and  C_5 
REMARK    2  A    between atoms: C_5  and  N_6 
REMARK    3  A    between atoms: C_5  and  C1_7 
ROOT
ATOM      1  C   Q02 d          23.194  -3.602  10.492  0.00  0.00     0.344 C 
ENDROOT
BRANCH   1   2
ATOM      2  P   Q02 d          21.867  -2.616  11.302  0.00  0.00     0.295 P 
ATOM      3  O   Q02 d          22.329  -2.331  12.725  0.00  0.00    -0.638 OA
ATOM      4  O1  Q02 d          21.766  -1.469  10.608  0.00  0.00    -0.638 OA
ATOM      5  O2  Q02 d          20.538  -3.328  11.242  0.00  0.00    -0.638 OA
ENDBRANCH   1   2
BRANCH   1   6
ATOM      6  N   Q02 d          24.197  -2.939   9.735  0.00  0.00    -0.058 N 
ATOM      7  H2  Q02 d          24.841  -3.619   9.363  0.00  0.00     0.275 HD
ATOM      8  H3  Q02 d          24.695  -2.294  10.329  0.00  0.00     0.275 HD
ATOM      9  H4  Q02 d          23.767  -2.433   8.977  0.00  0.00     0.275 HD
ENDBRANCH   1   6
BRANCH   1  10
ATOM     10  C1  Q02 d          23.457  -4.994  10.891  0.00  0.00    -0.015 A 
ATOM     11  C6  Q02 d          24.516  -5.678  10.345  0.00  0.00     0.010 A 
ATOM     12  C5  Q02 d          24.765  -6.997  10.674  0.00  0.00     0.001 A 
ATOM     13  C4  Q02 d          23.943  -7.691  11.513  0.00  0.00     0.000 A 
ATOM     14  C3  Q02 d          22.891  -7.008  12.065  0.00  0.00     0.001 A 
ATOM     15  C2  Q02 d          22.633  -5.682  11.743  0.00  0.00     0.010 A 
ENDBRANCH   1  10
TORSDOF 3
