REMARK  7 active torsions:
REMARK  status: ('A' for Active; 'I' for Inactive)
REMARK    1  A    between atoms: C17_2  and  N16_23 
REMARK    2  A    between atoms: C21_4  and  C30_30 
REMARK    3  A    between atoms: C23_26  and  C24_6 
REMARK    4  A    between atoms: C07_15  and  C03_11 
REMARK    5  A    between atoms: C08_16  and  C07_15 
REMARK    6  A    between atoms: C14_21  and  C12_19 
REMARK       I    between atoms: N16_23  and  C14_21 
REMARK    7  A    between atoms: C18_24  and  C23_26 
ROOT
ATOM      1  C17 MOL d         -29.281 -20.764 -42.954  0.00  0.00     0.041 A 
ATOM      2  C20 MOL d         -30.589 -22.892 -42.413  0.00  0.00     0.017 A 
ATOM      3  C21 MOL d         -29.542 -23.722 -42.992  0.00  0.00     0.013 A 
ATOM      4  C22 MOL d         -28.363 -23.078 -43.570  0.00  0.00     0.025 A 
ATOM      5  C18 MOL d         -28.227 -21.617 -43.516  0.00  0.00    -0.026 A 
ATOM      6  C19 MOL d         -30.471 -21.422 -42.389  0.00  0.00     0.031 A 
ENDROOT
BRANCH   1   7
ATOM      7  N16 MOL d         -29.094 -19.400 -42.889  0.00  0.00    -0.321 N 
ATOM      8  C14 MOL d         -30.012 -18.466 -42.502  0.00  0.00     0.274 C 
ATOM      9  O15 MOL d         -31.201 -18.650 -42.230  0.00  0.00    -0.266 OA
ATOM     10  H   MOL d         -28.192 -19.059 -43.153  0.00  0.00     0.169 HD
BRANCH   8  11
ATOM     11  C12 MOL d         -29.407 -17.134 -42.498  0.00  0.00     0.125 A 
ATOM     12  C11 MOL d         -30.186 -15.894 -42.316  0.00  0.00     0.037 A 
ATOM     13  C10 MOL d         -29.503 -14.624 -42.307  0.00  0.00     0.004 A 
ATOM     14  C09 MOL d         -28.084 -14.589 -42.484  0.00  0.00     0.027 A 
ATOM     15  C08 MOL d         -27.328 -15.849 -42.633  0.00  0.00     0.035 A 
ATOM     16  N13 MOL d         -27.982 -17.103 -42.648  0.00  0.00    -0.248 NA
BRANCH  15  17
ATOM     17  C07 MOL d         -25.838 -15.810 -42.787  0.00  0.00     0.064 C 
BRANCH  17  18
ATOM     18  C03 MOL d         -25.310 -16.675 -43.923  0.00  0.00    -0.009 C 
ATOM     19  C02 MOL d         -23.814 -16.815 -43.708  0.00  0.00     0.005 C 
ATOM     20  C01 MOL d         -23.128 -17.546 -44.838  0.00  0.00     0.000 C 
ATOM     21  C06 MOL d         -23.494 -17.014 -46.203  0.00  0.00     0.000 C 
ATOM     22  C05 MOL d         -24.989 -16.830 -46.392  0.00  0.00     0.000 C 
ATOM     23  C04 MOL d         -25.601 -16.050 -45.242  0.00  0.00     0.005 C 
ENDBRANCH  17  18
ENDBRANCH  15  17
ENDBRANCH   8  11
ENDBRANCH   1   7
BRANCH   5  24
ATOM     24  C23 MOL d         -27.009 -20.984 -44.114  0.00  0.00     0.079 C 
BRANCH  24  25
ATOM     25  C24 MOL d         -25.960 -20.677 -43.114  0.00  0.00    -0.054 A 
ATOM     26  C26 MOL d         -24.552 -20.795 -43.520  0.00  0.00     0.007 A 
ATOM     27  C25 MOL d         -23.460 -20.478 -42.584  0.00  0.00     0.001 A 
ATOM     28  C29 MOL d         -23.776 -20.043 -41.241  0.00  0.00     0.000 A 
ATOM     29  C28 MOL d         -25.178 -19.891 -40.832  0.00  0.00     0.001 A 
ATOM     30  C27 MOL d         -26.304 -20.218 -41.756  0.00  0.00     0.007 A 
ENDBRANCH  24  25
ENDBRANCH   5  24
BRANCH   3  31
ATOM     31  C30 MOL d         -29.657 -25.191 -43.130  0.00  0.00     0.168 A 
ATOM     32  N31 MOL d         -30.417 -25.966 -42.349  0.00  0.00    -0.268 N 
ATOM     33  N34 MOL d         -30.228 -27.186 -42.851  0.00  0.00    -0.005 NA
ATOM     34  H   MOL d         -31.006 -25.687 -41.552  0.00  0.00     0.185 HD
ATOM     35  N33 MOL d         -29.389 -27.145 -43.877  0.00  0.00     0.018 NA
ATOM     36  N32 MOL d         -29.019 -25.867 -44.052  0.00  0.00    -0.142 NA
ENDBRANCH   3  31
TORSDOF 7
