REMARK  3 active torsions:
REMARK  status: ('A' for Active; 'I' for Inactive)
REMARK    1  A    between atoms: C7_2  and  C4_3 
REMARK       I    between atoms: C7_2  and  N8_10 
REMARK    2  A    between atoms: N8_10  and  C9_11 
REMARK    3  A    between atoms: C11_15  and  C15_17 
ROOT
ATOM      1  C9  DN8 d          -6.745  54.377  12.445  0.00  0.00     0.035 A 
ATOM      2  C14 DN8 d          -7.135  53.729  13.620  0.00  0.00     0.029 A 
ATOM      3  C13 DN8 d          -6.189  53.069  14.415  0.00  0.00     0.003 A 
ATOM      4  C12 DN8 d          -4.838  52.995  14.069  0.00  0.00     0.015 A 
ATOM      5  C11 DN8 d          -4.438  53.612  12.880  0.00  0.00     0.017 A 
ATOM      6  C10 DN8 d          -5.388  54.299  12.099  0.00  0.00     0.045 A 
ENDROOT
BRANCH   1   7
ATOM      7  N8  DN8 d          -7.727  55.022  11.664  0.00  0.00    -0.323 N 
ATOM      8  C7  DN8 d          -8.618  55.848  12.198  0.00  0.00     0.256 C 
ATOM      9  O21 DN8 d          -8.898  55.869  13.401  0.00  0.00    -0.267 OA
ATOM     10  H5  DN8 d          -7.753  54.852  10.679  0.00  0.00     0.169 HD
BRANCH   8  11
ATOM     11  C4  DN8 d          -9.321  56.803  11.264  0.00  0.00     0.033 A 
ATOM     12  C3  DN8 d          -9.051  56.752   9.887  0.00  0.00     0.017 A 
ATOM     13  C2  DN8 d          -9.691  57.617   9.010  0.00  0.00     0.002 A 
ATOM     14  C1  DN8 d         -10.596  58.578   9.522  0.00  0.00     0.019 A 
ATOM     15  C6  DN8 d         -10.842  58.627  10.887  0.00  0.00     0.011 A 
ATOM     16  C5  DN8 d         -10.215  57.741  11.767  0.00  0.00     0.036 A 
ATOM     17 BR1  DN8 d         -12.024  59.913  11.579  0.00  0.00    -0.051 Br
ENDBRANCH   8  11
ENDBRANCH   1   7
BRANCH   5  18
ATOM     18  C15 DN8 d          -3.091  53.556  12.531  0.00  0.00     0.198 A 
ATOM     19  N19 DN8 d          -2.522  53.971  11.409  0.00  0.00    -0.136 NA
ATOM     20  N18 DN8 d          -1.177  53.736  11.408  0.00  0.00     0.022 NA
ATOM     21  N17 DN8 d          -0.898  53.104  12.566  0.00  0.00    -0.200 N 
ATOM     22  N16 DN8 d          -2.110  53.017  13.249  0.00  0.00    -0.139 NA
ATOM     23  H10 DN8 d           0.020  52.758  12.880  0.00  0.00     0.208 HD
ENDBRANCH   5  18
TORSDOF 3
