REMARK  9 active torsions:
REMARK  status: ('A' for Active; 'I' for Inactive)
REMARK    1  A    between atoms: PB_1  and  O3A_5 
REMARK    2  A    between atoms: O3A_5  and  PA_6 
REMARK    3  A    between atoms: PA_6  and  O5'_9 
REMARK    4  A    between atoms: O5'_9  and  C5'_10 
REMARK    5  A    between atoms: C5'_10  and  C4'_11 
REMARK    6  A    between atoms: C3'_13  and  O3'_14 
REMARK    7  A    between atoms: C2'_15  and  O2'_16 
REMARK    8  A    between atoms: C1'_17  and  N9_18 
REMARK    9  A    between atoms: C2_25  and  N2_26 
ROOT
ATOM      1  C4' GDP d          -2.649 -42.244  18.645  0.00  0.00     0.180 C 
ATOM      2  O4' GDP d          -3.466 -41.929  19.772  0.00  0.00    -0.353 OA
ATOM      3  C3' GDP d          -3.466 -43.152  17.735  0.00  0.00     0.182 C 
ATOM      4  C2' GDP d          -4.897 -43.020  18.218  0.00  0.00     0.198 C 
ATOM      5  C1' GDP d          -4.773 -42.498  19.642  0.00  0.00     0.262 C 
ENDROOT
BRANCH   5   6
ATOM      6  N9  GDP d          -5.753 -41.446  20.007  0.00  0.00    -0.295 N 
ATOM      7  C8  GDP d          -5.957 -40.273  19.376  0.00  0.00     0.214 A 
ATOM      8  N7  GDP d          -6.914 -39.544  20.009  0.00  0.00    -0.234 NA
ATOM      9  C5  GDP d          -7.327 -40.252  21.075  0.00  0.00     0.171 A 
ATOM     10  C6  GDP d          -8.309 -40.075  22.172  0.00  0.00     0.292 A 
ATOM     11  C4  GDP d          -6.553 -41.500  21.069  0.00  0.00     0.161 A 
ATOM     12  O6  GDP d          -9.004 -39.043  22.249  0.00  0.00    -0.265 OA
ATOM     13  N1  GDP d          -8.433 -41.053  23.082  0.00  0.00    -0.154 N 
ATOM     14  C2  GDP d          -7.693 -42.183  23.024  0.00  0.00     0.680 A 
ATOM     15  H   GDP d          -9.093 -40.943  23.826  0.00  0.00     0.187 HD
ATOM     16  N3  GDP d          -6.775 -42.409  22.049  0.00  0.00    -0.174 N 
ATOM     17  H   GDP d          -6.238 -43.288  22.055  0.00  0.00     0.186 HD
BRANCH  14  18
ATOM     18  N2  GDP d          -7.864 -43.136  23.973  0.00  0.00    -0.234 N 
ATOM     19  H   GDP d          -7.306 -44.001  23.940  0.00  0.00     0.174 HD
ATOM     20  H   GDP d          -8.552 -42.995  24.727  0.00  0.00     0.174 HD
ENDBRANCH  14  18
ENDBRANCH   5   6
BRANCH   4  21
ATOM     21  O2' GDP d          -5.570 -44.280  18.196  0.00  0.00    -0.388 OA
ATOM     22  H   GDP d          -5.114 -44.891  18.763  0.00  0.00     0.210 HD
ENDBRANCH   4  21
BRANCH   1  23
ATOM     23  C5' GDP d          -2.211 -40.950  17.972  0.00  0.00     0.216 C 
BRANCH  23  24
ATOM     24  O5' GDP d          -3.264 -40.409  17.177  0.00  0.00    -0.287 OA
BRANCH  24  25
ATOM     25  PA  GDP d          -2.921 -39.334  16.036  0.00  0.00     0.418 P 
ATOM     26  O1A GDP d          -4.161 -38.537  15.739  0.00  0.00    -0.624 OA
ATOM     27  O2A GDP d          -2.199 -40.047  14.915  0.00  0.00    -0.624 OA
BRANCH  25  28
ATOM     28  O3A GDP d          -1.887 -38.391  16.834  0.00  0.00    -0.173 OA
BRANCH  28  29
ATOM     29  PB  GDP d          -0.897 -37.320  16.145  0.00  0.00     0.431 P 
ATOM     30  O1B GDP d          -1.551 -36.938  14.840  0.00  0.00    -0.616 OA
ATOM     31  O2B GDP d          -0.872 -36.221  17.177  0.00  0.00    -0.616 OA
ATOM     32  O3B GDP d           0.417 -38.058  16.026  0.00  0.00    -0.616 OA
ENDBRANCH  28  29
ENDBRANCH  25  28
ENDBRANCH  24  25
ENDBRANCH  23  24
ENDBRANCH   1  23
BRANCH   3  33
ATOM     33  O3' GDP d          -3.007 -44.506  17.853  0.00  0.00    -0.390 OA
ATOM     34  H   GDP d          -3.522 -45.065  17.282  0.00  0.00     0.210 HD
ENDBRANCH   3  33
TORSDOF 9
