REMARK  5 active torsions:
REMARK  status: ('A' for Active; 'I' for Inactive)
REMARK    1  A    between atoms: CAC_5  and  OAD_6 
REMARK    2  A    between atoms: OAD_6  and  PAE_7 
REMARK    3  A    between atoms: PAE_7  and  NAM_8 
REMARK    4  A    between atoms: PAE_7  and  OAF_10 
REMARK    5  A    between atoms: OAF_10  and  CAG_11 
ROOT
ATOM      1  PAE DI9 d          17.773   2.833  61.146  0.00  0.00     0.429 P 
ATOM      2  OAA DI9 d          16.533   2.136  60.739  0.00  0.00    -0.235 OA
ENDROOT
BRANCH   1   3
ATOM      3  OAD DI9 d          18.682   3.276  59.891  0.00  0.00    -0.293 OA
BRANCH   3   4
ATOM      4  CAC DI9 d          19.454   4.481  59.930  0.00  0.00     0.133 C 
ATOM      5  CAB DI9 d          19.617   4.984  58.491  0.00  0.00     0.032 C 
ATOM      6  CAJ DI9 d          21.062   4.656  58.103  0.00  0.00     0.002 C 
ATOM      7  CAK DI9 d          21.405   3.508  59.051  0.00  0.00     0.002 C 
ATOM      8  CAL DI9 d          20.883   4.127  60.347  0.00  0.00     0.032 C 
ENDBRANCH   3   4
ENDBRANCH   1   3
BRANCH   1   9
ATOM      9  NAM DI9 d          17.480   4.185  61.995  0.00  0.00    -0.337 N 
ATOM     10  H10 DI9 d          16.907   4.906  61.605  0.00  0.00     0.161 HD
ATOM     11  H11 DI9 d          17.872   4.297  62.908  0.00  0.00     0.161 HD
ENDBRANCH   1   9
BRANCH   1  12
ATOM     12  OAF DI9 d          18.716   1.920  62.079  0.00  0.00    -0.293 OA
BRANCH  12  13
ATOM     13  CAG DI9 d          18.348   1.661  63.437  0.00  0.00     0.133 C 
ATOM     14  CAH DI9 d          18.444   0.158  63.705  0.00  0.00     0.032 C 
ATOM     15  CAI DI9 d          19.959  -0.001  63.819  0.00  0.00     0.002 C 
ATOM     16  CAO DI9 d          20.221   1.074  64.874  0.00  0.00     0.002 C 
ATOM     17  CAN DI9 d          19.432   2.270  64.334  0.00  0.00     0.032 C 
ENDBRANCH  12  13
ENDBRANCH   1  12
TORSDOF 5
