REMARK  21 active torsions:
REMARK  status: ('A' for Active; 'I' for Inactive)
REMARK    1  A    between atoms: CBQ_43  and  OAO_15 
REMARK    2  A    between atoms: CBU_47  and  OAP_16 
REMARK    3  A    between atoms: CBH_34  and  CAQ_17 
REMARK    4  A    between atoms: CAR_18  and  CBN_40 
REMARK    5  A    between atoms: CBO_41  and  CAX_24 
REMARK    6  A    between atoms: CAZ_26  and  CAY_25 
REMARK    7  A    between atoms: CAY_25  and  CBI_35 
REMARK    8  A    between atoms: CBV_48  and  CAZ_26 
REMARK    9  A    between atoms: CBA_27  and  CBM_39 
REMARK   10  A    between atoms: CBP_42  and  CBA_27 
REMARK   11  A    between atoms: CBN_40  and  CBB_28 
REMARK   12  A    between atoms: CBB_28  and  CBO_41 
REMARK   13  A    between atoms: OBC_29  and  CBG_33 
REMARK   14  A    between atoms: CBR_44  and  OBC_29 
REMARK   15  A    between atoms: OBD_30  and  CBH_34 
REMARK   16  A    between atoms: CBT_46  and  OBD_30 
REMARK   17  A    between atoms: CBI_35  and  CBR_44 
REMARK   18  A    between atoms: CBS_45  and  CBJ_36 
REMARK   19  A    between atoms: CBU_47  and  CBK_37 
REMARK   20  A    between atoms: CBW_49  and  CBL_38 
REMARK   21  A    between atoms: CBR_44  and  CBP_42 
ROOT
ATOM      1  OBE ZGA d          23.275  -5.702   9.471  0.00  0.00    -0.333 OA
ATOM      2  OBF ZGA d          22.862  -7.721  10.403  0.00  0.00    -0.324 OA
ATOM      3  CBQ ZGA d          22.064  -7.527   8.275  0.00  0.00     0.213 C 
ATOM      4  CBS ZGA d          22.113  -5.091  10.054  0.00  0.00     0.275 C 
ATOM      5  CBT ZGA d          20.884  -7.645   9.224  0.00  0.00     0.215 C 
ATOM      6  CBU ZGA d          21.434  -6.007  11.089  0.00  0.00     0.226 C 
ATOM      7  CBV ZGA d          23.209  -7.099   9.176  0.00  0.00     0.196 C 
ATOM      8  CBW ZGA d          21.482  -7.464  10.621  0.00  0.00     0.225 C 
ENDROOT
BRANCH   7   9
ATOM      9  CAZ ZGA d          24.478  -7.598   8.503  0.00  0.00     0.076 C 
BRANCH   9  10
ATOM     10  CAY ZGA d          25.295  -8.378   9.501  0.00  0.00     0.041 C 
BRANCH  10  11
ATOM     11  CBI ZGA d          26.614  -8.761   8.863  0.00  0.00    -0.059 C 
ATOM     12  CAA ZGA d          27.577  -7.839   8.830  0.00  0.00     0.017 C 
BRANCH  11  13
ATOM     13  CBR ZGA d          26.784 -10.174   8.377  0.00  0.00     0.164 C 
BRANCH  13  14
ATOM     14  OBC ZGA d          28.129 -10.433   7.990  0.00  0.00    -0.311 OA
BRANCH  14  15
ATOM     15  CBG ZGA d          28.437  -9.969   6.651  0.00  0.00     0.255 C 
ATOM     16  CAC ZGA d          29.808 -10.248   6.133  0.00  0.00     0.126 C 
ATOM     17  OAG ZGA d          27.575  -9.391   6.006  0.00  0.00    -0.266 OA
ENDBRANCH  14  15
ENDBRANCH  13  14
BRANCH  13  18
ATOM     18  CBP ZGA d          26.511 -11.146   9.525  0.00  0.00     0.020 C 
ATOM     19  CAF ZGA d          27.319 -10.781  10.777  0.00  0.00     0.013 C 
BRANCH  18  20
ATOM     20  CBA ZGA d          26.736 -12.575   9.023  0.00  0.00     0.045 C 
BRANCH  20  21
ATOM     21  CBM ZGA d          26.158 -13.652   9.929  0.00  0.00    -0.058 A 
ATOM     22  CAV ZGA d          27.016 -14.499  10.632  0.00  0.00     0.007 A 
ATOM     23  CAT ZGA d          26.509 -15.500  11.457  0.00  0.00     0.001 A 
ATOM     24  CAS ZGA d          25.130 -15.675  11.577  0.00  0.00     0.000 A 
ATOM     25  CAU ZGA d          24.269 -14.834  10.874  0.00  0.00     0.001 A 
ATOM     26  CAW ZGA d          24.780 -13.835  10.036  0.00  0.00     0.007 A 
ENDBRANCH  20  21
ENDBRANCH  18  20
ENDBRANCH  13  18
ENDBRANCH  11  13
ENDBRANCH  10  11
ENDBRANCH   9  10
ENDBRANCH   7   9
BRANCH   3  27
ATOM     27  OAO ZGA d          21.907  -6.597   7.200  0.00  0.00    -0.387 OA
ATOM     28  H18 ZGA d          21.762  -5.727   7.554  0.00  0.00     0.210 HD
ENDBRANCH   3  27
BRANCH   4  29
ATOM     29  CBJ ZGA d          22.550  -3.790  10.669  0.00  0.00     0.207 C 
ATOM     30  OAI ZGA d          21.691  -2.947  11.011  0.00  0.00    -0.646 OA
ATOM     31  OAL ZGA d          23.776  -3.608  10.837  0.00  0.00    -0.646 OA
ENDBRANCH   4  29
BRANCH   8  32
ATOM     32  CBL ZGA d          20.938  -8.436  11.638  0.00  0.00     0.216 C 
ATOM     33  OAK ZGA d          21.758  -9.191  12.195  0.00  0.00    -0.646 OA
ATOM     34  OAN ZGA d          19.719  -8.443  11.914  0.00  0.00    -0.646 OA
ENDBRANCH   8  32
BRANCH   5  35
ATOM     35  OBD ZGA d          20.334  -8.949   9.049  0.00  0.00    -0.306 OA
BRANCH  35  36
ATOM     36  CBH ZGA d          18.958  -8.941   8.571  0.00  0.00     0.283 C 
ATOM     37  OAH ZGA d          18.479  -7.919   8.093  0.00  0.00    -0.260 OA
BRANCH  36  38
ATOM     38  CAQ ZGA d          18.160 -10.170   8.726  0.00  0.00     0.078 C 
ATOM     39  CAR ZGA d          16.954 -10.280   8.168  0.00  0.00    -0.016 C 
BRANCH  39  40
ATOM     40  CBN ZGA d          16.086 -11.509   8.347  0.00  0.00     0.004 C 
ATOM     41  CAD ZGA d          15.645 -12.039   6.984  0.00  0.00     0.014 C 
BRANCH  40  42
ATOM     42  CBB ZGA d          16.825 -12.511   9.231  0.00  0.00     0.012 C 
BRANCH  42  43
ATOM     43  CBO ZGA d          16.199 -13.897   9.240  0.00  0.00    -0.018 C 
ATOM     44  CAE ZGA d          17.145 -14.862   8.541  0.00  0.00     0.010 C 
BRANCH  43  45
ATOM     45  CAX ZGA d          15.881 -14.326  10.667  0.00  0.00    -0.000 C 
ATOM     46  CAB ZGA d          16.668 -15.563  11.037  0.00  0.00     0.005 C 
ENDBRANCH  43  45
ENDBRANCH  42  43
ENDBRANCH  40  42
ENDBRANCH  39  40
ENDBRANCH  36  38
ENDBRANCH  35  36
ENDBRANCH   5  35
BRANCH   6  47
ATOM     47  OAP ZGA d          22.113  -5.890  12.343  0.00  0.00    -0.373 OA
ATOM     48  H19 ZGA d          21.699  -6.460  12.980  0.00  0.00     0.211 HD
ENDBRANCH   6  47
BRANCH   6  49
ATOM     49  CBK ZGA d          20.008  -5.591  11.346  0.00  0.00     0.216 C 
ATOM     50  OAJ ZGA d          19.222  -5.498  10.380  0.00  0.00    -0.646 OA
ATOM     51  OAM ZGA d          19.655  -5.367  12.523  0.00  0.00    -0.646 OA
ENDBRANCH   6  49
TORSDOF 21
