REMARK  3 active torsions:
REMARK  status: ('A' for Active; 'I' for Inactive)
REMARK    1  A    between atoms: C10_10  and  N1_11 
REMARK    2  A    between atoms: C12_13  and  N4_19 
REMARK    3  A    between atoms: C13_14  and  C14_16 
REMARK       I    between atoms: C14_16  and  N3_18 
REMARK       I    between atoms: N4_19  and  C15_20 
REMARK       I    between atoms: C15_20  and  N5_22 
ROOT
ATOM      1  N1  M0Y d           6.636   5.417  22.574  0.00  0.00    -0.241 N 
ATOM      2  C11 M0Y d           7.243   4.671  23.595  0.00  0.00     0.151 A 
ATOM      3  C12 M0Y d           6.211   3.968  24.204  0.00  0.00     0.090 A 
ATOM      4  C13 M0Y d           5.010   4.350  23.485  0.00  0.00     0.172 A 
ATOM      5  N2  M0Y d           5.308   5.232  22.509  0.00  0.00    -0.160 NA
ENDROOT
BRANCH   1   6
ATOM      6  C10 M0Y d           7.337   6.286  21.655  0.00  0.00     0.069 A 
ATOM      7  C4  M0Y d           8.449   7.124  22.083  0.00  0.00     0.003 A 
ATOM      8  C3  M0Y d           8.883   7.285  23.451  0.00  0.00     0.014 A 
ATOM      9  C5  M0Y d           9.149   7.855  21.051  0.00  0.00    -0.024 A 
ATOM     10  C2  M0Y d           9.947   8.098  23.758  0.00  0.00     0.001 A 
ATOM     11  C1  M0Y d          10.644   8.799  22.730  0.00  0.00     0.001 A 
ATOM     12  C6  M0Y d          10.260   8.685  21.407  0.00  0.00     0.012 A 
ATOM     13  C7  M0Y d           8.725   7.771  19.679  0.00  0.00     0.012 A 
ATOM     14  C8  M0Y d           7.644   6.988  19.330  0.00  0.00     0.003 A 
ATOM     15  C9  M0Y d           6.938   6.236  20.310  0.00  0.00     0.032 A 
ENDBRANCH   1   6
BRANCH   3  16
ATOM     16  N4  M0Y d           6.254   3.054  25.253  0.00  0.00    -0.305 N 
ATOM     17  C15 M0Y d           7.432   2.688  25.999  0.00  0.00     0.318 C 
ATOM     18  O2  M0Y d           8.571   3.175  25.830  0.00  0.00    -0.247 OA
ATOM     19  N5  M0Y d           7.234   1.733  26.989  0.00  0.00    -0.352 N 
ATOM     20  H   M0Y d           8.004   1.427  27.550  0.00  0.00     0.160 HD
ATOM     21  H   M0Y d           6.322   1.352  27.141  0.00  0.00     0.160 HD
ATOM     22  H   M0Y d           5.394   2.614  25.511  0.00  0.00     0.171 HD
ENDBRANCH   3  16
BRANCH   4  23
ATOM     23  C14 M0Y d           3.628   3.933  23.772  0.00  0.00     0.272 C 
ATOM     24  O1  M0Y d           3.408   3.283  24.777  0.00  0.00    -0.266 OA
ATOM     25  N3  M0Y d           2.579   4.330  22.925  0.00  0.00    -0.365 N 
ATOM     26  H   M0Y d           1.641   4.045  23.123  0.00  0.00     0.159 HD
ATOM     27  H   M0Y d           2.770   4.898  22.124  0.00  0.00     0.159 HD
ENDBRANCH   4  23
TORSDOF 3
