REMARK  6 active torsions:
REMARK  status: ('A' for Active; 'I' for Inactive)
REMARK    1  A    between atoms: C2'_10  and  O2'_11 
REMARK    2  A    between atoms: C1'_12  and  N9_13 
REMARK    3  A    between atoms: C6_17  and  N6_18 
REMARK    4  A    between atoms: C2'1_32  and  O2'1_33 
REMARK    5  A    between atoms: C1'1_34  and  N91_35 
REMARK    6  A    between atoms: C61_39  and  N61_40 
ROOT
ATOM      1  P   MOL d          14.238 -28.817  12.446  0.00  0.00     0.408 P 
ATOM      2  O1P MOL d          14.848 -29.245  11.140  0.00  0.00    -0.624 OA
ATOM      3  O2P MOL d          13.595 -27.405  12.187  0.00  0.00    -0.624 OA
ATOM      4  O5' MOL d          13.168 -29.947  12.791  0.00  0.00    -0.287 OA
ATOM      5  C5' MOL d          12.366 -29.782  13.938  0.00  0.00     0.216 C 
ATOM      6  C4' MOL d          11.518 -31.056  14.076  0.00  0.00     0.180 C 
ATOM      7  O4' MOL d          10.844 -31.171  12.927  0.00  0.00    -0.353 OA
ATOM      8  C3' MOL d          12.417 -32.264  14.197  0.00  0.00     0.198 C 
ATOM      9  O3' MOL d          12.681 -32.541  15.523  0.00  0.00    -0.279 OA
ATOM     10  C2' MOL d          11.472 -33.347  13.546  0.00  0.00     0.199 C 
ATOM     11  C1' MOL d          10.763 -32.743  12.627  0.00  0.00     0.262 C 
ATOM     12  P1  MOL d          14.174 -33.066  15.858  0.00  0.00     0.408 P 
ATOM     13  O1P MOL d          14.371 -34.384  15.123  0.00  0.00    -0.624 OA
ATOM     14  O2P MOL d          14.456 -33.346  17.328  0.00  0.00    -0.624 OA
ATOM     15  O5' MOL d          15.215 -31.977  15.105  0.00  0.00    -0.287 OA
ATOM     16  C5' MOL d          15.624 -30.945  15.965  0.00  0.00     0.216 C 
ATOM     17  C4' MOL d          16.673 -30.120  15.273  0.00  0.00     0.180 C 
ATOM     18  O4' MOL d          17.819 -30.713  15.335  0.00  0.00    -0.353 OA
ATOM     19  C3' MOL d          16.345 -29.888  13.654  0.00  0.00     0.198 C 
ATOM     20  O3' MOL d          15.538 -28.667  13.488  0.00  0.00    -0.279 OA
ATOM     21  C2' MOL d          17.484 -29.741  13.115  0.00  0.00     0.199 C 
ATOM     22  C1' MOL d          18.490 -30.621  13.957  0.00  0.00     0.262 C 
ENDROOT
BRANCH  11  23
ATOM     23  N9  MOL d          11.229 -33.064  11.319  0.00  0.00    -0.294 N 
ATOM     24  C8  MOL d          12.116 -32.174  10.813  0.00  0.00     0.214 A 
ATOM     25  N7  MOL d          12.490 -32.603   9.560  0.00  0.00    -0.236 NA
ATOM     26  C5  MOL d          11.816 -33.774   9.318  0.00  0.00     0.149 A 
ATOM     27  C6  MOL d          11.787 -34.680   8.225  0.00  0.00     0.155 A 
ATOM     28  C4  MOL d          11.045 -34.037  10.383  0.00  0.00     0.167 A 
ATOM     29  N1  MOL d          11.016 -35.764   8.272  0.00  0.00    -0.222 NA
ATOM     30  C2  MOL d          10.244 -36.022   9.363  0.00  0.00     0.237 A 
ATOM     31  N3  MOL d          10.262 -35.150  10.444  0.00  0.00    -0.222 NA
BRANCH  27  32
ATOM     32  N6  MOL d          12.452 -34.703   6.969  0.00  0.00    -0.382 N 
ATOM     33  H   MOL d          12.280 -35.475   6.309  0.00  0.00     0.157 HD
ATOM     34  H   MOL d          13.106 -33.948   6.719  0.00  0.00     0.157 HD
ENDBRANCH  27  32
ENDBRANCH  11  23
BRANCH  10  35
ATOM     35  O2' MOL d          10.586 -33.869  14.575  0.00  0.00    -0.388 OA
ATOM     36  H   MOL d          10.011 -34.523  14.195  0.00  0.00     0.210 HD
ENDBRANCH  10  35
BRANCH  21  37
ATOM     37  O2' MOL d          17.948 -28.309  13.266  0.00  0.00    -0.388 OA
ATOM     38  H   MOL d          17.325 -27.729  12.844  0.00  0.00     0.210 HD
ENDBRANCH  21  37
BRANCH  22  39
ATOM     39  N91 MOL d          18.692 -31.830  13.458  0.00  0.00    -0.294 N 
ATOM     40  C81 MOL d          17.839 -32.873  13.293  0.00  0.00     0.214 A 
ATOM     41  N71 MOL d          18.547 -33.907  12.755  0.00  0.00    -0.236 NA
ATOM     42  C51 MOL d          19.842 -33.496  12.598  0.00  0.00     0.149 A 
ATOM     43  C61 MOL d          20.978 -34.152  12.098  0.00  0.00     0.155 A 
ATOM     44  C41 MOL d          19.935 -32.221  13.037  0.00  0.00     0.167 A 
ATOM     45  N11 MOL d          22.175 -33.498  12.053  0.00  0.00    -0.222 NA
ATOM     46  C21 MOL d          22.264 -32.207  12.497  0.00  0.00     0.237 A 
ATOM     47  N31 MOL d          21.146 -31.564  12.985  0.00  0.00    -0.222 NA
BRANCH  43  48
ATOM     48  N61 MOL d          20.975 -35.515  11.613  0.00  0.00    -0.382 N 
ATOM     49  H   MOL d          21.845 -35.937  11.259  0.00  0.00     0.157 HD
ATOM     50  H   MOL d          20.103 -36.063  11.622  0.00  0.00     0.157 HD
ENDBRANCH  43  48
ENDBRANCH  22  39
TORSDOF 6
