REMARK  11 active torsions:
REMARK  status: ('A' for Active; 'I' for Inactive)
REMARK    1  A    between atoms: C_1  and  OXT_2 
REMARK    2  A    between atoms: C_1  and  CA_3 
REMARK    3  A    between atoms: CA_3  and  CB_4 
REMARK    4  A    between atoms: CB_4  and  CG_5 
REMARK    5  A    between atoms: CG_5  and  S5'_6 
REMARK    6  A    between atoms: S5'_6  and  C5'_7 
REMARK    7  A    between atoms: C5'_7  and  C4'_8 
REMARK    8  A    between atoms: C3'_10  and  O3'_11 
REMARK    9  A    between atoms: N1'_13  and  C10_14 
REMARK   10  A    between atoms: C10_14  and  C9_15 
REMARK   11  A    between atoms: C6_23  and  N6_24 
ROOT
ATOM      1  C4' HCE d         -35.270 -45.219  12.126  0.00  0.00     0.051 C 
ATOM      2  C1' HCE d         -34.162 -46.256  12.098  0.00  0.00     0.243 C 
ATOM      3  C3' HCE d         -35.077 -44.436  10.845  0.00  0.00     0.150 C 
ATOM      4  C2' HCE d         -34.600 -45.491   9.871  0.00  0.00     0.267 C 
ATOM      5  N1' HCE d         -33.615 -46.205  10.718  0.00  0.00    -0.064 N 
ATOM      6  H19 HCE d         -32.772 -45.653  10.748  0.00  0.00     0.280 HD
ENDROOT
BRANCH   5   7
ATOM      7  C10 HCE d         -33.243 -47.505  10.152  0.00  0.00     0.277 C 
BRANCH   7   8
ATOM      8  C9  HCE d         -34.188 -48.671  10.295  0.00  0.00     0.014 A 
ATOM      9  C8  HCE d         -34.058 -49.745  11.186  0.00  0.00     0.099 A 
ATOM     10  N7  HCE d         -35.072 -50.646  11.007  0.00  0.00    -0.360 N 
ATOM     11  C5  HCE d         -35.896 -50.244  10.025  0.00  0.00     0.107 A 
ATOM     12  H23 HCE d         -35.188 -51.513  11.550  0.00  0.00     0.165 HD
ATOM     13  C4  HCE d         -35.392 -48.983   9.507  0.00  0.00     0.098 A 
ATOM     14  C6  HCE d         -37.131 -50.750   9.391  0.00  0.00     0.151 A 
ATOM     15  N3  HCE d         -36.013 -48.316   8.504  0.00  0.00    -0.239 NA
ATOM     16  C2  HCE d         -37.139 -48.845   7.966  0.00  0.00     0.236 A 
ATOM     17  N1  HCE d         -37.693 -50.016   8.394  0.00  0.00    -0.223 NA
BRANCH  14  18
ATOM     18  N6  HCE d         -37.680 -51.924   9.813  0.00  0.00    -0.382 N 
ATOM     19  H25 HCE d         -38.541 -52.278   9.372  0.00  0.00     0.157 HD
ATOM     20  H26 HCE d         -37.234 -52.457  10.573  0.00  0.00     0.157 HD
ENDBRANCH  14  18
ENDBRANCH   7   8
ENDBRANCH   5   7
BRANCH   1  21
ATOM     21  C5' HCE d         -36.625 -45.932  12.177  0.00  0.00     0.082 C 
BRANCH  21  22
ATOM     22  S5' HCE d         -37.944 -44.853  12.616  0.00  0.00    -0.169 SA
BRANCH  22  23
ATOM     23  CG  HCE d         -37.719 -44.675  14.360  0.00  0.00     0.074 C 
BRANCH  23  24
ATOM     24  CB  HCE d         -38.841 -43.930  15.077  0.00  0.00     0.012 C 
BRANCH  24  25
ATOM     25  CA  HCE d         -38.579 -44.043  16.582  0.00  0.00     0.027 C 
BRANCH  25  26
ATOM     26  C   HCE d         -39.766 -43.633  17.433  0.00  0.00     0.164 C 
BRANCH  26  27
ATOM     27  OXT HCE d         -39.967 -42.230  17.275  0.00  0.00    -0.401 OA
ATOM     28  H3  HCE d         -40.708 -41.956  17.802  0.00  0.00     0.209 HD
ENDBRANCH  26  27
ENDBRANCH  25  26
ENDBRANCH  24  25
ENDBRANCH  23  24
ENDBRANCH  22  23
ENDBRANCH  21  22
ENDBRANCH   1  21
BRANCH   3  29
ATOM     29  O3' HCE d         -34.040 -43.456  10.955  0.00  0.00    -0.393 OA
ATOM     30  H16 HCE d         -33.956 -42.992  10.130  0.00  0.00     0.210 HD
ENDBRANCH   3  29
TORSDOF 11
