REMARK  5 active torsions:
REMARK  status: ('A' for Active; 'I' for Inactive)
REMARK    1  A    between atoms: C1_1  and  C2_2 
REMARK    2  A    between atoms: C2_2  and  CA_3 
REMARK    3  A    between atoms: CA_3  and  C_4 
REMARK    4  A    between atoms: CA_3  and  CB_5 
REMARK    5  A    between atoms: CB_5  and  CG_6 
ROOT
ATOM      1  CA  BZS d          -2.431  29.948  -8.496  0.00  0.00     0.101 C 
ENDROOT
BRANCH   1   2
ATOM      2  C2  BZS d          -2.908  30.460  -7.104  0.00  0.00     0.128 C 
BRANCH   2   3
ATOM      3  C1  BZS d          -3.140  29.232  -6.239  0.00  0.00     0.173 C 
ATOM      4  O1  BZS d          -2.133  28.749  -5.854  0.00  0.00    -0.648 OA
ATOM      5  O2  BZS d          -4.226  28.780  -5.940  0.00  0.00    -0.648 OA
ENDBRANCH   2   3
ENDBRANCH   1   2
BRANCH   1   6
ATOM      6  C   BZS d          -0.881  29.539  -8.404  0.00  0.00     0.177 C 
ATOM      7  O3  BZS d          -0.479  28.351  -8.814  0.00  0.00    -0.648 OA
ATOM      8  O4  BZS d          -0.113  30.368  -7.826  0.00  0.00    -0.648 OA
ENDBRANCH   1   6
BRANCH   1   9
ATOM      9  CB  BZS d          -2.499  31.149  -9.489  0.00  0.00     0.054 C 
BRANCH   9  10
ATOM     10  CG  BZS d          -2.384  30.375 -10.852  0.00  0.00    -0.057 A 
ATOM     11  CD1 BZS d          -1.127  30.183 -11.443  0.00  0.00     0.007 A 
ATOM     12  CE1 BZS d          -1.084  29.570 -12.724  0.00  0.00     0.001 A 
ATOM     13  CZ  BZS d          -2.238  29.201 -13.351  0.00  0.00     0.000 A 
ATOM     14  CE2 BZS d          -3.451  29.359 -12.763  0.00  0.00     0.001 A 
ATOM     15  CD2 BZS d          -3.527  29.962 -11.568  0.00  0.00     0.007 A 
ENDBRANCH   9  10
ENDBRANCH   1   9
TORSDOF 5
