REMARK  7 active torsions:
REMARK  status: ('A' for Active; 'I' for Inactive)
REMARK    1  A    between atoms: C10_10  and  C17_17 
REMARK    2  A    between atoms: C20_20  and  C11_11 
REMARK    3  A    between atoms: C17_17  and  C13_13 
REMARK    4  A    between atoms: C15_15  and  N31_31 
REMARK    5  A    between atoms: C16_16  and  N30_30 
REMARK    6  A    between atoms: N31_31  and  C21_21 
REMARK    7  A    between atoms: C24_24  and  N29_29 
ROOT
ATOM      1  C5  ABQ d          37.406  30.114  26.989  0.00  0.00     0.152 A 
ATOM      2  C6  ABQ d          39.332  29.007  26.445  0.00  0.00     0.166 A 
ATOM      3  C13 ABQ d          36.759  28.905  27.038  0.00  0.00     0.127 A 
ATOM      4  C15 ABQ d          38.673  27.793  26.473  0.00  0.00     0.142 A 
ATOM      5  N25 ABQ d          38.737  30.199  26.677  0.00  0.00    -0.267 NA
ATOM      6  N28 ABQ d          37.359  27.719  26.780  0.00  0.00    -0.225 NA
ENDROOT
BRANCH   3   7
ATOM      7  C17 ABQ d          35.308  28.829  27.392  0.00  0.00     0.214 C 
ATOM      8  O32 ABQ d          34.573  29.689  26.855  0.00  0.00    -0.285 OA
BRANCH   7   9
ATOM      9  C10 ABQ d          34.729  27.674  28.089  0.00  0.00     0.050 A 
ATOM     10  C7  ABQ d          35.409  26.559  28.582  0.00  0.00     0.109 A 
ATOM     11  N29 ABQ d          34.512  25.650  29.097  0.00  0.00    -0.336 N 
ATOM     12  C14 ABQ d          33.224  26.156  28.945  0.00  0.00     0.146 A 
ATOM     13  C9  ABQ d          33.317  27.403  28.331  0.00  0.00     0.071 A 
ATOM     14  N26 ABQ d          32.103  25.524  29.322  0.00  0.00    -0.223 NA
ATOM     15  C16 ABQ d          32.105  28.063  28.130  0.00  0.00     0.137 A 
ATOM     16  N27 ABQ d          30.960  27.451  28.490  0.00  0.00    -0.224 NA
ATOM     17  C8  ABQ d          31.037  26.256  29.063  0.00  0.00     0.237 A 
BRANCH  11  18
ATOM     18  C24 ABQ d          34.789  24.327  29.684  0.00  0.00     0.083 C 
ATOM     19  C22 ABQ d          36.246  24.271  30.197  0.00  0.00     0.032 C 
ATOM     20  C23 ABQ d          34.576  23.378  28.511  0.00  0.00     0.032 C 
ENDBRANCH  11  18
BRANCH  15  21
ATOM     21  N30 ABQ d          31.979  29.319  27.551  0.00  0.00    -0.383 N 
ATOM     22  H22 ABQ d          31.047  29.742  27.436  0.00  0.00     0.157 HD
ATOM     23  H23 ABQ d          32.818  29.828  27.236  0.00  0.00     0.157 HD
ENDBRANCH  15  21
ENDBRANCH   7   9
ENDBRANCH   3   7
BRANCH   4  24
ATOM     24  N31 ABQ d          39.276  26.556  26.152  0.00  0.00    -0.366 N 
ATOM     25  H24 ABQ d          38.709  25.697  26.116  0.00  0.00     0.161 HD
BRANCH  24  26
ATOM     26  C21 ABQ d          40.715  26.505  25.871  0.00  0.00     0.117 C 
ATOM     27  C19 ABQ d          40.875  25.342  24.889  0.00  0.00     0.193 C 
ATOM     28  O33 ABQ d          41.579  24.231  25.500  0.00  0.00    -0.388 OA
ATOM     29  C18 ABQ d          41.701  24.507  26.919  0.00  0.00     0.179 C 
ATOM     30  C20 ABQ d          41.593  26.021  27.063  0.00  0.00     0.067 C 
BRANCH  30  31
ATOM     31  C11 ABQ d          41.061  26.423  28.402  0.00  0.00    -0.050 A 
ATOM     32  C1  ABQ d          41.617  27.589  28.917  0.00  0.00     0.011 A 
ATOM     33  C3  ABQ d          41.164  28.065  30.126  0.00  0.00     0.043 A 
ATOM     34  C12 ABQ d          40.182  27.371  30.816  0.00  0.00     0.116 A 
ATOM     35  C4  ABQ d          39.612  26.212  30.342  0.00  0.00     0.043 A 
ATOM     36  F34 ABQ d          39.822  27.878  32.013  0.00  0.00    -0.206 F 
ATOM     37  C2  ABQ d          40.057  25.732  29.104  0.00  0.00     0.011 A 
ENDBRANCH  30  31
ENDBRANCH  24  26
ENDBRANCH   4  24
TORSDOF 7
