REMARK  1 active torsions:
REMARK  status: ('A' for Active; 'I' for Inactive)
REMARK    1  A    between atoms: CAH_2  and  CAJ_4 
ROOT
ATOM      1  CAJ 0W1 d          13.856   3.535 -14.612  0.00  0.00     0.084 A 
ATOM      2  CAE 0W1 d          14.645   4.370 -15.317  0.00  0.00     0.042 A 
ATOM      3  SAG 0W1 d          14.842   2.686 -13.378  0.00  0.00    -0.063 SA
ATOM      4  CAL 0W1 d          16.305   3.539 -13.971  0.00  0.00     0.106 A 
ATOM      5  CAK 0W1 d          15.957   4.391 -14.990  0.00  0.00     0.027 A 
ATOM      6  CAI 0W1 d          17.105   5.010 -15.364  0.00  0.00     0.064 A 
ATOM      7  CAA 0W1 d          17.260   6.060 -16.480  0.00  0.00     0.073 C 
ATOM      8  NAF 0W1 d          18.129   4.601 -14.616  0.00  0.00    -0.176 NA
ATOM      9  NAM 0W1 d          17.629   3.681 -13.744  0.00  0.00    -0.266 N 
ATOM     10  CAB 0W1 d          18.468   2.926 -12.704  0.00  0.00     0.181 C 
ENDROOT
BRANCH   1  11
ATOM     11  CAH 0W1 d          12.520   3.381 -14.814  0.00  0.00     0.216 C 
ATOM     12  OAC 0W1 d          11.872   4.205 -15.530  0.00  0.00    -0.643 OA
ATOM     13  OAD 0W1 d          11.918   2.390 -14.324  0.00  0.00    -0.643 OA
ENDBRANCH   1  11
TORSDOF 1
