REMARK  4 active torsions:
REMARK  status: ('A' for Active; 'I' for Inactive)
REMARK    1  A    between atoms: CY1_2  and  CY2_4 
REMARK    2  A    between atoms: CY0_10  and  N1_11 
REMARK    3  A    between atoms: N1_11  and  CX2_12 
REMARK    4  A    between atoms: CX1_17  and  CX0_18 
ROOT
ATOM      1  N1  MOL d         -28.336 -32.698   7.670  0.00  0.00    -0.354 N 
ATOM      2  H   MOL d         -29.164 -32.615   7.063  0.00  0.00     0.166 HD
ENDROOT
BRANCH   1   3
ATOM      3  CY0 MOL d         -27.574 -31.505   7.901  0.00  0.00     0.049 A 
ATOM      4  CY2 MOL d         -28.227 -30.275   7.826  0.00  0.00     0.068 A 
ATOM      5  CY3 MOL d         -27.515 -29.096   8.026  0.00  0.00     0.027 A 
ATOM      6  CY4 MOL d         -26.159 -29.146   8.308  0.00  0.00    -0.061 A 
ATOM      7  C4  MOL d         -25.384 -27.892   8.537  0.00  0.00     0.048 C 
ATOM      8  CY5 MOL d         -25.507 -30.364   8.378  0.00  0.00     0.009 A 
ATOM      9  CY6 MOL d         -26.213 -31.534   8.165  0.00  0.00     0.031 A 
BRANCH   4  10
ATOM     10  CY1 MOL d         -29.688 -30.222   7.534  0.00  0.00     0.211 C 
ATOM     11  OX1 MOL d         -30.211 -31.062   6.752  0.00  0.00    -0.644 OA
ATOM     12  OX2 MOL d         -30.407 -29.343   8.082  0.00  0.00    -0.644 OA
ENDBRANCH   4  10
ENDBRANCH   1   3
BRANCH   1  13
ATOM     13  CX2 MOL d         -28.050 -33.996   8.208  0.00  0.00     0.049 A 
ATOM     14  CX3 MOL d         -27.191 -34.171   9.284  0.00  0.00     0.030 A 
ATOM     15  CX4 MOL d         -26.923 -35.431   9.791  0.00  0.00     0.002 A 
ATOM     16  CX5 MOL d         -27.545 -36.530   9.226  0.00  0.00     0.001 A 
ATOM     17  CX6 MOL d         -28.420 -36.371   8.164  0.00  0.00     0.021 A 
ATOM     18  CX1 MOL d         -28.680 -35.106   7.651  0.00  0.00     0.067 A 
BRANCH  18  19
ATOM     19  CX0 MOL d         -29.620 -34.973   6.498  0.00  0.00     0.211 C 
ATOM     20  OY1 MOL d         -29.921 -35.993   5.821  0.00  0.00    -0.644 OA
ATOM     21  OY2 MOL d         -30.102 -33.853   6.186  0.00  0.00    -0.644 OA
ENDBRANCH  18  19
ENDBRANCH   1  13
TORSDOF 4
