REMARK  0 active torsions:
REMARK  status: ('A' for Active; 'I' for Inactive)
ROOT
ATOM      1  N1  LUM d           0.207  22.255  -2.710  0.00  0.00    -0.291 N 
ATOM      2  C2  LUM d          -0.475  21.939  -3.817  0.00  0.00     0.328 A 
ATOM      3  C10 LUM d           0.722  21.248  -1.928  0.00  0.00     0.167 A 
ATOM      4  O2  LUM d          -0.967  22.854  -4.540  0.00  0.00    -0.247 OA
ATOM      5  N3  LUM d          -0.673  20.633  -4.186  0.00  0.00    -0.273 N 
ATOM      6  C4  LUM d          -0.217  19.585  -3.459  0.00  0.00     0.282 A 
ATOM      7  O4  LUM d          -0.419  18.407  -3.851  0.00  0.00    -0.265 OA
ATOM      8  C4A LUM d           0.509  19.837  -2.298  0.00  0.00     0.171 A 
ATOM      9  N5  LUM d           1.008  18.835  -1.519  0.00  0.00    -0.237 NA
ATOM     10  C5A LUM d           1.709  19.171  -0.412  0.00  0.00     0.087 A 
ATOM     11  C6  LUM d           2.230  18.153   0.400  0.00  0.00     0.041 A 
ATOM     12  C9A LUM d           1.918  20.513  -0.055  0.00  0.00     0.088 A 
ATOM     13  C7  LUM d           2.959  18.481   1.538  0.00  0.00    -0.054 A 
ATOM     14  C7M LUM d           3.530  17.345   2.383  0.00  0.00     0.049 C 
ATOM     15  C8  LUM d           3.166  19.797   1.886  0.00  0.00    -0.054 A 
ATOM     16  C8M LUM d           3.958  20.123   3.145  0.00  0.00     0.049 C 
ATOM     17  C9  LUM d           2.635  20.835   1.103  0.00  0.00     0.041 A 
ATOM     18  N10 LUM d           1.433  21.512  -0.820  0.00  0.00    -0.226 NA
ATOM     19  H1  LUM d           0.341  23.212  -2.454  0.00  0.00     0.172 HD
ATOM     20  H2  LUM d          -1.177  20.446  -5.029  0.00  0.00     0.173 HD
ENDROOT
TORSDOF 0
