REMARK  8 active torsions:
REMARK  status: ('A' for Active; 'I' for Inactive)
REMARK    1  A    between atoms: C10_6  and  C8_7 
REMARK    2  A    between atoms: C8_7  and  C9_8 
REMARK    3  A    between atoms: C8_7  and  N7_10 
REMARK    4  A    between atoms: C9_8  and  O9_9 
REMARK    5  A    between atoms: N7_10  and  C6_11 
REMARK    6  A    between atoms: C6_11  and  C5_12 
REMARK    7  A    between atoms: C3_17  and  O3_18 
REMARK    8  A    between atoms: C4_19  and  O4_20 
ROOT
ATOM      1  N7  GB7 d          30.160  65.427  11.082  0.00  0.00    -0.063 N 
ATOM      2  H10 GB7 d          30.291  64.441  10.922  0.00  0.00     0.278 HD
ATOM      3  H11 GB7 d          30.948  65.792  11.594  0.00  0.00     0.278 HD
ENDROOT
BRANCH   1   4
ATOM      4  C8  GB7 d          28.940  65.619  11.888  0.00  0.00     0.242 C 
BRANCH   4   5
ATOM      5  C10 GB7 d          28.678  67.094  12.173  0.00  0.00    -0.026 A 
ATOM      6  C11 GB7 d          29.692  67.798  12.808  0.00  0.00     0.009 A 
ATOM      7  C12 GB7 d          29.471  69.124  13.124  0.00  0.00     0.001 A 
ATOM      8  C13 GB7 d          28.352  69.856  12.739  0.00  0.00     0.000 A 
ATOM      9  C14 GB7 d          27.365  69.110  12.115  0.00  0.00     0.001 A 
ATOM     10  C15 GB7 d          27.531  67.761  11.803  0.00  0.00     0.009 A 
ENDBRANCH   4   5
BRANCH   4  11
ATOM     11  C9  GB7 d          29.111  65.009  13.283  0.00  0.00     0.202 C 
BRANCH  11  12
ATOM     12  O9  GB7 d          29.302  63.605  13.227  0.00  0.00    -0.398 OA
ATOM     13  H9  GB7 d          29.404  63.265  14.108  0.00  0.00     0.209 HD
ENDBRANCH  11  12
ENDBRANCH   4  11
ENDBRANCH   1   4
BRANCH   1  14
ATOM     14  C6  GB7 d          30.082  66.118   9.769  0.00  0.00     0.261 C 
BRANCH  14  15
ATOM     15  C5  GB7 d          31.178  65.723   8.759  0.00  0.00     0.144 C 
ATOM     16  N1  GB7 d          30.875  66.399   7.481  0.00  0.00    -0.345 N 
ATOM     17  C1  GB7 d          29.547  66.259   6.852  0.00  0.00     0.153 C 
ATOM     18  C2  GB7 d          31.915  66.995   6.903  0.00  0.00     0.251 C 
ATOM     19  O2  GB7 d          31.909  67.585   5.829  0.00  0.00    -0.270 OA
ATOM     20  C3  GB7 d          33.155  66.744   7.753  0.00  0.00     0.240 C 
ATOM     21  C4  GB7 d          32.605  66.179   9.062  0.00  0.00     0.180 C 
BRANCH  20  22
ATOM     22  O3  GB7 d          34.115  66.008   7.012  0.00  0.00    -0.383 OA
ATOM     23  H19 GB7 d          34.883  65.858   7.551  0.00  0.00     0.210 HD
ENDBRANCH  20  22
BRANCH  21  24
ATOM     24  O4  GB7 d          33.432  65.217   9.669  0.00  0.00    -0.390 OA
ATOM     25  H21 GB7 d          33.026  64.914  10.473  0.00  0.00     0.210 HD
ENDBRANCH  21  24
ENDBRANCH  14  15
ENDBRANCH   1  14
TORSDOF 8
