REMARK  6 active torsions:
REMARK  status: ('A' for Active; 'I' for Inactive)
REMARK    1  A    between atoms: C3_2  and  N2_3 
REMARK    2  A    between atoms: C3_2  and  C4_4 
REMARK    3  A    between atoms: C7_7  and  C10_8 
REMARK    4  A    between atoms: C17_16  and  C18_30 
REMARK    5  A    between atoms: N19_17  and  C23_18 
REMARK    6  A    between atoms: C23_18  and  C24_19 
ROOT
ATOM      1  C10 UIB d          -1.337   4.450  21.484  0.00  0.00     0.235 C 
ATOM      2  C22 UIB d          -0.763   4.442  22.915  0.00  0.00     0.122 C 
ATOM      3  C16 UIB d          -0.436   2.935  23.129  0.00  0.00     0.059 C 
ATOM      4  C15 UIB d          -1.412   2.201  22.167  0.00  0.00     0.127 C 
ATOM      5  C13 UIB d          -2.133   1.134  23.016  0.00  0.00     0.046 C 
ATOM      6  C14 UIB d          -0.511   1.540  21.102  0.00  0.00     0.046 C 
ATOM      7  N11 UIB d          -2.227   3.253  21.418  0.00  0.00    -0.057 N 
ATOM      8  C12 UIB d          -2.537   2.852  20.040  0.00  0.00     0.271 C 
ATOM      9  C17 UIB d          -0.749   2.733  24.645  0.00  0.00     0.094 C 
ATOM     10  N19 UIB d          -1.810   3.693  24.906  0.00  0.00    -0.342 N 
ATOM     11  C20 UIB d          -1.849   4.709  23.984  0.00  0.00     0.227 C 
ATOM     12  O21 UIB d          -2.630   5.699  24.018  0.00  0.00    -0.273 OA
ATOM     13  H16 UIB d          -3.094   3.433  21.899  0.00  0.00     0.281 HD
ENDROOT
BRANCH   1  14
ATOM     14  C7  UIB d          -2.009   5.688  20.952  0.00  0.00    -0.027 A 
ATOM     15  C6  UIB d          -1.216   6.656  20.293  0.00  0.00     0.010 A 
ATOM     16  C5  UIB d          -1.768   7.857  19.858  0.00  0.00     0.016 A 
ATOM     17  C4  UIB d          -3.137   8.121  20.083  0.00  0.00     0.007 A 
ATOM     18  C9  UIB d          -3.925   7.176  20.747  0.00  0.00     0.016 A 
ATOM     19  C8  UIB d          -3.358   5.954  21.187  0.00  0.00     0.010 A 
BRANCH  17  20
ATOM     20  C3  UIB d          -3.727   9.350  19.650  0.00  0.00     0.102 C 
ATOM     21  N1  UIB d          -5.017   9.577  19.837  0.00  0.00    -0.385 N 
ATOM     22  H1  UIB d          -5.603   8.867  20.298  0.00  0.00     0.157 HD
ATOM     23  H2  UIB d          -5.435  10.464  19.521  0.00  0.00     0.157 HD
BRANCH  20  24
ATOM     24  N2  UIB d          -3.041  10.356  19.029  0.00  0.00    -0.385 N 
ATOM     25  H3  UIB d          -2.032  10.255  18.847  0.00  0.00     0.157 HD
ATOM     26  H4  UIB d          -3.533  11.215  18.743  0.00  0.00     0.157 HD
ENDBRANCH  20  24
ENDBRANCH  17  20
ENDBRANCH   1  14
BRANCH   9  27
ATOM     27  C18 UIB d           0.476   2.891  25.570  0.00  0.00     0.021 C 
ATOM     28  C41 UIB d           1.245   1.592  25.687  0.00  0.00     0.007 C 
ENDBRANCH   9  27
BRANCH  10  29
ATOM     29  C23 UIB d          -2.782   3.656  26.057  0.00  0.00     0.165 C 
BRANCH  29  30
ATOM     30  C24 UIB d          -2.573   4.796  27.054  0.00  0.00    -0.037 A 
ATOM     31  C32 UIB d          -3.564   5.811  27.226  0.00  0.00     0.012 A 
ATOM     32  C31 UIB d          -3.470   6.805  28.220  0.00  0.00     0.040 A 
ATOM     33  C30 UIB d          -2.333   6.784  29.038  0.00  0.00     0.105 A 
ATOM     34  C26 UIB d          -1.335   5.804  28.906  0.00  0.00     0.105 A 
ATOM     35  O29 UIB d          -2.008   7.634  30.067  0.00  0.00    -0.323 OA
ATOM     36  C25 UIB d          -1.427   4.803  27.924  0.00  0.00     0.048 A 
ATOM     37  O27 UIB d          -0.307   5.978  29.844  0.00  0.00    -0.323 OA
ATOM     38  C28 UIB d          -0.730   7.153  30.583  0.00  0.00     0.352 A 
ENDBRANCH  29  30
ENDBRANCH  10  29
TORSDOF 6
