REMARK  10 active torsions:
REMARK  status: ('A' for Active; 'I' for Inactive)
REMARK    1  A    between atoms: C9_9  and  C10_10 
REMARK       I    between atoms: C10_10  and  N12_12 
REMARK    2  A    between atoms: C14_14  and  N15_15 
REMARK    3  A    between atoms: N15_15  and  C16_16 
REMARK    4  A    between atoms: C16_16  and  C17_17 
REMARK    5  A    between atoms: C17_17  and  C18_18 
REMARK    6  A    between atoms: C18_18  and  N19_19 
REMARK    7  A    between atoms: C25_25  and  C26_26 
REMARK    8  A    between atoms: C27_27  and  C28_28 
REMARK    9  A    between atoms: N36_36  and  C37_37 
REMARK   10  A    between atoms: C37_37  and  C38_38 
ROOT
ATOM      1  C1  WW8 d          15.433  -6.581   4.984  0.00  0.00     0.054 A 
ATOM      2  C2  WW8 d          16.445  -6.318   5.900  0.00  0.00     0.036 A 
ATOM      3 CL3  WW8 d          16.921  -7.533   7.030  0.00  0.00    -0.084 Cl
ATOM      4  C4  WW8 d          17.091  -5.087   5.894  0.00  0.00     0.025 A 
ATOM      5  C5  WW8 d          16.721  -4.087   4.989  0.00  0.00     0.016 A 
ATOM      6  C6  WW8 d          15.713  -4.359   4.073  0.00  0.00     0.006 A 
ATOM      7  C7  WW8 d          15.065  -5.589   4.097  0.00  0.00     0.045 A 
ATOM      8  N8  WW8 d          14.175  -5.605   3.136  0.00  0.00    -0.350 N 
ATOM      9  C9  WW8 d          14.175  -4.442   2.512  0.00  0.00     0.115 A 
ATOM     10  C25 WW8 d          15.111  -3.593   3.088  0.00  0.00     0.038 A 
ATOM     11  H4  WW8 d          13.568  -6.404   2.903  0.00  0.00     0.166 HD
ENDROOT
BRANCH  10  12
ATOM     12  C26 WW8 d          15.583  -2.326   2.704  0.00  0.00     0.079 A 
ATOM     13  C27 WW8 d          15.776  -1.158   3.441  0.00  0.00     0.096 A 
ATOM     14  N34 WW8 d          16.359  -0.248   2.645  0.00  0.00    -0.241 NA
ATOM     15  C35 WW8 d          16.604  -0.821   1.476  0.00  0.00     0.211 A 
ATOM     16  N36 WW8 d          16.162  -2.059   1.520  0.00  0.00    -0.334 N 
BRANCH  13  17
ATOM     17  C28 WW8 d          15.350  -0.822   4.721  0.00  0.00    -0.005 A 
ATOM     18  C29 WW8 d          16.034   0.195   5.376  0.00  0.00     0.014 A 
ATOM     19  C30 WW8 d          15.621   0.621   6.640  0.00  0.00     0.001 A 
ATOM     20  C31 WW8 d          14.521   0.006   7.257  0.00  0.00     0.000 A 
ATOM     21  C32 WW8 d          13.858  -1.016   6.580  0.00  0.00     0.001 A 
ATOM     22  C33 WW8 d          14.274  -1.448   5.327  0.00  0.00     0.014 A 
ENDBRANCH  13  17
BRANCH  16  23
ATOM     23  C37 WW8 d          16.295  -2.970   0.386  0.00  0.00     0.168 C 
BRANCH  23  24
ATOM     24  C38 WW8 d          17.310  -4.081   0.739  0.00  0.00    -0.040 A 
ATOM     25  C39 WW8 d          16.941  -5.409   0.607  0.00  0.00     0.010 A 
ATOM     26  C40 WW8 d          17.831  -6.433   0.918  0.00  0.00     0.024 A 
ATOM     27  C41 WW8 d          19.103  -6.149   1.393  0.00  0.00     0.034 A 
ATOM     28 CL42 WW8 d          20.225  -7.408   1.794  0.00  0.00    -0.084 Cl
ATOM     29  C43 WW8 d          19.472  -4.830   1.546  0.00  0.00     0.024 A 
ATOM     30  C44 WW8 d          18.575  -3.792   1.236  0.00  0.00     0.010 A 
ENDBRANCH  23  24
ENDBRANCH  16  23
ENDBRANCH  10  12
BRANCH   9  31
ATOM     31  C10 WW8 d          13.214  -4.242   1.374  0.00  0.00     0.271 C 
ATOM     32  O11 WW8 d          12.904  -5.248   0.727  0.00  0.00    -0.266 OA
ATOM     33  N12 WW8 d          12.671  -3.085   1.060  0.00  0.00    -0.345 N 
ATOM     34  C13 WW8 d          12.839  -1.829   1.812  0.00  0.00     0.159 C 
ATOM     35  C24 WW8 d          11.716  -2.939  -0.066  0.00  0.00     0.128 C 
ATOM     36  C14 WW8 d          11.569  -1.095   1.422  0.00  0.00     0.207 C 
ATOM     37  C23 WW8 d          11.352  -1.446  -0.060  0.00  0.00     0.055 C 
BRANCH  36  38
ATOM     38  N15 WW8 d          11.645   0.328   1.734  0.00  0.00    -0.069 N 
ATOM     39  C22 WW8 d          10.807   1.215   0.942  0.00  0.00     0.270 C 
ATOM     40  H8  WW8 d          12.515   0.519   1.263  0.00  0.00     0.280 HD
BRANCH  38  41
ATOM     41  C16 WW8 d          12.073   0.738   3.062  0.00  0.00     0.236 C 
BRANCH  41  42
ATOM     42  C17 WW8 d          12.707   2.119   3.144  0.00  0.00     0.055 C 
BRANCH  42  43
ATOM     43  C18 WW8 d          13.053   2.250   4.617  0.00  0.00     0.235 C 
BRANCH  43  44
ATOM     44  N19 WW8 d          13.208   3.612   5.068  0.00  0.00    -0.079 N 
ATOM     45  C20 WW8 d          13.413   4.004   6.433  0.00  0.00     0.269 C 
ATOM     46  C21 WW8 d          14.503   4.016   4.518  0.00  0.00     0.269 C 
ATOM     47  H15 WW8 d          12.438   4.146   4.695  0.00  0.00     0.278 HD
ENDBRANCH  43  44
ENDBRANCH  42  43
ENDBRANCH  41  42
ENDBRANCH  38  41
ENDBRANCH  36  38
ENDBRANCH   9  31
TORSDOF 10
