REMARK  7 active torsions:
REMARK  status: ('A' for Active; 'I' for Inactive)
REMARK    1  A    between atoms: N4_1  and  C3_2 
REMARK    2  A    between atoms: C3_2  and  C5_3 
REMARK    3  A    between atoms: C3_2  and  C2_5 
REMARK       I    between atoms: C5_3  and  N6_12 
REMARK    4  A    between atoms: C2_5  and  C1_6 
REMARK    5  A    between atoms: C13_13  and  C14_14 
REMARK       I    between atoms: C14_14  and  N16_19 
REMARK    6  A    between atoms: N16_19  and  C17_20 
REMARK    7  A    between atoms: C17_20  and  C18_21 
ROOT
ATOM      1  C5  P97 d         -17.534 -13.146 -22.483  0.00  0.00     0.251 C 
ATOM      2  O7  P97 d         -16.592 -12.451 -22.850  0.00  0.00    -0.271 OA
ATOM      3  N6  P97 d         -18.380 -12.703 -21.568  0.00  0.00    -0.337 N 
ATOM      4  C13 P97 d         -18.156 -11.384 -20.976  0.00  0.00     0.179 C 
ATOM      5  C19 P97 d         -19.284 -11.203 -19.964  0.00  0.00     0.037 C 
ATOM      6  C20 P97 d         -20.308 -12.287 -20.284  0.00  0.00     0.022 C 
ATOM      7  C21 P97 d         -19.542 -13.395 -20.996  0.00  0.00     0.127 C 
ENDROOT
BRANCH   1   8
ATOM      8  C3  P97 d         -17.753 -14.520 -23.069  0.00  0.00     0.279 C 
BRANCH   8   9
ATOM      9  N4  P97 d         -16.473 -15.210 -23.085  0.00  0.00    -0.066 N 
ATOM     10  H1  P97 d         -16.593 -16.133 -23.473  0.00  0.00     0.275 HD
ATOM     11  H2  P97 d         -16.120 -15.285 -22.144  0.00  0.00     0.275 HD
ATOM     12  H3  P97 d         -15.819 -14.691 -23.649  0.00  0.00     0.275 HD
ENDBRANCH   8   9
BRANCH   8  13
ATOM     13  C2  P97 d         -18.293 -14.479 -24.501  0.00  0.00     0.081 C 
BRANCH  13  14
ATOM     14  C1  P97 d         -19.710 -13.946 -24.565  0.00  0.00    -0.056 A 
ATOM     15  C8  P97 d         -20.767 -14.606 -23.941  0.00  0.00     0.007 A 
ATOM     16  C9  P97 d         -22.059 -14.089 -24.032  0.00  0.00     0.001 A 
ATOM     17  C10 P97 d         -22.334 -12.926 -24.740  0.00  0.00     0.000 A 
ATOM     18  C11 P97 d         -21.277 -12.268 -25.365  0.00  0.00     0.001 A 
ATOM     19  C12 P97 d         -19.989 -12.793 -25.282  0.00  0.00     0.007 A 
ENDBRANCH  13  14
ENDBRANCH   8  13
ENDBRANCH   1   8
BRANCH   4  20
ATOM     20  C14 P97 d         -16.805 -11.350 -20.304  0.00  0.00     0.240 C 
ATOM     21  O15 P97 d         -16.407 -12.290 -19.614  0.00  0.00    -0.271 OA
ATOM     22  N16 P97 d         -16.044 -10.274 -20.532  0.00  0.00    -0.355 N 
ATOM     23  H19 P97 d         -16.402  -9.552 -21.124  0.00  0.00     0.162 HD
BRANCH  22  24
ATOM     24  C17 P97 d         -14.708 -10.108 -19.952  0.00  0.00     0.164 C 
BRANCH  24  25
ATOM     25  C18 P97 d         -13.668 -10.901 -20.710  0.00  0.00    -0.001 A 
ATOM     26  C22 P97 d         -13.347 -12.202 -20.332  0.00  0.00     0.126 A 
ATOM     27  N23 P97 d         -12.423 -12.896 -21.010  0.00  0.00    -0.272 NA
ATOM     28  C24 P97 d         -11.780 -12.377 -22.065  0.00  0.00     0.118 A 
ATOM     29  C25 P97 d         -12.056 -11.084 -22.484  0.00  0.00     0.044 A 
ATOM     30  C26 P97 d         -13.008 -10.361 -21.782  0.00  0.00     0.044 A 
ATOM     31 CL27 P97 d         -13.397  -8.708 -22.306  0.00  0.00    -0.084 Cl
ENDBRANCH  24  25
ENDBRANCH  22  24
ENDBRANCH   4  20
TORSDOF 7
