REMARK  26 active torsions:
REMARK  status: ('A' for Active; 'I' for Inactive)
REMARK    1  A    between atoms: C6_3  and  N6_64 
REMARK    2  A    between atoms: CBB_19  and  CCC_18 
REMARK    3  A    between atoms: CAY_20  and  CBB_19 
REMARK    4  A    between atoms: CBS_21  and  CAY_20 
REMARK    5  A    between atoms: SBQ_23  and  CBS_21 
REMARK    6  A    between atoms: CAW_24  and  SBQ_23 
REMARK    7  A    between atoms: CAU_25  and  CAW_24 
REMARK    8  A    between atoms: NBJ_26  and  CAU_25 
REMARK       I    between atoms: CBR_27  and  NBJ_26 
REMARK    9  A    between atoms: CAX_29  and  CBR_27 
REMARK   10  A    between atoms: CAV_30  and  CAX_29 
REMARK   11  A    between atoms: NBK_31  and  CAV_30 
REMARK       I    between atoms: CBV_32  and  NBK_31 
REMARK   12  A    between atoms: CBZ_34  and  CBV_32 
REMARK   13  A    between atoms: CBZ_34  and  OAM_35 
REMARK   14  A    between atoms: CCH_36  and  CBZ_34 
REMARK   15  A    between atoms: CBF_39  and  CCH_36 
REMARK   16  A    between atoms: OBM_40  and  CBF_39 
REMARK   17  A    between atoms: PCL_41  and  OBM_40 
REMARK   18  A    between atoms: OBP_44  and  PCL_41 
REMARK   19  A    between atoms: PCK_45  and  OBP_44 
REMARK   20  A    between atoms: O5'_48  and  PCK_45 
REMARK   21  A    between atoms: C5'_49  and  O5'_48 
REMARK   22  A    between atoms: C4'_50  and  C5'_49 
REMARK   23  A    between atoms: C3'_52  and  O3'_53 
REMARK   24  A    between atoms: O3'_53  and  PCJ_54 
REMARK   25  A    between atoms: C2'_58  and  O2'_59 
REMARK   26  A    between atoms: C1'_60  and  N9_61 
ROOT
ATOM      1  CCH UCA d          -5.391  45.656  16.713  0.00  0.00     0.009 C 
ATOM      2  CAA UCA d          -4.227  45.059  17.464  0.00  0.00     0.020 C 
ATOM      3  CAB UCA d          -5.397  47.149  16.962  0.00  0.00     0.020 C 
ENDROOT
BRANCH   1   4
ATOM      4  CBZ UCA d          -6.722  45.074  17.230  0.00  0.00     0.219 C 
BRANCH   4   5
ATOM      5  CBV UCA d          -8.039  45.488  16.624  0.00  0.00     0.247 C 
ATOM      6  NBK UCA d          -8.220  44.623  15.646  0.00  0.00    -0.358 N 
ATOM      7  H   UCA d          -7.548  43.908  15.454  0.00  0.00     0.162 HD
ATOM      8  OAI UCA d          -8.626  46.506  16.923  0.00  0.00    -0.271 OA
BRANCH   6   9
ATOM      9  CAV UCA d          -9.492  44.754  14.820  0.00  0.00     0.132 C 
BRANCH   9  10
ATOM     10  CAX UCA d         -10.322  43.669  15.305  0.00  0.00     0.122 C 
BRANCH  10  11
ATOM     11  CBR UCA d         -11.066  44.064  16.495  0.00  0.00     0.219 C 
ATOM     12  NBJ UCA d         -11.647  43.083  17.219  0.00  0.00    -0.360 N 
ATOM     13  H   UCA d         -11.572  42.146  16.878  0.00  0.00     0.162 HD
ATOM     14  OAE UCA d         -11.261  45.210  16.866  0.00  0.00    -0.274 OA
BRANCH  12  15
ATOM     15  CAU UCA d         -12.353  43.291  18.425  0.00  0.00     0.133 C 
BRANCH  15  16
ATOM     16  CAW UCA d         -11.889  42.472  19.551  0.00  0.00     0.102 C 
BRANCH  16  17
ATOM     17  SBQ UCA d         -10.173  42.216  19.157  0.00  0.00    -0.091 SA
BRANCH  17  18
ATOM     18  CBS UCA d          -9.452  43.102  20.466  0.00  0.00     0.186 C 
ATOM     19  OAF UCA d          -9.980  44.128  20.821  0.00  0.00    -0.286 OA
BRANCH  18  20
ATOM     20  CAY UCA d          -8.176  42.553  21.044  0.00  0.00     0.091 C 
BRANCH  20  21
ATOM     21  CBB UCA d          -7.550  43.703  21.807  0.00  0.00     0.021 C 
BRANCH  21  22
ATOM     22  CCC UCA d          -6.615  42.683  22.484  0.00  0.00     0.061 C 
ATOM     23  CBT UCA d          -6.913  43.339  23.881  0.00  0.00     0.131 C 
ATOM     24  OAG UCA d          -7.968  44.026  24.029  0.00  0.00    -0.298 OA
ATOM     25  CBA UCA d          -5.773  43.681  24.914  0.00  0.00     0.080 C 
ATOM     26  CBD UCA d          -4.411  43.964  24.316  0.00  0.00     0.025 C 
ATOM     27  CCI UCA d          -4.117  43.026  23.161  0.00  0.00     0.021 C 
ATOM     28  CAC UCA d          -3.842  41.545  23.533  0.00  0.00     0.024 C 
ATOM     29  CBU UCA d          -2.889  43.245  22.252  0.00  0.00     0.135 C 
ATOM     30  CCD UCA d          -5.183  43.165  22.092  0.00  0.00     0.013 C 
ATOM     31  OAH UCA d          -1.771  43.702  22.493  0.00  0.00    -0.297 OA
ATOM     32  CAZ UCA d          -3.233  43.138  20.789  0.00  0.00     0.079 C 
ATOM     33  CBC UCA d          -4.628  42.548  20.806  0.00  0.00     0.014 C 
ENDBRANCH  21  22
ENDBRANCH  20  21
ENDBRANCH  18  20
ENDBRANCH  17  18
ENDBRANCH  16  17
ENDBRANCH  15  16
ENDBRANCH  12  15
ENDBRANCH  10  11
ENDBRANCH   9  10
ENDBRANCH   6   9
ENDBRANCH   4   5
BRANCH   4  34
ATOM     34  OAM UCA d          -6.753  45.357  18.671  0.00  0.00    -0.385 OA
ATOM     35  H   UCA d          -6.892  46.287  18.807  0.00  0.00     0.210 HD
ENDBRANCH   4  34
ENDBRANCH   1   4
BRANCH   1  36
ATOM     36  CBF UCA d          -5.271  45.343  15.235  0.00  0.00     0.193 C 
BRANCH  36  37
ATOM     37  OBM UCA d          -5.107  43.925  14.984  0.00  0.00    -0.289 OA
BRANCH  37  38
ATOM     38  PCL UCA d          -4.446  43.460  13.604  0.00  0.00     0.417 P 
ATOM     39  OAR UCA d          -3.092  44.067  13.347  0.00  0.00    -0.624 OA
ATOM     40  OAL UCA d          -4.482  41.928  13.593  0.00  0.00    -0.624 OA
BRANCH  38  41
ATOM     41  OBP UCA d          -5.374  43.911  12.383  0.00  0.00    -0.180 OA
BRANCH  41  42
ATOM     42  PCK UCA d          -6.804  43.240  11.987  0.00  0.00     0.417 P 
ATOM     43  OAQ UCA d          -7.630  44.366  11.393  0.00  0.00    -0.624 OA
ATOM     44  OAK UCA d          -7.462  42.623  13.234  0.00  0.00    -0.624 OA
BRANCH  42  45
ATOM     45  O5' UCA d          -6.533  42.009  10.914  0.00  0.00    -0.287 OA
BRANCH  45  46
ATOM     46  C5' UCA d          -5.989  42.318   9.646  0.00  0.00     0.216 C 
BRANCH  46  47
ATOM     47  C4' UCA d          -5.635  40.975   9.046  0.00  0.00     0.180 C 
ATOM     48  O4' UCA d          -6.906  40.388   8.671  0.00  0.00    -0.353 OA
ATOM     49  C1' UCA d          -6.604  39.666   7.488  0.00  0.00     0.262 C 
ATOM     50  C2' UCA d          -5.683  40.567   6.733  0.00  0.00     0.199 C 
ATOM     51  C3' UCA d          -4.721  41.024   7.800  0.00  0.00     0.199 C 
BRANCH  49  52
ATOM     52  N9  UCA d          -7.716  39.762   6.512  0.00  0.00    -0.294 N 
ATOM     53  C4  UCA d          -8.065  38.804   5.609  0.00  0.00     0.167 A 
ATOM     54  C5  UCA d          -9.150  39.276   4.856  0.00  0.00     0.149 A 
ATOM     55  N3  UCA d          -7.556  37.563   5.358  0.00  0.00    -0.222 NA
ATOM     56  C6  UCA d          -9.659  38.448   3.829  0.00  0.00     0.155 A 
ATOM     57  N7  UCA d          -9.438  40.547   5.339  0.00  0.00    -0.236 NA
ATOM     58  N1  UCA d          -9.102  37.256   3.638  0.00  0.00    -0.222 NA
ATOM     59  C2  UCA d          -8.074  36.839   4.399  0.00  0.00     0.237 A 
ATOM     60  C8  UCA d          -8.561  40.803   6.334  0.00  0.00     0.214 A 
BRANCH  56  61
ATOM     61  N6  UCA d         -10.674  38.864   3.059  0.00  0.00    -0.382 N 
ATOM     62  H   UCA d         -11.038  38.254   2.313  0.00  0.00     0.157 HD
ATOM     63  H   UCA d         -11.090  39.794   3.213  0.00  0.00     0.157 HD
ENDBRANCH  56  61
ENDBRANCH  49  52
BRANCH  50  64
ATOM     64  O2' UCA d          -4.775  39.843   5.816  0.00  0.00    -0.388 OA
ATOM     65  H   UCA d          -4.361  39.127   6.283  0.00  0.00     0.210 HD
ENDBRANCH  50  64
BRANCH  51  66
ATOM     66  O3' UCA d          -3.331  40.296   7.917  0.00  0.00    -0.272 OA
BRANCH  66  67
ATOM     67  PCJ UCA d          -1.732  40.386   8.321  0.00  0.00     0.422 P 
ATOM     68  OAO UCA d          -1.086  39.275   7.515  0.00  0.00    -0.617 OA
ATOM     69  OAP UCA d          -1.550  40.138   9.805  0.00  0.00    -0.617 OA
ATOM     70  OAJ UCA d          -1.143  41.731   7.943  0.00  0.00    -0.617 OA
ENDBRANCH  66  67
ENDBRANCH  51  66
ENDBRANCH  46  47
ENDBRANCH  45  46
ENDBRANCH  42  45
ENDBRANCH  41  42
ENDBRANCH  38  41
ENDBRANCH  37  38
ENDBRANCH  36  37
ENDBRANCH   1  36
TORSDOF 26
