REMARK  2 active torsions:
REMARK  status: ('A' for Active; 'I' for Inactive)
REMARK    1  A    between atoms: C_2  and  CA_4 
REMARK    2  A    between atoms: CB_10  and  OG1_11 
ROOT
ATOM      1  CA  MOL d          17.045  22.311  32.350  0.00  0.00     0.240 C 
ATOM      2  N   MOL d          18.196  22.015  31.468  0.00  0.00    -0.259 NA
ATOM      3  CAI MOL d          19.285  21.247  31.920  0.00  0.00     0.091 C 
ATOM      4  CAA MOL d          20.445  20.961  30.983  0.00  0.00     0.090 C 
ATOM      5  NAG MOL d          19.338  20.747  33.229  0.00  0.00    -0.376 N 
ATOM      6  CG2 MOL d          18.235  20.994  34.175  0.00  0.00     0.155 C 
ATOM      7  CB  MOL d          17.471  22.280  33.838  0.00  0.00     0.171 C 
ATOM      8  H5  MOL d          20.157  20.201  33.533  0.00  0.00     0.160 HD
ENDROOT
BRANCH   1   9
ATOM      9  C   MOL d          16.376  23.653  31.940  0.00  0.00     0.201 C 
ATOM     10  O   MOL d          15.655  24.220  32.783  0.00  0.00    -0.646 OA
ATOM     11  OXT MOL d          16.588  24.077  30.781  0.00  0.00    -0.646 OA
ENDBRANCH   1   9
BRANCH   7  12
ATOM     12  OG1 MOL d          16.318  22.272  34.669  0.00  0.00    -0.391 OA
ATOM     13  H9  MOL d          15.803  23.052  34.501  0.00  0.00     0.210 HD
ENDBRANCH   7  12
TORSDOF 2
