REMARK  8 active torsions:
REMARK  status: ('A' for Active; 'I' for Inactive)
REMARK    1  A    between atoms: N1_1  and  C1_2 
REMARK    2  A    between atoms: C4_5  and  C7_8 
REMARK    3  A    between atoms: C7_8  and  N7_9 
REMARK       I    between atoms: N7_9  and  C8_10 
REMARK    4  A    between atoms: C8_10  and  C9_12 
REMARK       I    between atoms: N9_16  and  C13_17 
REMARK    5  A    between atoms: C13_17  and  C15_21 
REMARK    6  A    between atoms: C15_21  and  N13_20 
REMARK    7  A    between atoms: C15_21  and  C16_22 
REMARK    8  A    between atoms: C16_22  and  C17_23 
ROOT
ATOM      1  C9  MIN d          18.515 -13.097  21.569  0.00  0.00     0.179 C 
ATOM      2  C10 MIN d          19.580 -13.085  20.505  0.00  0.00     0.037 C 
ATOM      3  C11 MIN d          20.555 -14.133  20.945  0.00  0.00     0.022 C 
ATOM      4  C12 MIN d          19.701 -15.176  21.626  0.00  0.00     0.127 C 
ATOM      5  N9  MIN d          18.662 -14.374  22.272  0.00  0.00    -0.337 N 
ATOM      6  C13 MIN d          17.822 -14.810  23.215  0.00  0.00     0.251 C 
ATOM      7  O13 MIN d          16.948 -14.071  23.692  0.00  0.00    -0.271 OA
ENDROOT
BRANCH   1   8
ATOM      8  C8  MIN d          17.117 -13.017  20.944  0.00  0.00     0.240 C 
ATOM      9  N7  MIN d          16.325 -11.953  21.171  0.00  0.00    -0.359 N 
ATOM     10  H16 MIN d          16.658 -11.229  21.776  0.00  0.00     0.162 HD
ATOM     11  O8  MIN d          16.729 -13.967  20.261  0.00  0.00    -0.271 OA
BRANCH   9  12
ATOM     12  C7  MIN d          14.998 -11.809  20.571  0.00  0.00     0.127 C 
BRANCH  12  13
ATOM     13  C4  MIN d          13.920 -11.838  21.590  0.00  0.00     0.003 C 
ATOM     14  C3  MIN d          13.745 -13.251  22.146  0.00  0.00     0.008 C 
ATOM     15  C2  MIN d          12.596 -13.286  23.124  0.00  0.00     0.033 C 
ATOM     16  C1  MIN d          11.322 -12.791  22.504  0.00  0.00     0.183 C 
ATOM     17  C6  MIN d          11.548 -11.355  21.974  0.00  0.00     0.033 C 
ATOM     18  C5  MIN d          12.659 -11.300  20.942  0.00  0.00     0.008 C 
BRANCH  16  19
ATOM     19  N1  MIN d          10.316 -12.804  23.525  0.00  0.00    -0.075 N 
ATOM     20  H1  MIN d           9.444 -12.476  23.141  0.00  0.00     0.274 HD
ATOM     21  H2  MIN d          10.598 -12.201  24.282  0.00  0.00     0.274 HD
ATOM     22  H3  MIN d          10.199 -13.744  23.870  0.00  0.00     0.274 HD
ENDBRANCH  16  19
ENDBRANCH  12  13
ENDBRANCH   9  12
ENDBRANCH   1   8
BRANCH   6  23
ATOM     23  C15 MIN d          17.932 -16.226  23.776  0.00  0.00     0.280 C 
BRANCH  23  24
ATOM     24  C16 MIN d          18.532 -16.197  25.217  0.00  0.00     0.081 C 
BRANCH  24  25
ATOM     25  C17 MIN d          19.888 -15.541  25.381  0.00  0.00    -0.056 A 
ATOM     26  C22 MIN d          19.968 -14.331  26.035  0.00  0.00     0.007 A 
ATOM     27  C21 MIN d          21.184 -13.716  26.134  0.00  0.00     0.001 A 
ATOM     28  C20 MIN d          22.309 -14.314  25.604  0.00  0.00     0.000 A 
ATOM     29  C19 MIN d          22.221 -15.529  24.960  0.00  0.00     0.001 A 
ATOM     30  C18 MIN d          21.002 -16.155  24.859  0.00  0.00     0.007 A 
ENDBRANCH  24  25
ENDBRANCH  23  24
BRANCH  23  31
ATOM     31  N13 MIN d          16.618 -16.873  23.832  0.00  0.00    -0.066 N 
ATOM     32  C14 MIN d          15.819 -17.023  22.601  0.00  0.00     0.267 C 
ATOM     33  H27 MIN d          16.058 -16.340  24.480  0.00  0.00     0.277 HD
ATOM     34  H28 MIN d          16.765 -17.800  24.199  0.00  0.00     0.277 HD
ENDBRANCH  23  31
ENDBRANCH   6  23
TORSDOF 8
