REMARK  27 active torsions:
REMARK  status: ('A' for Active; 'I' for Inactive)
REMARK    1  A    between atoms: N_1  and  CA_2 
REMARK    2  A    between atoms: CA_2  and  C_3 
REMARK       I    between atoms: C_3  and  N_6 
REMARK    3  A    between atoms: N_6  and  CA_7 
REMARK    4  A    between atoms: CA_7  and  C_8 
REMARK       I    between atoms: C_8  and  N_11 
REMARK    5  A    between atoms: N_11  and  CA_12 
REMARK    6  A    between atoms: CA_12  and  C_13 
REMARK       I    between atoms: C_13  and  N_15 
REMARK    7  A    between atoms: N_15  and  CA_16 
REMARK    8  A    between atoms: CA_16  and  C_17 
REMARK    9  A    between atoms: CA_16  and  CB_19 
REMARK       I    between atoms: C_17  and  N_23 
REMARK   10  A    between atoms: CB_19  and  CG1_20 
REMARK   11  A    between atoms: N_23  and  CA_24 
REMARK   12  A    between atoms: CA_24  and  C_25 
REMARK       I    between atoms: C_25  and  N_27 
REMARK   13  A    between atoms: N_27  and  CA_28 
REMARK   14  A    between atoms: CA_28  and  C_29 
REMARK   15  A    between atoms: CA_28  and  CB_31 
REMARK       I    between atoms: C_29  and  N_35 
REMARK   16  A    between atoms: CB_31  and  CG1_32 
REMARK   17  A    between atoms: N_35  and  CA_36 
REMARK   18  A    between atoms: CA_36  and  C_37 
REMARK   19  A    between atoms: CA_36  and  CB_39 
REMARK       I    between atoms: C_37  and  N_43 
REMARK   20  A    between atoms: CB_39  and  CG_40 
REMARK   21  A    between atoms: N_43  and  CA_44 
REMARK   22  A    between atoms: CA_44  and  C_45 
REMARK   23  A    between atoms: CA_44  and  CB_47 
REMARK       I    between atoms: C_45  and  N_50 
REMARK   24  A    between atoms: CB_47  and  OG1_48 
REMARK   25  A    between atoms: N_50  and  CA_51 
REMARK   26  A    between atoms: CA_51  and  C_52 
REMARK   27  A    between atoms: CA_51  and  CB_54 
ROOT
ATOM      1  C   ALA d          33.569  -5.794  37.898  0.00  0.00     0.236 C 
ATOM      2  O   ALA d          33.871  -6.358  36.832  0.00  0.00    -0.272 OA
ATOM      3  N   ALA d          33.068  -4.564  37.957  0.00  0.00    -0.346 N 
ATOM      4  H30 ALA d          32.910  -4.150  38.854  0.00  0.00     0.163 HD
ENDROOT
BRANCH   3   5
ATOM      5  CA  ALA d          32.742  -3.801  36.768  0.00  0.00     0.180 C 
BRANCH   5   6
ATOM      6  C   ALA d          33.974  -2.960  36.409  0.00  0.00     0.241 C 
ATOM      7  O   ALA d          34.345  -2.022  37.130  0.00  0.00    -0.271 OA
ATOM      8  N   ALA d          34.604  -3.316  35.296  0.00  0.00    -0.346 N 
ATOM      9  H41 ALA d          34.208  -4.032  34.721  0.00  0.00     0.163 HD
BRANCH   8  10
ATOM     10  CA  ALA d          35.868  -2.686  34.886  0.00  0.00     0.177 C 
BRANCH  10  11
ATOM     11  C   ALA d          35.648  -1.709  33.762  0.00  0.00     0.241 C 
ATOM     12  O   ALA d          34.722  -1.842  32.973  0.00  0.00    -0.271 OA
ATOM     13  N   ALA d          36.560  -0.758  33.663  0.00  0.00    -0.344 N 
ATOM     14  H52 ALA d          37.266  -0.682  34.368  0.00  0.00     0.163 HD
BRANCH  13  15
ATOM     15  CA  ALA d          36.561   0.183  32.550  0.00  0.00     0.205 C 
BRANCH  15  16
ATOM     16  C   ALA d          36.833  -0.524  31.212  0.00  0.00     0.243 C 
ATOM     17  O   ALA d          37.588  -1.494  31.150  0.00  0.00    -0.271 OA
ATOM     18  N   ALA d          36.225  -0.007  30.155  0.00  0.00    -0.344 N 
ATOM     19  H59 ALA d          35.579   0.744  30.292  0.00  0.00     0.163 HD
BRANCH  18  20
ATOM     20  CA  ALA d          36.460  -0.488  28.806  0.00  0.00     0.189 C 
BRANCH  20  21
ATOM     21  C   ALA d          37.848  -0.156  28.221  0.00  0.00     0.197 C 
ATOM     22  O   ALA d          38.638   0.656  28.798  0.00  0.00    -0.646 OA
ATOM     23  OXT ALA d          38.238  -0.718  27.153  0.00  0.00    -0.646 OA
ENDBRANCH  20  21
BRANCH  20  24
ATOM     24  CB  ALA d          35.372  -0.013  27.839  0.00  0.00     0.010 C 
ATOM     25  CG1 ALA d          33.981  -0.426  28.322  0.00  0.00     0.012 C 
ATOM     26  CG2 ALA d          35.498   1.518  27.584  0.00  0.00     0.012 C 
ENDBRANCH  20  24
ENDBRANCH  18  20
ENDBRANCH  15  16
BRANCH  15  27
ATOM     27  CB  ALA d          37.604   1.334  32.791  0.00  0.00     0.146 C 
ATOM     28  CG2 ALA d          37.181   2.231  33.983  0.00  0.00     0.042 C 
BRANCH  27  29
ATOM     29  OG1 ALA d          38.885   0.768  33.065  0.00  0.00    -0.393 OA
ATOM     30  H55 ALA d          39.514   1.465  33.210  0.00  0.00     0.210 HD
ENDBRANCH  27  29
ENDBRANCH  15  27
ENDBRANCH  13  15
ENDBRANCH  10  11
BRANCH  10  31
ATOM     31  CB  ALA d          36.890  -3.740  34.424  0.00  0.00     0.038 C 
BRANCH  31  32
ATOM     32  CG  ALA d          38.004  -4.097  35.395  0.00  0.00    -0.020 C 
ATOM     33  CD1 ALA d          37.438  -4.838  36.597  0.00  0.00     0.009 C 
ATOM     34  CD2 ALA d          39.100  -4.894  34.697  0.00  0.00     0.009 C 
ENDBRANCH  31  32
ENDBRANCH  10  31
ENDBRANCH   8  10
ENDBRANCH   5   6
BRANCH   5  35
ATOM     35  CB  ALA d          31.509  -2.895  37.043  0.00  0.00     0.013 C 
ATOM     36  CG2 ALA d          31.258  -1.869  35.913  0.00  0.00     0.012 C 
BRANCH  35  37
ATOM     37  CG1 ALA d          30.288  -3.747  37.455  0.00  0.00     0.002 C 
ATOM     38  CD1 ALA d          29.953  -4.877  36.535  0.00  0.00     0.005 C 
ENDBRANCH  35  37
ENDBRANCH   5  35
ENDBRANCH   3   5
BRANCH   1  39
ATOM     39  CA  ALA d          33.762  -6.482  39.235  0.00  0.00     0.225 C 
BRANCH  39  40
ATOM     40  N   ALA d          32.920  -5.926  40.308  0.00  0.00    -0.351 N 
ATOM     41  C   ALA d          31.679  -6.358  40.415  0.00  0.00     0.241 C 
ATOM     42  O   ALA d          31.236  -7.224  39.653  0.00  0.00    -0.271 OA
ATOM     43  H27 ALA d          33.280  -5.239  40.939  0.00  0.00     0.163 HD
BRANCH  41  44
ATOM     44  CA  ALA d          30.788  -5.720  41.491  0.00  0.00     0.180 C 
BRANCH  44  45
ATOM     45  N   ALA d          29.486  -6.300  41.316  0.00  0.00    -0.346 N 
ATOM     46  C   ALA d          28.397  -5.573  41.125  0.00  0.00     0.236 C 
ATOM     47  O   ALA d          28.342  -4.368  41.358  0.00  0.00    -0.272 OA
ATOM     48  H16 ALA d          29.399  -7.296  41.340  0.00  0.00     0.163 HD
BRANCH  46  49
ATOM     49  CA  ALA d          27.195  -6.373  40.668  0.00  0.00     0.225 C 
BRANCH  49  50
ATOM     50  N   ALA d          25.892  -5.709  40.784  0.00  0.00    -0.351 N 
ATOM     51  C   ALA d          25.171  -5.758  41.898  0.00  0.00     0.240 C 
ATOM     52  O   ALA d          25.575  -6.315  42.959  0.00  0.00    -0.271 OA
ATOM     53  H13 ALA d          25.535  -5.203  39.999  0.00  0.00     0.163 HD
BRANCH  51  54
ATOM     54  CA  ALA d          23.814  -5.040  41.821  0.00  0.00     0.172 C 
ATOM     55  CB  ALA d          24.010  -3.514  41.580  0.00  0.00     0.042 C 
BRANCH  54  56
ATOM     56  N   ALA d          23.015  -5.248  43.030  0.00  0.00    -0.346 N 
ATOM     57  C   ALA d          22.331  -6.377  43.216  0.00  0.00     0.248 C 
ATOM     58  O   ALA d          22.434  -7.361  42.456  0.00  0.00    -0.271 OA
ATOM     59  H8  ALA d          22.982  -4.532  43.727  0.00  0.00     0.163 HD
BRANCH  57  60
ATOM     60  CA  ALA d          21.418  -6.420  44.433  0.00  0.00     0.270 C 
ATOM     61  CB  ALA d          22.154  -6.949  45.614  0.00  0.00     0.050 C 
BRANCH  60  62
ATOM     62  N   ALA d          20.216  -7.256  44.139  0.00  0.00    -0.067 N 
ATOM     63  H1  ALA d          19.617  -7.279  44.949  0.00  0.00     0.275 HD
ATOM     64  H2  ALA d          20.507  -8.193  43.909  0.00  0.00     0.275 HD
ATOM     65  H3  ALA d          19.713  -6.859  43.361  0.00  0.00     0.275 HD
ENDBRANCH  60  62
ENDBRANCH  57  60
ENDBRANCH  54  56
ENDBRANCH  51  54
ENDBRANCH  49  50
ENDBRANCH  46  49
ENDBRANCH  44  45
BRANCH  44  66
ATOM     66  CB  ALA d          31.353  -5.986  42.905  0.00  0.00     0.013 C 
ATOM     67  CG2 ALA d          30.487  -5.326  43.976  0.00  0.00     0.012 C 
BRANCH  66  68
ATOM     68  CG1 ALA d          31.541  -7.488  43.143  0.00  0.00     0.002 C 
ATOM     69  CD1 ALA d          32.480  -7.824  44.307  0.00  0.00     0.005 C 
ENDBRANCH  66  68
ENDBRANCH  44  66
ENDBRANCH  41  44
ENDBRANCH  39  40
ENDBRANCH   1  39
TORSDOF 27
