REMARK  5 active torsions:
REMARK  status: ('A' for Active; 'I' for Inactive)
REMARK    1  A    between atoms: C2_2  and  O2_3 
REMARK    2  A    between atoms: C3_4  and  O3_5 
REMARK    3  A    between atoms: C4_6  and  O4_7 
REMARK    4  A    between atoms: C5_8  and  C6_10 
REMARK    5  A    between atoms: C6_10  and  O6_11 
ROOT
ATOM      1  C1  DGJ d          76.888  88.637  18.194  0.00  0.00     0.267 C 
ATOM      2  C2  DGJ d          76.342  89.133  19.523  0.00  0.00     0.175 C 
ATOM      3  C3  DGJ d          77.477  89.606  20.417  0.00  0.00     0.179 C 
ATOM      4  C4  DGJ d          78.717  88.749  20.214  0.00  0.00     0.182 C 
ATOM      5  C5  DGJ d          79.240  88.882  18.784  0.00  0.00     0.240 C 
ATOM      6  N5  DGJ d          78.182  89.218  17.821  0.00  0.00    -0.064 N 
ATOM      7  H10 DGJ d          78.088  90.221  17.779  0.00  0.00     0.277 HD
ATOM      8  H11 DGJ d          78.446  88.867  16.914  0.00  0.00     0.277 HD
ENDROOT
BRANCH   5   9
ATOM      9  C6  DGJ d          80.019  87.667  18.313  0.00  0.00     0.199 C 
BRANCH   9  10
ATOM     10  O6  DGJ d          80.699  87.963  17.101  0.00  0.00    -0.399 OA
ATOM     11  H14 DGJ d          81.301  88.684  17.245  0.00  0.00     0.209 HD
ENDBRANCH   9  10
ENDBRANCH   5   9
BRANCH   4  12
ATOM     12  O4  DGJ d          78.430  87.389  20.522  0.00  0.00    -0.391 OA
ATOM     13  H8  DGJ d          78.150  87.323  21.427  0.00  0.00     0.210 HD
ENDBRANCH   4  12
BRANCH   3  14
ATOM     14  O3  DGJ d          77.076  89.582  21.782  0.00  0.00    -0.390 OA
ATOM     15  H6  DGJ d          77.795  89.880  22.327  0.00  0.00     0.210 HD
ENDBRANCH   3  14
BRANCH   2  16
ATOM     16  O2  DGJ d          75.412  90.194  19.301  0.00  0.00    -0.391 OA
ATOM     17  H4  DGJ d          75.850  90.909  18.855  0.00  0.00     0.210 HD
ENDBRANCH   2  16
TORSDOF 5
