REMARK  4 active torsions:
REMARK  status: ('A' for Active; 'I' for Inactive)
REMARK    1  A    between atoms: CA_5  and  C_11 
REMARK    2  A    between atoms: CB_6  and  CB1_7 
REMARK    3  A    between atoms: CB1_7  and  CG1_9 
REMARK    4  A    between atoms: CG_8  and  CG2_10 
ROOT
ATOM      1  N   KAI d           2.722  23.745  13.790  0.00  0.00    -0.060 N 
ATOM      2  CD  KAI d           2.579  22.481  14.579  0.00  0.00     0.242 C 
ATOM      3  CA  KAI d           3.085  24.821  14.801  0.00  0.00     0.291 C 
ATOM      4  CB  KAI d           2.410  24.250  16.094  0.00  0.00     0.046 C 
ATOM      5  CG  KAI d           2.859  22.798  16.022  0.00  0.00     0.046 C 
ATOM      6  H1  KAI d           1.854  23.973  13.331  0.00  0.00     0.278 HD
ATOM      7  H2  KAI d           3.452  23.649  13.101  0.00  0.00     0.278 HD
ENDROOT
BRANCH   4   8
ATOM      8  CB1 KAI d           0.884  24.442  16.260  0.00  0.00     0.121 C 
BRANCH   8   9
ATOM      9  CG1 KAI d           0.313  25.827  16.550  0.00  0.00     0.172 C 
ATOM     10  OD1 KAI d          -0.904  26.059  16.582  0.00  0.00    -0.648 OA
ATOM     11  OD2 KAI d           1.224  26.664  17.159  0.00  0.00    -0.648 OA
ENDBRANCH   8   9
ENDBRANCH   4   8
BRANCH   3  12
ATOM     12  C   KAI d           4.599  25.051  14.896  0.00  0.00     0.205 C 
ATOM     13  O   KAI d           5.338  24.694  14.013  0.00  0.00    -0.646 OA
ATOM     14  OXT KAI d           4.980  25.943  15.869  0.00  0.00    -0.646 OA
ENDBRANCH   3  12
BRANCH   5  15
ATOM     15  CG2 KAI d           2.164  22.040  17.096  0.00  0.00    -0.087 C 
ATOM     16  CD1 KAI d           1.377  20.979  16.782  0.00  0.00     0.014 C 
ATOM     17  CD2 KAI d           2.379  22.343  18.529  0.00  0.00     0.043 C 
ENDBRANCH   5  15
TORSDOF 4
