REMARK  2 active torsions:
REMARK  status: ('A' for Active; 'I' for Inactive)
REMARK    1  A    between atoms: C1P_6  and  S1_1 
REMARK    2  A    between atoms: P_2  and  C1P_6 
ROOT
ATOM      1  P   MMQ d          74.805  37.022  45.371  0.00  0.00     0.268 P 
ATOM      2  O1P MMQ d          75.965  37.318  46.339  0.00  0.00    -0.639 OA
ATOM      3  O2P MMQ d          74.814  35.537  44.998  0.00  0.00    -0.639 OA
ATOM      4  O3P MMQ d          73.546  37.423  45.982  0.00  0.00    -0.639 OA
ENDROOT
BRANCH   1   5
ATOM      5  C1P MMQ d          75.111  37.952  43.836  0.00  0.00     0.216 C 
BRANCH   5   6
ATOM      6  S1  MMQ d          73.667  39.011  43.509  0.00  0.00    -0.169 SA
ATOM      7  H1  MMQ d          73.820  39.534  42.661  0.00  0.00     0.102 HD
ENDBRANCH   5   6
ENDBRANCH   1   5
TORSDOF 2
