REMARK  5 active torsions:
REMARK  status: ('A' for Active; 'I' for Inactive)
REMARK    1  A    between atoms: C13_21  and  C14_15 
REMARK    2  A    between atoms: C6_25  and  C7_17 
REMARK       I    between atoms: C5_22  and  N3_30 
REMARK    3  A    between atoms: O2_32  and  C5_22 
REMARK    4  A    between atoms: N3_30  and  C4_23 
REMARK    5  A    between atoms: C6_25  and  O2_32 
ROOT
ATOM      1  C22 WSH d          -8.257  -7.123  -0.032  0.00  0.00     0.001 A 
ATOM      2  C23 WSH d          -8.910  -6.712  -1.174  0.00  0.00     0.002 A 
ATOM      3  C21 WSH d          -8.838  -6.960   1.201  0.00  0.00     0.016 A 
ATOM      4  C24 WSH d         -10.155  -6.129  -1.084  0.00  0.00     0.031 A 
ATOM      5  C20 WSH d         -10.087  -6.374   1.288  0.00  0.00     0.021 A 
ATOM      6  C25 WSH d         -10.751  -5.956   0.148  0.00  0.00     0.055 A 
ATOM      7  C3  WSH d         -13.107  -5.776   0.933  0.00  0.00     0.179 A 
ATOM      8  C2  WSH d         -12.566  -4.312  -0.584  0.00  0.00     0.131 A 
ATOM      9  C13 WSH d         -10.692  -6.196   2.638  0.00  0.00     0.076 C 
ATOM     10  C4  WSH d         -12.848  -6.886   1.930  0.00  0.00     0.283 C 
ATOM     11  C1  WSH d         -11.776  -3.510  -1.552  0.00  0.00     0.093 C 
ATOM     12  N2  WSH d         -14.189  -5.100   0.626  0.00  0.00    -0.130 NA
ATOM     13  N1  WSH d         -13.848  -4.179  -0.339  0.00  0.00    -0.135 NA
ATOM     14  N4  WSH d         -11.923  -6.380   2.951  0.00  0.00    -0.254 NA
ATOM     15  N5  WSH d         -12.046  -5.323   0.195  0.00  0.00    -0.280 N 
ENDROOT
BRANCH  10  16
ATOM     16  N3  WSH d         -14.095  -7.168   2.591  0.00  0.00    -0.307 N 
ATOM     17  C5  WSH d         -14.258  -8.263   3.354  0.00  0.00     0.362 C 
ATOM     18  O1  WSH d         -15.280  -8.560   3.960  0.00  0.00    -0.238 OA
ATOM     19  H21 WSH d         -14.860  -6.533   2.480  0.00  0.00     0.167 HD
BRANCH  17  20
ATOM     20  O2  WSH d         -13.120  -8.999   3.343  0.00  0.00    -0.299 OA
BRANCH  20  21
ATOM     21  C6  WSH d         -13.008 -10.099   4.230  0.00  0.00     0.219 C 
BRANCH  21  22
ATOM     22  C7  WSH d         -11.614 -10.612   4.067  0.00  0.00    -0.034 A 
ATOM     23  C12 WSH d         -11.354 -11.945   3.848  0.00  0.00     0.009 A 
ATOM     24  C11 WSH d         -10.057 -12.389   3.702  0.00  0.00     0.001 A 
ATOM     25  C10 WSH d          -9.016 -11.492   3.767  0.00  0.00     0.000 A 
ATOM     26  C9  WSH d          -9.278 -10.157   3.981  0.00  0.00     0.001 A 
ATOM     27  C8  WSH d         -10.570  -9.718   4.132  0.00  0.00     0.009 A 
ENDBRANCH  21  22
ENDBRANCH  20  21
ENDBRANCH  17  20
ENDBRANCH  10  16
BRANCH   9  28
ATOM     28  C14 WSH d          -9.825  -5.688   3.745  0.00  0.00    -0.007 A 
ATOM     29  C19 WSH d          -8.716  -4.920   3.464  0.00  0.00     0.014 A 
ATOM     30  C18 WSH d          -7.928  -4.438   4.483  0.00  0.00     0.001 A 
ATOM     31  C17 WSH d          -8.237  -4.720   5.794  0.00  0.00     0.000 A 
ATOM     32  C16 WSH d          -9.336  -5.487   6.082  0.00  0.00     0.001 A 
ATOM     33  C15 WSH d         -10.128  -5.968   5.062  0.00  0.00     0.014 A 
ENDBRANCH   9  28
TORSDOF 5
