REMARK  3 active torsions:
REMARK  status: ('A' for Active; 'I' for Inactive)
REMARK    1  A    between atoms: C3_1  and  S1_10 
REMARK    2  A    between atoms: C21_6  and  O23_23 
REMARK    3  A    between atoms: S1_10  and  N21_9 
ROOT
ATOM      1  C3  AL1 d          -5.196   2.029  15.909  0.00  0.00     0.121 A 
ATOM      2  C9  AL1 d          -2.649   4.822  13.005  0.00  0.00     0.146 C 
ATOM      3  C10 AL1 d          -2.376   3.778  14.076  0.00  0.00     0.061 C 
ATOM      4  C19 AL1 d          -2.487   9.128  12.412  0.00  0.00     0.005 A 
ATOM      5  C20 AL1 d          -1.894   9.618  13.564  0.00  0.00     0.037 A 
ATOM      6  C21 AL1 d          -1.887   8.814  14.722  0.00  0.00     0.070 A 
ATOM      7  C22 AL1 d          -2.447   7.552  14.758  0.00  0.00     0.067 A 
ATOM      8  S2  AL1 d          -6.166   3.391  15.522  0.00  0.00    -0.062 SA
ATOM      9  C6  AL1 d          -4.823   4.029  14.700  0.00  0.00     0.128 A 
ATOM     10  C5  AL1 d          -3.645   3.242  14.730  0.00  0.00    -0.024 A 
ATOM     11  C4  AL1 d          -3.897   2.082  15.431  0.00  0.00     0.042 A 
ATOM     12  N8  AL1 d          -3.492   5.851  13.587  0.00  0.00    -0.271 N 
ATOM     13  S7  AL1 d          -4.949   5.519  13.856  0.00  0.00     0.272 S 
ATOM     14  O3B AL1 d          -5.756   5.194  12.645  0.00  0.00    -0.199 OA
ATOM     15  O4B AL1 d          -5.752   6.572  14.530  0.00  0.00    -0.199 OA
ATOM     16  C17 AL1 d          -3.019   7.102  13.591  0.00  0.00     0.047 A 
ATOM     17  C18 AL1 d          -3.058   7.858  12.418  0.00  0.00     0.030 A 
ENDROOT
BRANCH   6  18
ATOM     18  O23 AL1 d          -1.340   9.194  15.837  0.00  0.00    -0.356 OA
ATOM     19  C24 AL1 d          -0.718  10.501  15.827  0.00  0.00     0.210 C 
ENDBRANCH   6  18
BRANCH   1  20
ATOM     20  S1  AL1 d          -5.857   0.724  16.822  0.00  0.00     0.263 S 
ATOM     21  O2A AL1 d          -7.238   0.934  16.699  0.00  0.00    -0.200 OA
ATOM     22  O1A AL1 d          -5.279   0.882  18.104  0.00  0.00    -0.200 OA
BRANCH  20  23
ATOM     23  N21 AL1 d          -5.505  -0.638  16.366  0.00  0.00    -0.324 N 
ATOM     24  H11 AL1 d          -5.858  -1.436  16.855  0.00  0.00     0.169 HD
ATOM     25  H12 AL1 d          -4.914  -0.761  15.569  0.00  0.00     0.169 HD
ENDBRANCH  20  23
ENDBRANCH   1  20
TORSDOF 3
