REMARK  16 active torsions:
REMARK  status: ('A' for Active; 'I' for Inactive)
REMARK    1  A    between atoms: CA_4  and  C_1 
REMARK    2  A    between atoms: N_2  and  CA_4 
REMARK    3  A    between atoms: CBI_33  and  N_2 
REMARK    4  A    between atoms: CA_4  and  CB_5 
REMARK    5  A    between atoms: CB_5  and  CAT_23 
REMARK    6  A    between atoms: CAQ_20  and  NAA_6 
REMARK    7  A    between atoms: CAR_21  and  CAQ_20 
REMARK    8  A    between atoms: CAS_22  and  CAR_21 
REMARK    9  A    between atoms: CAU_24  and  CAS_22 
REMARK   10  A    between atoms: CAT_23  and  CBD_29 
REMARK   11  A    between atoms: CBI_33  and  CAU_24 
REMARK   12  A    between atoms: CBE_30  and  CAW_25 
REMARK   13  A    between atoms: CAW_25  and  CBJ_34 
REMARK       I    between atoms: NAX_26  and  CBC_28 
REMARK   14  A    between atoms: CBJ_34  and  NAX_26 
REMARK   15  A    between atoms: CBJ_34  and  CBB_27 
REMARK   16  A    between atoms: CBC_28  and  CBI_33 
ROOT
ATOM      1  CBI LSW d          42.270   8.369 112.718  0.00  0.00     0.278 C 
ENDROOT
BRANCH   1   2
ATOM      2  N   LSW d          42.887   8.475 114.039  0.00  0.00    -0.048 N 
ATOM      3  H1  LSW d          43.558   9.227 114.039  0.00  0.00     0.279 HD
ATOM      4  H2  LSW d          42.176   8.659 114.730  0.00  0.00     0.279 HD
BRANCH   2   5
ATOM      5  CA  LSW d          43.565   7.210 114.356  0.00  0.00     0.287 C 
BRANCH   5   6
ATOM      6  C   LSW d          42.554   6.059 114.334  0.00  0.00     0.204 C 
ATOM      7  O   LSW d          42.903   4.957 113.858  0.00  0.00    -0.646 OA
ATOM      8  OXT LSW d          41.409   6.246 114.800  0.00  0.00    -0.646 OA
ENDBRANCH   5   6
BRANCH   5   9
ATOM      9  CB  LSW d          44.216   7.289 115.740  0.00  0.00     0.049 C 
BRANCH   9  10
ATOM     10  CAT LSW d          45.071   6.047 116.006  0.00  0.00     0.041 C 
BRANCH  10  11
ATOM     11  CBD LSW d          45.686   6.043 117.409  0.00  0.00    -0.058 A 
ATOM     12  CAL LSW d          45.971   4.833 118.033  0.00  0.00     0.007 A 
ATOM     13  CAH LSW d          46.583   4.815 119.281  0.00  0.00     0.001 A 
ATOM     14  CAG LSW d          46.910   6.011 119.911  0.00  0.00     0.000 A 
ATOM     15  CAI LSW d          46.623   7.222 119.290  0.00  0.00     0.001 A 
ATOM     16  CAM LSW d          46.012   7.238 118.041  0.00  0.00     0.007 A 
ENDBRANCH  10  11
ENDBRANCH   9  10
ENDBRANCH   5   9
ENDBRANCH   2   5
ENDBRANCH   1   2
BRANCH   1  17
ATOM     17  CAU LSW d          41.373   9.592 112.446  0.00  0.00     0.043 C 
BRANCH  17  18
ATOM     18  CAS LSW d          42.097  10.944 112.260  0.00  0.00     0.004 C 
BRANCH  18  19
ATOM     19  CAR LSW d          41.076  12.026 111.844  0.00  0.00     0.027 C 
BRANCH  19  20
ATOM     20  CAQ LSW d          41.733  13.361 111.452  0.00  0.00     0.229 C 
BRANCH  20  21
ATOM     21  NAA LSW d          40.867  14.530 111.814  0.00  0.00    -0.079 N 
ATOM     22  H6  LSW d          41.327  15.385 111.544  0.00  0.00     0.274 HD
ATOM     23  H7  LSW d          40.707  14.534 112.809  0.00  0.00     0.274 HD
ATOM     24  H8  LSW d          39.985  14.456 111.332  0.00  0.00     0.274 HD
ENDBRANCH  20  21
ENDBRANCH  19  20
ENDBRANCH  18  19
ENDBRANCH  17  18
ENDBRANCH   1  17
BRANCH   1  25
ATOM     25  CBC LSW d          43.339   8.248 111.629  0.00  0.00     0.249 C 
ATOM     26  OAD LSW d          44.526   8.406 111.917  0.00  0.00    -0.271 OA
ATOM     27  NAX LSW d          42.939   7.953 110.388  0.00  0.00    -0.344 N 
ATOM     28  H31 LSW d          41.970   7.796 110.199  0.00  0.00     0.163 HD
BRANCH  27  29
ATOM     29  CBJ LSW d          43.924   7.859 109.302  0.00  0.00     0.190 C 
BRANCH  29  30
ATOM     30  CAW LSW d          43.274   7.526 107.950  0.00  0.00     0.077 C 
BRANCH  30  31
ATOM     31  CBE LSW d          41.826   7.220 107.988  0.00  0.00    -0.028 A 
ATOM     32  CAP LSW d          41.241   5.980 107.921  0.00  0.00     0.096 A 
ATOM     33  NXZ LSW d          39.852   6.116 107.951  0.00  0.00    -0.365 N 
ATOM     34  CBF LSW d          39.543   7.449 108.039  0.00  0.00     0.042 A 
ATOM     35  H34 LSW d          39.172   5.343 107.913  0.00  0.00     0.165 HD
ATOM     36  CAN LSW d          38.297   8.078 108.095  0.00  0.00     0.030 A 
ATOM     37  CBG LSW d          40.760   8.173 108.069  0.00  0.00    -0.002 A 
ATOM     38  CAJ LSW d          38.280   9.449 108.181  0.00  0.00     0.002 A 
ATOM     39  CAK LSW d          39.473  10.201 108.216  0.00  0.00     0.001 A 
ATOM     40  CAO LSW d          40.716   9.572 108.162  0.00  0.00     0.014 A 
ENDBRANCH  30  31
ENDBRANCH  29  30
BRANCH  29  41
ATOM     41  CBB LSW d          44.680   9.186 109.157  0.00  0.00     0.197 C 
ATOM     42  OAC LSW d          45.861   9.169 108.727  0.00  0.00    -0.646 OA
ATOM     43  OAF LSW d          44.072  10.238 109.453  0.00  0.00    -0.646 OA
ENDBRANCH  29  41
ENDBRANCH  27  29
ENDBRANCH   1  25
TORSDOF 16
