REMARK  7 active torsions:
REMARK  status: ('A' for Active; 'I' for Inactive)
REMARK    1  A    between atoms: C10_10  and  C11_11 
REMARK    2  A    between atoms: N4_19  and  C16_20 
REMARK    3  A    between atoms: C17_22  and  O2_23 
REMARK    4  A    between atoms: C18_24  and  O3_25 
REMARK    5  A    between atoms: C19_26  and  C20_27 
REMARK    6  A    between atoms: C20_27  and  O4_28 
REMARK    7  A    between atoms: O4_28  and  P1_29 
ROOT
ATOM      1  C11 N6P d          11.264  75.668  -5.611  0.00  0.00     0.101 A 
ATOM      2  N1  N6P d          11.490  74.888  -4.527  0.00  0.00    -0.239 NA
ATOM      3  C12 N6P d          10.638  73.944  -4.145  0.00  0.00     0.236 A 
ATOM      4  N2  N6P d           9.494  73.688  -4.814  0.00  0.00    -0.222 NA
ATOM      5  C13 N6P d           9.170  74.434  -5.911  0.00  0.00     0.165 A 
ATOM      6  C14 N6P d          10.048  75.459  -6.344  0.00  0.00     0.134 A 
ATOM      7  N3  N6P d           9.482  76.024  -7.446  0.00  0.00    -0.237 NA
ATOM      8  C15 N6P d           8.306  75.394  -7.688  0.00  0.00     0.214 A 
ATOM      9  N4  N6P d           8.106  74.439  -6.784  0.00  0.00    -0.294 N 
ENDROOT
BRANCH   9  10
ATOM     10  C16 N6P d           7.008  73.606  -6.674  0.00  0.00     0.262 C 
ATOM     11  O1  N6P d           5.982  74.075  -7.820  0.00  0.00    -0.353 OA
ATOM     12  C19 N6P d           5.032  74.854  -7.325  0.00  0.00     0.180 C 
ATOM     13  C18 N6P d           5.113  74.723  -5.779  0.00  0.00     0.182 C 
ATOM     14  C17 N6P d           6.400  73.897  -5.503  0.00  0.00     0.198 C 
BRANCH  12  15
ATOM     15  C20 N6P d           5.213  76.302  -7.746  0.00  0.00     0.217 C 
BRANCH  15  16
ATOM     16  O4  N6P d           5.264  76.297  -9.189  0.00  0.00    -0.280 OA
BRANCH  16  17
ATOM     17  P1  N6P d           5.690  77.618  -9.974  0.00  0.00     0.422 P 
ATOM     18  O5  N6P d           7.056  78.013  -9.571  0.00  0.00    -0.617 OA
ATOM     19  O6  N6P d           5.620  77.290 -11.467  0.00  0.00    -0.617 OA
ATOM     20  O7  N6P d           4.726  78.728  -9.648  0.00  0.00    -0.617 OA
ENDBRANCH  16  17
ENDBRANCH  15  16
ENDBRANCH  12  15
BRANCH  13  21
ATOM     21  O3  N6P d           3.988  74.130  -5.344  0.00  0.00    -0.390 OA
ATOM     22  H   N6P d           3.885  73.291  -5.778  0.00  0.00     0.210 HD
ENDBRANCH  13  21
BRANCH  14  23
ATOM     23  O2  N6P d           6.039  72.702  -4.696  0.00  0.00    -0.388 OA
ATOM     24  H   N6P d           5.444  72.154  -5.193  0.00  0.00     0.210 HD
ENDBRANCH  14  23
ENDBRANCH   9  10
BRANCH   1  25
ATOM     25  C10 N6P d          12.242  76.779  -5.943  0.00  0.00    -0.004 A 
ATOM     26  C1  N6P d          13.303  77.012  -5.083  0.00  0.00     0.026 A 
ATOM     27  C2  N6P d          14.190  78.060  -5.335  0.00  0.00    -0.025 A 
ATOM     28  C3  N6P d          15.287  78.273  -4.486  0.00  0.00     0.012 A 
ATOM     29  C7  N6P d          13.982  78.904  -6.418  0.00  0.00    -0.026 A 
ATOM     30  C4  N6P d          16.171  79.319  -4.730  0.00  0.00     0.001 A 
ATOM     31  C5  N6P d          15.957  80.159  -5.823  0.00  0.00     0.001 A 
ATOM     32  C6  N6P d          14.861  79.954  -6.664  0.00  0.00     0.012 A 
ATOM     33  C8  N6P d          12.890  78.700  -7.263  0.00  0.00     0.013 A 
ATOM     34  C9  N6P d          12.014  77.655  -7.017  0.00  0.00     0.014 A 
ENDBRANCH   1  25
TORSDOF 7
