REMARK  14 active torsions:
REMARK  status: ('A' for Active; 'I' for Inactive)
REMARK    1  A    between atoms: C1N_6  and  C1F_7 
REMARK    2  A    between atoms: C1F_7  and  C1E_8 
REMARK    3  A    between atoms: C1E_8  and  C1M_9 
REMARK    4  A    between atoms: C1M_9  and  O1D_10 
REMARK    5  A    between atoms: C1M_9  and  C1Q_11 
REMARK    6  A    between atoms: C5_13  and  C6_14 
REMARK    7  A    between atoms: C6_14  and  C7_15 
REMARK    8  A    between atoms: C7_15  and  O7_16 
REMARK    9  A    between atoms: O7_16  and  P1A_17 
REMARK   10  A    between atoms: P1A_17  and  O3A_20 
REMARK   11  A    between atoms: O3A_20  and  P1B_21 
REMARK   12  A    between atoms: N3_27  and  C7S_28 
REMARK   13  A    between atoms: C7S_28  and  C5S_29 
REMARK   14  A    between atoms: C4S_35  and  N4S_36 
ROOT
ATOM      1  C1Q MOL d          66.482  53.459 160.485  0.00  0.00     0.087 A 
ATOM      2  S1  MOL d          65.963  54.298 162.024  0.00  0.00    -0.076 SA
ATOM      3  C5  MOL d          66.458  52.890 163.001  0.00  0.00     0.009 A 
ATOM      4  C4  MOL d          66.863  51.884 162.160  0.00  0.00     0.022 A 
ATOM      5  C4M MOL d          67.370  50.520 162.711  0.00  0.00     0.069 C 
ATOM      6  N3  MOL d          66.890  52.194 160.849  0.00  0.00    -0.341 N 
ENDROOT
BRANCH   1   7
ATOM      7  C1M MOL d          65.762  53.820 159.138  0.00  0.00     0.198 C 
BRANCH   7   8
ATOM      8  C1E MOL d          65.103  55.059 158.969  0.00  0.00     0.012 C 
BRANCH   8   9
ATOM      9  C1F MOL d          65.823  56.212 158.789  0.00  0.00     0.012 C 
BRANCH   9  10
ATOM     10  C1N MOL d          65.253  57.472 158.626  0.00  0.00    -0.019 A 
ATOM     11  C1I MOL d          64.432  57.756 157.526  0.00  0.00     0.014 A 
ATOM     12  C1G MOL d          63.926  59.052 157.403  0.00  0.00     0.020 A 
ATOM     13  C1H MOL d          64.237  60.026 158.371  0.00  0.00     0.116 A 
ATOM     14  N1K MOL d          65.004  59.711 159.423  0.00  0.00    -0.272 NA
ATOM     15  C1J MOL d          65.521  58.476 159.568  0.00  0.00     0.127 A 
ENDBRANCH   9  10
ENDBRANCH   8   9
ENDBRANCH   7   8
BRANCH   7  16
ATOM     16  O1D MOL d          65.595  52.829 158.154  0.00  0.00    -0.385 OA
ATOM     17  H8  MOL d          66.091  52.056 158.397  0.00  0.00     0.210 HD
ENDBRANCH   7  16
ENDBRANCH   1   7
BRANCH   6  18
ATOM     18  C7S MOL d          67.454  51.204 159.852  0.00  0.00     0.173 C 
BRANCH  18  19
ATOM     19  C5S MOL d          69.008  51.282 159.661  0.00  0.00     0.023 C 
ATOM     20  C6S MOL d          69.702  50.107 159.818  0.00  0.00     0.131 C 
ATOM     21  N1S MOL d          71.047  50.089 159.652  0.00  0.00    -0.245 NA
ATOM     22  C2S MOL d          71.580  51.249 159.267  0.00  0.00     0.124 C 
ATOM     23  C2M MOL d          73.119  51.191 159.017  0.00  0.00     0.093 C 
ATOM     24  N3S MOL d          70.952  52.406 159.033  0.00  0.00    -0.216 NA
ATOM     25  C4S MOL d          69.603  52.459 159.182  0.00  0.00     0.132 C 
BRANCH  25  26
ATOM     26  N4S MOL d          69.063  53.593 158.912  0.00  0.00    -0.383 N 
ATOM     27  H22 MOL d          69.643  54.370 158.564  0.00  0.00     0.157 HD
ATOM     28  H23 MOL d          68.050  53.725 159.044  0.00  0.00     0.157 HD
ENDBRANCH  25  26
ENDBRANCH  18  19
ENDBRANCH   6  18
BRANCH   3  29
ATOM     29  C6  MOL d          66.264  52.932 164.450  0.00  0.00     0.075 C 
BRANCH  29  30
ATOM     30  C7  MOL d          67.258  53.818 165.256  0.00  0.00     0.186 C 
BRANCH  30  31
ATOM     31  O7  MOL d          66.843  53.632 166.648  0.00  0.00    -0.289 OA
BRANCH  31  32
ATOM     32  P1A MOL d          67.414  54.636 167.702  0.00  0.00     0.418 P 
ATOM     33  O2A MOL d          67.247  53.940 168.995  0.00  0.00    -0.624 OA
ATOM     34  O1A MOL d          68.784  55.165 167.413  0.00  0.00    -0.624 OA
BRANCH  32  35
ATOM     35  O3A MOL d          66.580  55.865 167.633  0.00  0.00    -0.173 OA
BRANCH  35  36
ATOM     36  P1B MOL d          64.845  56.059 167.798  0.00  0.00     0.431 P 
ATOM     37  O2B MOL d          64.224  55.710 166.438  0.00  0.00    -0.616 OA
ATOM     38  O1B MOL d          64.458  55.098 168.906  0.00  0.00    -0.616 OA
ATOM     39  O3B MOL d          64.648  57.457 168.155  0.00  0.00    -0.616 OA
ENDBRANCH  35  36
ENDBRANCH  32  35
ENDBRANCH  31  32
ENDBRANCH  30  31
ENDBRANCH  29  30
ENDBRANCH   3  29
TORSDOF 14
