1u0g_ligand

Created by X-TOOL on Fri Sep 26 17:34:26 2014
 21 20  0  0  0  0  0  0  0  0999 V2000
    8.0180    2.4430   -0.0770  C 0  0  0  3  0  4
    9.1930    2.5960    0.7100  O 0  0  0  2  0  2
    7.3640    3.7110   -0.5170  C 0  0  0  2  0  4
    8.4140    4.4790   -1.0640  O 0  0  0  2  0  2
    6.7300    4.3930    0.6870  C 0  0  0  2  0  4
    5.6200    3.6230    1.1180  O 0  0  0  2  0  2
    6.2260    5.7940    0.3300  C 0  0  0  3  0  4
    5.2880    5.7220   -0.7420  O 0  0  0  1  0  2
    4.8490    7.0110   -1.4150  P 0  0  0  1  0  4
    4.3190    7.9470   -0.3660  O 0  0  0  1  0  1
    6.0170    7.6460   -2.1060  O 0  0  0  1  0  1
    3.7500    6.6700   -2.3850  O 0  0  0  1  0  1
    7.2866    1.8732    0.5149  H 0  0  0  1  0  1
    8.2864    1.8711   -0.9775  H 0  0  0  1  0  1
    9.8458    3.0744    0.2126  H 0  0  0  1  0  1
    6.5936    3.5149   -1.2773  H 0  0  0  1  0  1
    9.0731    4.6326   -0.3973  H 0  0  0  1  0  1
    7.4722    4.4661    1.4956  H 0  0  0  1  0  1
    4.9865    3.5604    0.4128  H 0  0  0  1  0  1
    7.0778    6.4200    0.0259  H 0  0  0  1  0  1
    5.7388    6.2399    1.2096  H 0  0  0  1  0  1
  1  2  1  0  0  2
  1  3  1  0  0  2
  3  4  1  0  0  2
  3  5  1  0  0  2
  5  6  1  0  0  2
  5  7  1  0  0  2
  7  8  1  0  0  2
  8  9  1  0  0  2
  9 10  2  0  0  2
  9 11  2  0  0  2
  9 12  2  0  0  2
  1 13  1  0  0  2
  1 14  1  0  0  2
  2 15  1  0  0  2
  3 16  1  0  0  2
  4 17  1  0  0  2
  5 18  1  0  0  2
  6 19  1  0  0  2
  7 20  1  0  0  2
  7 21  1  0  0  2
M  END
> <MOLECULAR_FORMULA>
C4H9O7P

> <MOLECULAR_WEIGHT>
200.0

> <NUM_HB_ATOMS>
7  

> <NUM_ROTOR>
4  

> <XLOGP2>
-3.01

$$$$
