REMARK  8 active torsions:
REMARK  status: ('A' for Active; 'I' for Inactive)
REMARK    1  A    between atoms: S10_1  and  N9_5 
REMARK    2  A    between atoms: N9_5  and  C8_6 
REMARK    3  A    between atoms: C8_6  and  C15_7 
REMARK    4  A    between atoms: C8_6  and  C7_9 
REMARK       I    between atoms: C15_7  and  N17_16 
REMARK    5  A    between atoms: C7_9  and  C6_10 
REMARK    6  A    between atoms: C21_17  and  C22_18 
REMARK       I    between atoms: C22_18  and  N24_23 
REMARK    7  A    between atoms: N24_23  and  C25_24 
REMARK    8  A    between atoms: C25_24  and  C26_25 
REMARK       I    between atoms: N29_28  and  C32_31 
REMARK       I    between atoms: C32_31  and  N33_32 
ROOT
ATOM      1  C15 MOL d          26.948   4.506  21.628  0.00  0.00     0.244 C 
ATOM      2  O16 MOL d          26.881   5.078  20.554  0.00  0.00    -0.271 OA
ATOM      3  N17 MOL d          26.609   3.204  21.760  0.00  0.00    -0.337 N 
ATOM      4  C21 MOL d          26.212   2.404  20.594  0.00  0.00     0.179 C 
ATOM      5  C20 MOL d          26.133   0.969  21.150  0.00  0.00     0.037 C 
ATOM      6  C19 MOL d          26.806   1.014  22.499  0.00  0.00     0.022 C 
ATOM      7  C18 MOL d          26.543   2.404  22.993  0.00  0.00     0.127 C 
ENDROOT
BRANCH   4   8
ATOM      8  C22 MOL d          24.849   2.867  20.089  0.00  0.00     0.240 C 
ATOM      9  O23 MOL d          24.005   3.295  20.875  0.00  0.00    -0.271 OA
ATOM     10  N24 MOL d          24.643   2.810  18.779  0.00  0.00    -0.359 N 
ATOM     11  H20 MOL d          25.344   2.412  18.188  0.00  0.00     0.162 HD
BRANCH  10  12
ATOM     12  C25 MOL d          23.413   3.318  18.188  0.00  0.00     0.127 C 
BRANCH  12  13
ATOM     13  C26 MOL d          23.426   4.701  17.550  0.00  0.00     0.006 C 
ATOM     14  C27 MOL d          24.225   4.734  16.250  0.00  0.00     0.027 C 
ATOM     15  C28 MOL d          24.070   6.075  15.515  0.00  0.00     0.141 C 
ATOM     16  N29 MOL d          24.414   7.215  16.383  0.00  0.00    -0.219 N 
ATOM     17  C30 MOL d          23.699   7.231  17.677  0.00  0.00     0.141 C 
ATOM     18  C32 MOL d          24.886   8.420  15.747  0.00  0.00     0.667 C 
ATOM     19  C31 MOL d          23.834   5.893  18.417  0.00  0.00     0.027 C 
ATOM     20  N33 MOL d          24.724   9.636  16.522  0.00  0.00    -0.235 N 
ATOM     21  N34 MOL d          25.437   8.536  14.579  0.00  0.00    -0.235 N 
ATOM     22  H32 MOL d          25.037  10.538  16.136  0.00  0.00     0.174 HD
ATOM     23  H33 MOL d          24.296   9.597  17.458  0.00  0.00     0.174 HD
ATOM     24  H34 MOL d          25.575   7.703  13.989  0.00  0.00     0.174 HD
ATOM     25  H35 MOL d          25.737   9.461  14.241  0.00  0.00     0.174 HD
ENDBRANCH  12  13
ENDBRANCH  10  12
ENDBRANCH   4   8
BRANCH   1  26
ATOM     26  C8  MOL d          27.344   5.320  22.869  0.00  0.00     0.189 C 
BRANCH  26  27
ATOM     27  N9  MOL d          26.611   6.578  22.799  0.00  0.00    -0.306 N 
ATOM     28  H4  MOL d          26.995   7.324  22.255  0.00  0.00     0.173 HD
BRANCH  27  29
ATOM     29  S10 MOL d          25.188   6.825  23.570  0.00  0.00     0.223 S 
ATOM     30  O11 MOL d          25.409   6.422  24.921  0.00  0.00    -0.206 OA
ATOM     31  O12 MOL d          24.825   8.180  23.298  0.00  0.00    -0.206 OA
ATOM     32  C13 MOL d          23.973   5.780  22.872  0.00  0.00     0.185 C 
ENDBRANCH  27  29
ENDBRANCH  26  27
BRANCH  26  33
ATOM     33  C7  MOL d          28.843   5.650  22.874  0.00  0.00     0.074 C 
BRANCH  33  34
ATOM     34  C6  MOL d          29.715   4.423  22.955  0.00  0.00    -0.056 A 
ATOM     35  C1  MOL d          30.478   4.019  21.863  0.00  0.00     0.007 A 
ATOM     36  C2  MOL d          31.269   2.882  21.931  0.00  0.00     0.001 A 
ATOM     37  C3  MOL d          31.313   2.135  23.095  0.00  0.00     0.000 A 
ATOM     38  C4  MOL d          30.564   2.525  24.187  0.00  0.00     0.001 A 
ATOM     39  C5  MOL d          29.770   3.662  24.119  0.00  0.00     0.007 A 
ENDBRANCH  33  34
ENDBRANCH  26  33
ENDBRANCH   1  26
TORSDOF 8
