REMARK  7 active torsions:
REMARK  status: ('A' for Active; 'I' for Inactive)
REMARK    1  A    between atoms: C24_2  and  C26_3 
REMARK       I    between atoms: C24_2  and  N23_13 
REMARK    2  A    between atoms: N23_13  and  C20_14 
REMARK       I    between atoms: N15_21  and  C13_22 
REMARK    3  A    between atoms: C13_22  and  C8_24 
REMARK    4  A    between atoms: C8_24  and  C9_25 
REMARK    5  A    between atoms: C8_24  and  N7_29 
REMARK       I    between atoms: N7_29  and  C5_30 
REMARK    6  A    between atoms: C5_30  and  C3_32 
REMARK    7  A    between atoms: C3_32  and  N2_34 
ROOT
ATOM      1  C20 G13 d          77.311  62.856  14.202  0.00  0.00     0.108 C 
ATOM      2  C16 G13 d          78.574  63.718  14.200  0.00  0.00     0.114 C 
ATOM      3  C17 G13 d          78.323  64.903  13.288  0.00  0.00     0.012 C 
ATOM      4  C22 G13 d          77.036  64.626  12.516  0.00  0.00     0.009 C 
ATOM      5  C21 G13 d          76.446  63.321  13.043  0.00  0.00     0.028 C 
ATOM      6  C18 G13 d          79.530  65.011  12.380  0.00  0.00     0.026 C 
ATOM      7  C19 G13 d          80.130  63.617  12.350  0.00  0.00     0.127 C 
ATOM      8  N15 G13 d          79.722  63.009  13.616  0.00  0.00    -0.343 N 
ATOM      9  C13 G13 d          80.275  61.980  14.271  0.00  0.00     0.243 C 
ATOM     10  O14 G13 d          79.897  61.672  15.393  0.00  0.00    -0.271 OA
ENDROOT
BRANCH   9  11
ATOM     11  C8  G13 d          81.395  61.189  13.642  0.00  0.00     0.184 C 
BRANCH  11  12
ATOM     12  C9  G13 d          80.860  59.962  12.893  0.00  0.00    -0.022 C 
ATOM     13  C12 G13 d          79.982  60.406  11.729  0.00  0.00     0.017 C 
ATOM     14  C11 G13 d          80.028  59.069  13.807  0.00  0.00     0.017 C 
ATOM     15  C10 G13 d          82.009  59.149  12.304  0.00  0.00     0.017 C 
ENDBRANCH  11  12
BRANCH  11  16
ATOM     16  N7  G13 d          82.342  60.795  14.676  0.00  0.00    -0.345 N 
ATOM     17  C5  G13 d          83.666  60.828  14.537  0.00  0.00     0.248 C 
ATOM     18  O6  G13 d          84.224  61.235  13.530  0.00  0.00    -0.271 OA
ATOM     19  H30 G13 d          81.973  60.478  15.550  0.00  0.00     0.163 HD
BRANCH  17  20
ATOM     20  C3  G13 d          84.464  60.299  15.698  0.00  0.00     0.272 C 
ATOM     21  C4  G13 d          84.592  61.350  16.797  0.00  0.00     0.050 C 
BRANCH  20  22
ATOM     22  N2  G13 d          85.775  59.849  15.274  0.00  0.00    -0.067 N 
ATOM     23  C1  G13 d          85.894  58.674  14.426  0.00  0.00     0.267 C 
ATOM     24  H35 G13 d          86.304  59.660  16.111  0.00  0.00     0.277 HD
ATOM     25  H36 G13 d          86.199  60.614  14.774  0.00  0.00     0.277 HD
ENDBRANCH  20  22
ENDBRANCH  17  20
ENDBRANCH  11  16
ENDBRANCH   9  11
BRANCH   1  26
ATOM     26  N23 G13 d          76.593  63.040  15.449  0.00  0.00    -0.350 N 
ATOM     27  C24 G13 d          75.889  62.091  16.072  0.00  0.00     0.252 C 
ATOM     28  O25 G13 d          75.605  61.033  15.538  0.00  0.00    -0.268 OA
ATOM     29  H8  G13 d          76.628  63.945  15.874  0.00  0.00     0.163 HD
BRANCH  27  30
ATOM     30  C26 G13 d          75.448  62.385  17.489  0.00  0.00     0.043 A 
ATOM     31  C27 G13 d          76.437  62.760  18.393  0.00  0.00     0.018 A 
ATOM     32  C28 G13 d          76.124  63.066  19.717  0.00  0.00     0.002 A 
ATOM     33  C29 G13 d          74.800  62.999  20.141  0.00  0.00     0.012 A 
ATOM     34  C30 G13 d          73.803  62.631  19.238  0.00  0.00    -0.025 A 
ATOM     35  C32 G13 d          72.483  62.571  19.683  0.00  0.00     0.012 A 
ATOM     36  C31 G13 d          74.116  62.326  17.912  0.00  0.00    -0.010 A 
ATOM     37  C33 G13 d          71.462  62.207  18.810  0.00  0.00     0.001 A 
ATOM     38  C34 G13 d          71.764  61.903  17.486  0.00  0.00     0.001 A 
ATOM     39  C35 G13 d          73.082  61.961  17.038  0.00  0.00     0.013 A 
ENDBRANCH  27  30
ENDBRANCH   1  26
TORSDOF 7
