REMARK  2 active torsions:
REMARK  status: ('A' for Active; 'I' for Inactive)
REMARK    1  A    between atoms: O1_1  and  C2_2 
REMARK    2  A    between atoms: C2_2  and  C3_3 
ROOT
ATOM      1  C3  MOL d           4.455  12.825  45.853  0.00  0.00    -0.032 A 
ATOM      2  C4  MOL d           5.088  11.693  45.336  0.00  0.00     0.012 A 
ATOM      3  C5  MOL d           5.264  11.567  43.958  0.00  0.00     0.040 A 
ATOM      4  C6  MOL d           4.805  12.580  43.115  0.00  0.00     0.102 A 
ATOM      5  O7  MOL d           4.978  12.450  41.798  0.00  0.00    -0.346 OA
ATOM      6  C8  MOL d           4.154  13.216  40.865  0.00  0.00     0.202 C 
ATOM      7  C9  MOL d           3.979  14.650  41.378  0.00  0.00     0.202 C 
ATOM      8  O10 MOL d           3.740  14.683  42.816  0.00  0.00    -0.346 OA
ATOM      9  C11 MOL d           4.167  13.721  43.635  0.00  0.00     0.102 A 
ATOM     10  C12 MOL d           3.989  13.853  45.014  0.00  0.00     0.049 A 
ENDROOT
BRANCH   1  11
ATOM     11  C2  MOL d           4.271  12.940  47.347  0.00  0.00     0.203 C 
BRANCH  11  12
ATOM     12  O1  MOL d           5.334  12.293  48.043  0.00  0.00    -0.396 OA
ATOM     13  H   MOL d           5.197  12.379  48.979  0.00  0.00     0.209 HD
ENDBRANCH  11  12
ENDBRANCH   1  11
TORSDOF 2
