REMARK  7 active torsions:
REMARK  status: ('A' for Active; 'I' for Inactive)
REMARK    1  A    between atoms: C8_11  and  C14_17 
REMARK    2  A    between atoms: C12_15  and  C15_18 
REMARK    3  A    between atoms: C15_18  and  C16_19 
REMARK    4  A    between atoms: C16_19  and  C17_20 
REMARK       I    between atoms: C17_20  and  N18_21 
REMARK    5  A    between atoms: N18_21  and  C30_33 
REMARK    6  A    between atoms: N21_24  and  C24_27 
REMARK    7  A    between atoms: C30_33  and  C31_34 
ROOT
ATOM      1  C   Q6W d          -5.600  -7.078 -15.223  0.00  0.00     0.044 A 
ATOM      2  N   Q6W d          -6.386  -8.613 -16.890  0.00  0.00    -0.259 NA
ATOM      3  O   Q6W d          -4.823  -6.197 -13.241  0.00  0.00    -0.287 OA
ATOM      4  C1  Q6W d          -6.617  -7.775 -15.856  0.00  0.00     0.070 A 
ATOM      5  C2  Q6W d          -8.034  -7.708 -15.554  0.00  0.00     0.033 C 
ATOM      6  C3  Q6W d          -8.711  -6.754 -14.889  0.00  0.00     0.014 C 
ATOM      7  C4  Q6W d          -8.318  -5.575 -14.167  0.00  0.00    -0.022 A 
ATOM      8  C5  Q6W d          -6.925  -5.344 -13.759  0.00  0.00     0.026 A 
ATOM      9  C6  Q6W d          -5.746  -6.218 -14.047  0.00  0.00     0.195 C 
ATOM     10  C7  Q6W d          -4.301  -7.224 -15.680  0.00  0.00     0.031 A 
ATOM     11  C8  Q6W d          -4.051  -8.054 -16.755  0.00  0.00    -0.004 A 
ATOM     12  C9  Q6W d          -5.119  -8.736 -17.305  0.00  0.00     0.129 A 
ATOM     13  C10 Q6W d          -9.233  -4.670 -13.778  0.00  0.00     0.013 A 
ATOM     14  C11 Q6W d          -8.894  -3.500 -12.999  0.00  0.00     0.008 A 
ATOM     15  C12 Q6W d          -7.639  -3.265 -12.584  0.00  0.00    -0.057 A 
ATOM     16  C13 Q6W d          -6.557  -4.194 -12.896  0.00  0.00     0.023 A 
ENDROOT
BRANCH  11  17
ATOM     17  C14 Q6W d          -2.709  -8.184 -17.286  0.00  0.00     0.012 A 
ATOM     18  C20 Q6W d          -2.380  -8.823 -18.463  0.00  0.00     0.126 A 
ATOM     19  N21 Q6W d          -1.030  -8.638 -18.610  0.00  0.00    -0.276 N 
ATOM     20  N22 Q6W d          -0.466  -7.900 -17.645  0.00  0.00    -0.184 NA
ATOM     21  C23 Q6W d          -1.495  -7.623 -16.823  0.00  0.00     0.152 A 
BRANCH  19  22
ATOM     22  C24 Q6W d          -0.202  -9.123 -19.707  0.00  0.00     0.112 C 
ATOM     23  C25 Q6W d           0.919 -10.011 -19.188  0.00  0.00     0.055 C 
ATOM     24  C26 Q6W d           1.923 -10.350 -20.284  0.00  0.00     0.234 C 
ATOM     25  N27 Q6W d           2.425  -9.073 -20.847  0.00  0.00    -0.075 N 
ATOM     26  C28 Q6W d           1.348  -8.281 -21.500  0.00  0.00     0.234 C 
ATOM     27  H20 Q6W d           3.137  -9.278 -21.531  0.00  0.00     0.277 HD
ATOM     28  H21 Q6W d           2.824  -8.524 -20.101  0.00  0.00     0.277 HD
ATOM     29  C29 Q6W d           0.367  -7.906 -20.413  0.00  0.00     0.055 C 
ENDBRANCH  19  22
ENDBRANCH  11  17
BRANCH  15  30
ATOM     30  C15 Q6W d          -7.168  -2.106 -11.792  0.00  0.00     0.048 C 
BRANCH  30  31
ATOM     31  C16 Q6W d          -6.525  -1.066 -12.694  0.00  0.00     0.107 C 
BRANCH  31  32
ATOM     32  C17 Q6W d          -5.089  -1.360 -13.067  0.00  0.00     0.218 C 
ATOM     33  N18 Q6W d          -4.647  -0.473 -14.031  0.00  0.00    -0.355 N 
ATOM     34  H12 Q6W d          -5.309   0.143 -14.459  0.00  0.00     0.162 HD
ATOM     35  O19 Q6W d          -4.402  -2.261 -12.590  0.00  0.00    -0.274 OA
BRANCH  33  36
ATOM     36  C30 Q6W d          -3.268  -0.404 -14.441  0.00  0.00     0.181 C 
BRANCH  36  37
ATOM     37  C31 Q6W d          -2.467   0.575 -13.630  0.00  0.00     0.051 A 
ATOM     38  N32 Q6W d          -1.636   1.380 -14.310  0.00  0.00    -0.264 NA
ATOM     39  C33 Q6W d          -0.921   2.255 -13.588  0.00  0.00     0.117 A 
ATOM     40  C34 Q6W d          -0.986   2.373 -12.215  0.00  0.00     0.019 A 
ATOM     41  C35 Q6W d          -1.847   1.533 -11.539  0.00  0.00     0.003 A 
ATOM     42  C36 Q6W d          -2.596   0.623 -12.257  0.00  0.00     0.029 A 
ENDBRANCH  36  37
ENDBRANCH  33  36
ENDBRANCH  31  32
ENDBRANCH  30  31
ENDBRANCH  15  30
TORSDOF 7
