REMARK  5 active torsions:
REMARK  status: ('A' for Active; 'I' for Inactive)
REMARK    1  A    between atoms: N_1  and  CA_2 
REMARK    2  A    between atoms: CA_2  and  C_3 
REMARK    3  A    between atoms: CA_2  and  CB_5 
REMARK    4  A    between atoms: CB_5  and  CG_6 
REMARK    5  A    between atoms: CG_6  and  CD_7 
ROOT
ATOM      1  CA  GLU d           2.628 -30.036 -13.863  0.00  0.00     0.283 C 
ENDROOT
BRANCH   1   2
ATOM      2  N   GLU d           3.940 -30.651 -13.645  0.00  0.00    -0.065 N 
ATOM      3  H1  GLU d           4.661 -29.958 -13.770  0.00  0.00     0.275 HD
ATOM      4  H2  GLU d           4.075 -31.399 -14.307  0.00  0.00     0.275 HD
ATOM      5  H3  GLU d           3.987 -31.019 -12.708  0.00  0.00     0.275 HD
ENDBRANCH   1   2
BRANCH   1   6
ATOM      6  C   GLU d           1.491 -31.051 -13.684  0.00  0.00     0.204 C 
ATOM      7  O   GLU d           0.408 -30.679 -13.956  0.00  0.00    -0.646 OA
ATOM      8  OXT GLU d           1.742 -32.145 -13.221  0.00  0.00    -0.646 OA
ENDBRANCH   1   6
BRANCH   1   9
ATOM      9  CB  GLU d           2.564 -29.397 -15.252  0.00  0.00     0.054 C 
BRANCH   9  10
ATOM     10  CG  GLU d           3.301 -28.085 -15.355  0.00  0.00     0.116 C 
BRANCH  10  11
ATOM     11  CD  GLU d           2.556 -26.912 -14.731  0.00  0.00     0.172 C 
ATOM     12  OE1 GLU d           1.427 -27.055 -14.435  0.00  0.00    -0.648 OA
ATOM     13  OE2 GLU d           3.204 -25.919 -14.545  0.00  0.00    -0.648 OA
ENDBRANCH  10  11
ENDBRANCH   9  10
ENDBRANCH   1   9
TORSDOF 5
