REMARK  11 active torsions:
REMARK  status: ('A' for Active; 'I' for Inactive)
REMARK    1  A    between atoms: O4_1  and  C4_2 
REMARK    2  A    between atoms: C3_6  and  O3_7 
REMARK    3  A    between atoms: C2_8  and  O2_9 
REMARK    4  A    between atoms: C1_10  and  O1_11 
REMARK    5  A    between atoms: N2_14  and  C8_15 
REMARK    6  A    between atoms: C8_15  and  C9_16 
REMARK    7  A    between atoms: C9_16  and  C10_17 
REMARK    8  A    between atoms: C10_17  and  C11_18 
REMARK    9  A    between atoms: C11_18  and  C12_19 
REMARK   10  A    between atoms: C12_19  and  C13_20 
REMARK   11  A    between atoms: C13_20  and  C14_21 
ROOT
ATOM      1  C4  AM3 d           1.689   0.338  11.244  0.00  0.00     0.174 C 
ATOM      2  C5  AM3 d           1.820   1.874  11.139  0.00  0.00     0.146 C 
ATOM      3  C6  AM3 d           0.676   2.594  10.381  0.00  0.00     0.207 C 
ATOM      4  O6  AM3 d           0.307   3.643  11.314  0.00  0.00    -0.319 OA
ATOM      5  C3  AM3 d           2.874  -0.149  12.098  0.00  0.00     0.182 C 
ATOM      6  C2  AM3 d           2.918   0.413  13.528  0.00  0.00     0.198 C 
ATOM      7  C1  AM3 d           2.631   1.925  13.588  0.00  0.00     0.255 C 
ATOM      8  N1  AM3 d           1.816   2.444  12.492  0.00  0.00    -0.307 N 
ATOM      9  C7  AM3 d           0.916   3.526  12.514  0.00  0.00     0.241 C 
ATOM     10  N2  AM3 d           0.612   4.324  13.552  0.00  0.00    -0.251 NA
ENDROOT
BRANCH  10  11
ATOM     11  C8  AM3 d          -0.707   4.702  14.131  0.00  0.00     0.153 C 
BRANCH  11  12
ATOM     12  C9  AM3 d          -1.096   6.110  13.727  0.00  0.00     0.022 C 
BRANCH  12  13
ATOM     13  C10 AM3 d          -1.684   6.977  14.829  0.00  0.00     0.002 C 
BRANCH  13  14
ATOM     14  C11 AM3 d          -3.145   6.677  15.140  0.00  0.00     0.000 C 
BRANCH  14  15
ATOM     15  C12 AM3 d          -3.848   7.979  15.516  0.00  0.00     0.000 C 
BRANCH  15  16
ATOM     16  C13 AM3 d          -5.196   7.656  16.152  0.00  0.00    -0.000 C 
BRANCH  16  17
ATOM     17  C14 AM3 d          -5.904   8.920  16.604  0.00  0.00    -0.005 C 
ATOM     18  C15 AM3 d          -6.789   9.453  15.497  0.00  0.00     0.005 C 
ENDBRANCH  16  17
ENDBRANCH  15  16
ENDBRANCH  14  15
ENDBRANCH  13  14
ENDBRANCH  12  13
ENDBRANCH  11  12
ENDBRANCH  10  11
BRANCH   7  19
ATOM     19  O1  AM3 d           1.781   2.177  14.690  0.00  0.00    -0.374 OA
ATOM     20  H11 AM3 d           1.610   3.110  14.750  0.00  0.00     0.212 HD
ENDBRANCH   7  19
BRANCH   1  21
ATOM     21  O4  AM3 d           0.408  -0.041  11.763  0.00  0.00    -0.391 OA
ATOM     22  H1  AM3 d           0.357  -0.988  11.816  0.00  0.00     0.210 HD
ENDBRANCH   1  21
BRANCH   6  23
ATOM     23  O2  AM3 d           4.251   0.186  14.048  0.00  0.00    -0.389 OA
ATOM     24  H9  AM3 d           4.433  -0.746  14.053  0.00  0.00     0.210 HD
ENDBRANCH   6  23
BRANCH   5  25
ATOM     25  O3  AM3 d           2.907  -1.558  12.186  0.00  0.00    -0.390 OA
ATOM     26  H7  AM3 d           3.648  -1.824  12.718  0.00  0.00     0.210 HD
ENDBRANCH   5  25
TORSDOF 11
