REMARK  9 active torsions:
REMARK  status: ('A' for Active; 'I' for Inactive)
REMARK    1  A    between atoms: C4_5  and  N4_6 
REMARK    2  A    between atoms: C5_7  and  C35_9 
REMARK    3  A    between atoms: C35_9  and  N3_10 
REMARK    4  A    between atoms: C5_13  and  C5A_16 
REMARK    5  A    between atoms: C5A_16  and  C5B_17 
REMARK    6  A    between atoms: C5B_17  and  O5G_18 
REMARK    7  A    between atoms: O5G_18  and  P1_19 
REMARK    8  A    between atoms: P1_19  and  O11_20 
REMARK    9  A    between atoms: O11_20  and  P2_23 
ROOT
ATOM      1  N3  TDP d          75.581   1.870   7.097  0.00  0.00    -0.349 N 
ATOM      2  C2  TDP d          75.555   3.162   6.548  0.00  0.00     0.141 A 
ATOM      3  S1  TDP d          73.920   3.561   6.077  0.00  0.00    -0.087 SA
ATOM      4  C5  TDP d          73.319   1.995   6.618  0.00  0.00     0.008 A 
ATOM      5  C4  TDP d          74.265   1.169   7.136  0.00  0.00     0.021 A 
ATOM      6  C4A TDP d          74.072  -0.254   7.684  0.00  0.00     0.069 C 
ENDROOT
BRANCH   1   7
ATOM      7  C35 TDP d          76.825   1.269   7.609  0.00  0.00     0.172 C 
BRANCH   7   8
ATOM      8  C5  TDP d          76.943   1.463   9.123  0.00  0.00     0.023 A 
ATOM      9  C4  TDP d          77.181   2.752   9.742  0.00  0.00     0.132 A 
ATOM     10  N3  TDP d          77.291   2.940  11.082  0.00  0.00    -0.216 NA
ATOM     11  C2  TDP d          77.164   1.841  11.870  0.00  0.00     0.124 A 
ATOM     12  N1  TDP d          76.934   0.602  11.374  0.00  0.00    -0.245 NA
ATOM     13  C2A TDP d          77.273   1.958  13.381  0.00  0.00     0.093 C 
ATOM     14  C6  TDP d          76.825   0.406  10.047  0.00  0.00     0.131 A 
BRANCH   9  15
ATOM     15  N4  TDP d          77.315   3.887   8.996  0.00  0.00    -0.383 N 
ATOM     16  H4  TDP d          77.246   3.840   7.969  0.00  0.00     0.157 HD
ATOM     17  H5  TDP d          77.485   4.791   9.460  0.00  0.00     0.157 HD
ENDBRANCH   9  15
ENDBRANCH   7   8
ENDBRANCH   1   7
BRANCH   4  18
ATOM     18  C5A TDP d          71.823   1.796   6.442  0.00  0.00     0.075 C 
BRANCH  18  19
ATOM     19  C5B TDP d          71.020   2.763   7.387  0.00  0.00     0.186 C 
BRANCH  19  20
ATOM     20  O5G TDP d          69.620   2.605   7.098  0.00  0.00    -0.289 OA
BRANCH  20  21
ATOM     21  P1  TDP d          68.599   3.647   7.656  0.00  0.00     0.418 P 
ATOM     22  O12 TDP d          68.933   4.040   9.028  0.00  0.00    -0.624 OA
ATOM     23  O13 TDP d          67.219   3.042   7.568  0.00  0.00    -0.624 OA
BRANCH  21  24
ATOM     24  O11 TDP d          68.674   4.916   6.700  0.00  0.00    -0.173 OA
BRANCH  24  25
ATOM     25  P2  TDP d          68.417   5.079   5.117  0.00  0.00     0.431 P 
ATOM     26  O21 TDP d          67.978   6.549   4.948  0.00  0.00    -0.616 OA
ATOM     27  O22 TDP d          69.735   4.836   4.496  0.00  0.00    -0.616 OA
ATOM     28  O23 TDP d          67.378   4.123   4.664  0.00  0.00    -0.616 OA
ENDBRANCH  24  25
ENDBRANCH  21  24
ENDBRANCH  20  21
ENDBRANCH  19  20
ENDBRANCH  18  19
ENDBRANCH   4  18
TORSDOF 9
