REMARK  5 active torsions:
REMARK  status: ('A' for Active; 'I' for Inactive)
REMARK    1  A    between atoms: C2_2  and  C9_3 
REMARK    2  A    between atoms: C9_3  and  S1_15 
REMARK    3  A    between atoms: C8_6  and  N2_7 
REMARK    4  A    between atoms: C6_13  and  N4_14 
REMARK    5  A    between atoms: S1_15  and  C10_16 
ROOT
ATOM      1  C1  AIQ d          17.303  17.287  18.586  0.00  0.00     0.039 A 
ATOM      2  C2  AIQ d          16.256  17.076  19.509  0.00  0.00    -0.016 A 
ATOM      3  C3  AIQ d          16.532  17.243  20.884  0.00  0.00     0.098 A 
ATOM      4  N3  AIQ d          15.560  17.061  21.820  0.00  0.00    -0.064 NA
ATOM      5  C8  AIQ d          15.744  17.195  23.086  0.00  0.00     0.701 A 
ATOM      6  N1  AIQ d          16.930  17.532  23.592  0.00  0.00    -0.154 N 
ATOM      7  C7  AIQ d          17.984  17.752  22.823  0.00  0.00     0.272 A 
ATOM      8  O1  AIQ d          19.079  18.062  23.277  0.00  0.00    -0.267 OA
ATOM      9  C4  AIQ d          17.825  17.609  21.318  0.00  0.00     0.065 A 
ATOM     10  C5  AIQ d          18.860  17.814  20.386  0.00  0.00     0.048 A 
ATOM     11  C6  AIQ d          18.598  17.656  19.009  0.00  0.00     0.027 A 
ATOM     12  H6  AIQ d          17.026  17.621  24.583  0.00  0.00     0.187 HD
ENDROOT
BRANCH   2  13
ATOM     13  C9  AIQ d          14.819  16.667  19.099  0.00  0.00     0.123 C 
BRANCH  13  14
ATOM     14  S1  AIQ d          14.639  14.963  18.420  0.00  0.00    -0.087 SA
BRANCH  14  15
ATOM     15  C10 AIQ d          14.547  15.438  16.696  0.00  0.00     0.166 A 
ATOM     16  N6  AIQ d          13.751  15.038  15.804  0.00  0.00    -0.344 N 
ATOM     17  C12 AIQ d          13.974  15.644  14.532  0.00  0.00     0.109 A 
ATOM     18  H10 AIQ d          13.012  14.342  15.977  0.00  0.00     0.167 HD
ATOM     19  C11 AIQ d          15.003  16.436  14.849  0.00  0.00     0.136 A 
ATOM     20  N5  AIQ d          15.368  16.340  16.128  0.00  0.00    -0.236 NA
ENDBRANCH  14  15
ENDBRANCH  13  14
ENDBRANCH   2  13
BRANCH  11  21
ATOM     21  N4  AIQ d          19.582  17.853  18.099  0.00  0.00    -0.399 N 
ATOM     22  H8  AIQ d          19.386  17.736  17.095  0.00  0.00     0.156 HD
ATOM     23  H9  AIQ d          20.527  18.119  18.411  0.00  0.00     0.156 HD
ENDBRANCH  11  21
BRANCH   5  24
ATOM     24  N2  AIQ d          14.742  16.999  23.905  0.00  0.00    -0.233 N 
ATOM     25  H4  AIQ d          13.817  16.738  23.534  0.00  0.00     0.174 HD
ATOM     26  H5  AIQ d          14.878  17.106  24.920  0.00  0.00     0.174 HD
ENDBRANCH   5  24
TORSDOF 5
