REMARK  15 active torsions:
REMARK  status: ('A' for Active; 'I' for Inactive)
REMARK    1  A    between atoms: C2_1  and  O39_38 
REMARK    2  A    between atoms: S8_7  and  C5_4 
REMARK    3  A    between atoms: N11_10  and  S8_7 
REMARK    4  A    between atoms: N11_10  and  C12_11 
REMARK    5  A    between atoms: C16_15  and  N11_10 
REMARK    6  A    between atoms: C12_11  and  C13_12 
REMARK    7  A    between atoms: C17_16  and  C16_15 
REMARK    8  A    between atoms: C17_16  and  O18_17 
REMARK    9  A    between atoms: C19_18  and  C17_16 
REMARK   10  A    between atoms: C19_18  and  N20_19 
REMARK   11  A    between atoms: C32_31  and  C19_18 
REMARK       I    between atoms: N20_19  and  C21_20 
REMARK   12  A    between atoms: C21_20  and  O23_22 
REMARK   13  A    between atoms: O23_22  and  C24_23 
REMARK   14  A    between atoms: C30_29  and  O41_40 
REMARK   15  A    between atoms: C38_37  and  C32_31 
ROOT
ATOM      1  C19 MOL d          15.059  22.994  16.927  0.00  0.00     0.121 C 
ENDROOT
BRANCH   1   2
ATOM      2  C17 MOL d          15.448  24.082  17.926  0.00  0.00     0.160 C 
BRANCH   2   3
ATOM      3  C16 MOL d          16.542  25.017  17.399  0.00  0.00     0.169 C 
BRANCH   3   4
ATOM      4  N11 MOL d          17.814  24.311  17.370  0.00  0.00    -0.304 N 
BRANCH   4   5
ATOM      5  S8  MOL d          18.524  24.065  15.891  0.00  0.00     0.260 S 
ATOM      6  O9  MOL d          17.448  24.007  14.884  0.00  0.00    -0.200 OA
ATOM      7  O10 MOL d          19.451  22.913  16.077  0.00  0.00    -0.200 OA
BRANCH   5   8
ATOM      8  C5  MOL d          19.517  25.480  15.518  0.00  0.00     0.079 A 
ATOM      9  C4  MOL d          18.932  26.607  14.966  0.00  0.00     0.028 A 
ATOM     10  C3  MOL d          19.707  27.745  14.664  0.00  0.00     0.038 A 
ATOM     11  C2  MOL d          21.087  27.732  14.924  0.00  0.00     0.068 A 
ATOM     12  C7  MOL d          21.682  26.581  15.484  0.00  0.00     0.038 A 
ATOM     13  C6  MOL d          20.885  25.456  15.779  0.00  0.00     0.028 A 
BRANCH  11  14
ATOM     14  O39 MOL d          21.773  28.869  14.604  0.00  0.00    -0.356 OA
ATOM     15  C40 MOL d          23.106  28.844  15.058  0.00  0.00     0.210 C 
ENDBRANCH  11  14
ENDBRANCH   5   8
ENDBRANCH   4   5
BRANCH   4  16
ATOM     16  C12 MOL d          18.698  24.617  18.474  0.00  0.00     0.139 C 
BRANCH  16  17
ATOM     17  C13 MOL d          18.380  23.862  19.775  0.00  0.00    -0.004 C 
ATOM     18  C14 MOL d          18.468  22.339  19.607  0.00  0.00     0.011 C 
ATOM     19  C15 MOL d          19.368  24.286  20.884  0.00  0.00     0.011 C 
ENDBRANCH  16  17
ENDBRANCH   4  16
ENDBRANCH   3   4
ENDBRANCH   2   3
BRANCH   2  20
ATOM     20  O18 MOL d          14.274  24.840  18.262  0.00  0.00    -0.392 OA
ATOM     21  H17 MOL d          13.956  25.289  17.488  0.00  0.00     0.210 HD
ENDBRANCH   2  20
ENDBRANCH   1   2
BRANCH   1  22
ATOM     22  N20 MOL d          14.189  22.000  17.561  0.00  0.00    -0.329 N 
ATOM     23  C21 MOL d          14.458  20.703  17.702  0.00  0.00     0.361 C 
ATOM     24  O22 MOL d          15.571  20.194  17.496  0.00  0.00    -0.238 OA
ATOM     25  H19 MOL d          13.314  22.325  17.920  0.00  0.00     0.165 HD
BRANCH  23  26
ATOM     26  O23 MOL d          13.367  19.968  18.073  0.00  0.00    -0.298 OA
BRANCH  26  27
ATOM     27  C24 MOL d          13.630  18.577  18.279  0.00  0.00     0.147 C 
ATOM     28  C25 MOL d          13.869  18.407  19.782  0.00  0.00     0.059 C 
ATOM     29  C44 MOL d          12.605  18.750  20.546  0.00  0.00     0.173 C 
ATOM     30  O26 MOL d          11.429  18.013  20.188  0.00  0.00    -0.361 OA
ATOM     31  C27 MOL d          11.190  17.978  18.780  0.00  0.00     0.268 C 
ATOM     32  O28 MOL d          10.625  19.231  18.384  0.00  0.00    -0.358 OA
ATOM     33  C31 MOL d          12.378  17.792  17.876  0.00  0.00     0.102 C 
ATOM     34  C29 MOL d          10.852  19.423  16.984  0.00  0.00     0.203 C 
ATOM     35  C30 MOL d          11.805  18.312  16.529  0.00  0.00     0.156 C 
BRANCH  35  36
ATOM     36  O41 MOL d          10.972  17.270  15.970  0.00  0.00    -0.388 OA
ATOM     37  C42 MOL d          10.760  17.468  14.571  0.00  0.00     0.202 C 
ENDBRANCH  35  36
ENDBRANCH  26  27
ENDBRANCH  23  26
ENDBRANCH   1  22
BRANCH   1  38
ATOM     38  C32 MOL d          14.336  23.556  15.680  0.00  0.00     0.066 C 
BRANCH  38  39
ATOM     39  C38 MOL d          14.084  22.386  14.702  0.00  0.00    -0.056 C 
ATOM     40  C33 MOL d          12.786  21.914  14.571  0.00  0.00     0.007 C 
ATOM     41  C34 MOL d          12.499  20.852  13.736  0.00  0.00     0.001 C 
ATOM     42  C35 MOL d          13.522  20.156  13.071  0.00  0.00     0.000 C 
ATOM     43  C36 MOL d          14.797  20.679  13.134  0.00  0.00     0.001 C 
ATOM     44  C37 MOL d          15.094  21.779  13.981  0.00  0.00     0.007 C 
ENDBRANCH  38  39
ENDBRANCH   1  38
TORSDOF 15
