REMARK  3 active torsions:
REMARK  status: ('A' for Active; 'I' for Inactive)
REMARK    1  A    between atoms: CAP_6  and  NAL_7 
REMARK    2  A    between atoms: NAL_7  and  CAN_8 
REMARK    3  A    between atoms: CAO_13  and  CAM_14 
ROOT
ATOM      1  CAN MOL d          41.555   2.920  92.413  0.00  0.00     0.045 A 
ATOM      2  CAE MOL d          42.864   3.170  92.024  0.00  0.00     0.030 A 
ATOM      3  CAC MOL d          43.589   4.118  92.680  0.00  0.00     0.002 A 
ATOM      4  CAD MOL d          43.042   4.816  93.729  0.00  0.00     0.001 A 
ATOM      5  CAF MOL d          41.720   4.610  94.117  0.00  0.00     0.021 A 
ATOM      6  CAO MOL d          40.956   3.627  93.468  0.00  0.00     0.067 A 
ENDROOT
BRANCH   1   7
ATOM      7  NAL MOL d          40.863   1.965  91.676  0.00  0.00    -0.384 N 
ATOM      8  H12 MOL d          39.981   2.212  91.205  0.00  0.00     0.160 HD
BRANCH   7   9
ATOM      9  CAP MOL d          41.420   0.553  91.572  0.00  0.00     0.081 C 
ATOM     10  CAJ MOL d          41.784   0.065  92.867  0.00  0.00     0.025 C 
ATOM     11  CAH MOL d          42.250  -1.375  92.786  0.00  0.00     0.002 C 
ATOM     12  CAG MOL d          41.100  -2.278  92.279  0.00  0.00     0.000 C 
ATOM     13  CAI MOL d          40.500  -1.831  91.018  0.00  0.00     0.002 C 
ATOM     14  CAK MOL d          40.217  -0.318  91.004  0.00  0.00     0.025 C 
ENDBRANCH   7   9
ENDBRANCH   1   7
BRANCH   6  15
ATOM     15  CAM MOL d          39.521   3.371  93.869  0.00  0.00     0.211 C 
ATOM     16  OAB MOL d          39.153   3.862  94.927  0.00  0.00    -0.644 OA
ATOM     17  OAA MOL d          38.787   2.753  93.123  0.00  0.00    -0.644 OA
ENDBRANCH   6  15
TORSDOF 3
