REMARK WARNING: 32 MAX_TORS EXCEEDED!!!
REMARK  41 active torsions:
REMARK  status: ('A' for Active; 'I' for Inactive)
REMARK    1  A    between atoms: CBZ_2  and  CBH_4 
REMARK    2  A    between atoms: CBH_4  and  CBJ_5 
REMARK    3  A    between atoms: CBJ_5  and  CCI_6 
REMARK    4  A    between atoms: CCI_6  and  CCB_7 
REMARK    5  A    between atoms: CCI_6  and  NBQ_10 
REMARK       I    between atoms: NBQ_10  and  CCC_11 
REMARK       I    between atoms: CCC_11  and  N_13 
REMARK    6  A    between atoms: N_13  and  CA_14 
REMARK    7  A    between atoms: CA_14  and  C_15 
REMARK    8  A    between atoms: CA_14  and  CB_18 
REMARK    9  A    between atoms: CB_18  and  CAP_19 
REMARK   10  A    between atoms: CAP_19  and  CAQ_20 
REMARK   11  A    between atoms: CAQ_20  and  CBK_21 
REMARK   12  A    between atoms: CBK_21  and  NCJ_22 
REMARK   13  A    between atoms: CCD_26  and  CBL_27 
REMARK   14  A    between atoms: CBL_27  and  OBY_28 
REMARK   15  A    between atoms: OBY_28  and  CBG_29 
REMARK   16  A    between atoms: CBG_29  and  CBF_30 
REMARK   17  A    between atoms: CBF_30  and  OBX_31 
REMARK   18  A    between atoms: OBX_31  and  CBE_32 
REMARK   19  A    between atoms: CBE_32  and  CBD_33 
REMARK   20  A    between atoms: CBD_33  and  OBW_34 
REMARK   21  A    between atoms: OBW_34  and  CBC_35 
REMARK   22  A    between atoms: CBC_35  and  CBB_36 
REMARK   23  A    between atoms: CBB_36  and  OBV_37 
REMARK   24  A    between atoms: OBV_37  and  CBA_38 
REMARK   25  A    between atoms: CBA_38  and  CAZ_39 
REMARK   26  A    between atoms: CAZ_39  and  OBU_40 
REMARK   27  A    between atoms: OBU_40  and  CAY_41 
REMARK   28  A    between atoms: CAY_41  and  CAX_42 
REMARK   29  A    between atoms: CAX_42  and  OBT_43 
REMARK   30  A    between atoms: OBT_43  and  CAW_44 
REMARK   31  A    between atoms: CAW_44  and  CAV_45 
REMARK   32  A    between atoms: CAV_45  and  OBS_46 
REMARK   33  A    between atoms: OBS_46  and  CAU_47 
REMARK   34  A    between atoms: CAU_47  and  CAT_48 
REMARK   35  A    between atoms: CAT_48  and  OBR_49 
REMARK   36  A    between atoms: OBR_49  and  CAS_50 
REMARK   37  A    between atoms: CAS_50  and  CAR_51 
REMARK   38  A    between atoms: CAR_51  and  NBO_52 
REMARK   39  A    between atoms: NBO_52  and  CCF_53 
REMARK   40  A    between atoms: CCE_56  and  NCK_57 
REMARK   41  A    between atoms: CCG_61  and  NCL_62 
ROOT
ATOM      1  CBE AR8 d          26.550  53.995  42.586  0.00  0.00     0.193 C 
ENDROOT
BRANCH   1   2
ATOM      2  OBX AR8 d          25.228  53.598  42.170  0.00  0.00    -0.387 OA
BRANCH   2   3
ATOM      3  CBF AR8 d          25.206  52.212  41.745  0.00  0.00     0.193 C 
BRANCH   3   4
ATOM      4  CBG AR8 d          25.578  52.045  40.258  0.00  0.00     0.194 C 
BRANCH   4   5
ATOM      5  OBY AR8 d          24.867  50.966  39.618  0.00  0.00    -0.383 OA
BRANCH   5   6
ATOM      6  CBL AR8 d          25.716  49.814  39.340  0.00  0.00     0.230 C 
BRANCH   6   7
ATOM      7  CCD AR8 d          25.318  48.497  39.636  0.00  0.00     0.099 A 
ATOM      8  CAO AR8 d          24.910  48.049  40.820  0.00  0.00     0.145 A 
ATOM      9  NCJ AR8 d          24.664  46.758  40.582  0.00  0.00    -0.261 N 
ATOM     10  NBN AR8 d          24.900  46.470  39.396  0.00  0.00    -0.066 NA
ATOM     11  NBM AR8 d          25.298  47.473  38.776  0.00  0.00    -0.133 NA
BRANCH   9  12
ATOM     12  CBK AR8 d          24.176  45.786  41.586  0.00  0.00     0.152 C 
BRANCH  12  13
ATOM     13  CAQ AR8 d          22.753  46.160  41.981  0.00  0.00     0.022 C 
BRANCH  13  14
ATOM     14  CAP AR8 d          22.214  45.345  43.167  0.00  0.00     0.004 C 
BRANCH  14  15
ATOM     15  CB  AR8 d          20.727  45.688  43.189  0.00  0.00     0.036 C 
BRANCH  15  16
ATOM     16  CA  AR8 d          19.854  44.955  44.215  0.00  0.00     0.187 C 
BRANCH  16  17
ATOM     17  N   AR8 d          18.517  45.304  43.758  0.00  0.00    -0.329 N 
ATOM     18  CCC AR8 d          17.867  44.547  42.873  0.00  0.00     0.317 C 
ATOM     19  NBQ AR8 d          16.605  44.927  42.562  0.00  0.00    -0.329 N 
ATOM     20  OAD AR8 d          18.303  43.472  42.423  0.00  0.00    -0.247 OA
ATOM     21  H6  AR8 d          16.125  45.613  43.109  0.00  0.00     0.165 HD
ATOM     22  H7  AR8 d          18.077  46.128  44.115  0.00  0.00     0.165 HD
BRANCH  19  23
ATOM     23  CCI AR8 d          15.953  44.298  41.387  0.00  0.00     0.187 C 
BRANCH  23  24
ATOM     24  CBJ AR8 d          14.613  45.004  41.028  0.00  0.00     0.046 C 
BRANCH  24  25
ATOM     25  CBH AR8 d          14.864  46.516  40.821  0.00  0.00     0.116 C 
BRANCH  25  26
ATOM     26  CBZ AR8 d          13.710  47.318  40.182  0.00  0.00     0.172 C 
ATOM     27  OAA AR8 d          13.678  48.555  40.432  0.00  0.00    -0.648 OA
ATOM     28  OAG AR8 d          12.916  46.711  39.431  0.00  0.00    -0.648 OA
ENDBRANCH  25  26
ENDBRANCH  24  25
ENDBRANCH  23  24
BRANCH  23  29
ATOM     29  CCB AR8 d          16.926  44.480  40.182  0.00  0.00     0.196 C 
ATOM     30  OAI AR8 d          16.829  43.682  39.220  0.00  0.00    -0.646 OA
ATOM     31  OAC AR8 d          17.831  45.360  40.218  0.00  0.00    -0.646 OA
ENDBRANCH  23  29
ENDBRANCH  19  23
ENDBRANCH  16  17
BRANCH  16  32
ATOM     32  C   AR8 d          20.047  45.607  45.587  0.00  0.00     0.196 C 
ATOM     33  OXT AR8 d          20.641  44.910  46.445  0.00  0.00    -0.646 OA
ATOM     34  O   AR8 d          19.511  46.723  45.786  0.00  0.00    -0.646 OA
ENDBRANCH  16  32
ENDBRANCH  15  16
ENDBRANCH  14  15
ENDBRANCH  13  14
ENDBRANCH  12  13
ENDBRANCH   9  12
ENDBRANCH   6   7
ENDBRANCH   5   6
ENDBRANCH   4   5
ENDBRANCH   3   4
ENDBRANCH   2   3
ENDBRANCH   1   2
BRANCH   1  35
ATOM     35  CBD AR8 d          27.029  55.217  41.803  0.00  0.00     0.193 C 
BRANCH  35  36
ATOM     36  OBW AR8 d          27.994  55.920  42.618  0.00  0.00    -0.387 OA
BRANCH  36  37
ATOM     37  CBC AR8 d          29.180  56.243  41.827  0.00  0.00     0.193 C 
BRANCH  37  38
ATOM     38  CBB AR8 d          29.521  57.751  41.971  0.00  0.00     0.193 C 
BRANCH  38  39
ATOM     39  OBV AR8 d          29.951  57.994  43.355  0.00  0.00    -0.387 OA
BRANCH  39  40
ATOM     40  CBA AR8 d          29.390  59.277  43.813  0.00  0.00     0.193 C 
BRANCH  40  41
ATOM     41  CAZ AR8 d          28.359  59.104  44.982  0.00  0.00     0.193 C 
BRANCH  41  42
ATOM     42  OBU AR8 d          27.284  58.219  44.591  0.00  0.00    -0.387 OA
BRANCH  42  43
ATOM     43  CAY AR8 d          26.109  58.957  44.075  0.00  0.00     0.193 C 
BRANCH  43  44
ATOM     44  CAX AR8 d          25.212  58.039  43.225  0.00  0.00     0.193 C 
BRANCH  44  45
ATOM     45  OBT AR8 d          23.938  57.571  43.879  0.00  0.00    -0.387 OA
BRANCH  45  46
ATOM     46  CAW AR8 d          24.186  56.921  45.131  0.00  0.00     0.193 C 
BRANCH  46  47
ATOM     47  CAV AR8 d          23.062  55.948  45.440  0.00  0.00     0.193 C 
BRANCH  47  48
ATOM     48  OBS AR8 d          23.375  54.523  45.466  0.00  0.00    -0.387 OA
BRANCH  48  49
ATOM     49  CAU AR8 d          24.776  54.209  45.455  0.00  0.00     0.193 C 
BRANCH  49  50
ATOM     50  CAT AR8 d          25.180  53.310  46.601  0.00  0.00     0.193 C 
BRANCH  50  51
ATOM     51  OBR AR8 d          26.554  52.936  46.410  0.00  0.00    -0.387 OA
BRANCH  51  52
ATOM     52  CAS AR8 d          27.319  53.418  47.526  0.00  0.00     0.187 C 
BRANCH  52  53
ATOM     53  CAR AR8 d          28.657  54.045  47.114  0.00  0.00     0.146 C 
BRANCH  53  54
ATOM     54  NBO AR8 d          29.673  53.621  48.095  0.00  0.00    -0.386 N 
ATOM     55  H52 AR8 d          29.334  53.219  48.981  0.00  0.00     0.159 HD
BRANCH  54  56
ATOM     56  CCF AR8 d          31.001  53.714  47.932  0.00  0.00     0.061 A 
ATOM     57  CAM AR8 d          31.548  54.588  46.986  0.00  0.00     0.034 A 
ATOM     58  CAL AR8 d          32.932  54.683  46.842  0.00  0.00     0.038 A 
ATOM     59  CCE AR8 d          33.784  53.915  47.641  0.00  0.00     0.105 A 
ATOM     60  CAN AR8 d          33.231  53.048  48.589  0.00  0.00     0.074 A 
ATOM     61  CCG AR8 d          31.847  52.937  48.744  0.00  0.00     0.131 A 
BRANCH  59  62
ATOM     62  NCK AR8 d          35.120  54.002  47.496  0.00  0.00    -0.116 N 
ATOM     63  OAJ AR8 d          35.697  54.866  46.507  0.00  0.00    -0.532 OA
ATOM     64  OAE AR8 d          36.012  53.220  48.308  0.00  0.00    -0.532 OA
ENDBRANCH  59  62
BRANCH  61  65
ATOM     65  NCL AR8 d          31.357  52.088  49.666  0.00  0.00    -0.113 N 
ATOM     66  OAK AR8 d          29.968  51.838  49.776  0.00  0.00    -0.532 OA
ATOM     67  OAF AR8 d          32.220  51.411  50.555  0.00  0.00    -0.532 OA
ENDBRANCH  61  65
ENDBRANCH  54  56
ENDBRANCH  53  54
ENDBRANCH  52  53
ENDBRANCH  51  52
ENDBRANCH  50  51
ENDBRANCH  49  50
ENDBRANCH  48  49
ENDBRANCH  47  48
ENDBRANCH  46  47
ENDBRANCH  45  46
ENDBRANCH  44  45
ENDBRANCH  43  44
ENDBRANCH  42  43
ENDBRANCH  41  42
ENDBRANCH  40  41
ENDBRANCH  39  40
ENDBRANCH  38  39
ENDBRANCH  37  38
ENDBRANCH  36  37
ENDBRANCH  35  36
ENDBRANCH   1  35
TORSDOF 41
