REMARK  12 active torsions:
REMARK  status: ('A' for Active; 'I' for Inactive)
REMARK    1  A    between atoms: C6_2  and  O6_1 
REMARK    2  A    between atoms: C5_3  and  C6_2 
REMARK    3  A    between atoms: C10_4  and  C9_16 
REMARK    4  A    between atoms: C11_19  and  C10_4 
REMARK    5  A    between atoms: C4_6  and  O4_7 
REMARK    6  A    between atoms: C3_8  and  O3_9 
REMARK    7  A    between atoms: C2_10  and  O2_11 
REMARK    8  A    between atoms: O1_13  and  C1_12 
REMARK    9  A    between atoms: C7_14  and  O1_13 
REMARK   10  A    between atoms: C8_15  and  C7_14 
REMARK   11  A    between atoms: C9_16  and  C8_15 
REMARK   12  A    between atoms: C12_18  and  C11_19 
ROOT
ATOM      1  C5  KGM d          20.785  -6.060   7.015  0.00  0.00     0.179 C 
ATOM      2  O5  KGM d          19.613  -5.222   7.133  0.00  0.00    -0.348 OA
ATOM      3  C4  KGM d          20.494  -7.177   6.063  0.00  0.00     0.180 C 
ATOM      4  C3  KGM d          19.321  -7.982   6.599  0.00  0.00     0.183 C 
ATOM      5  C2  KGM d          18.094  -7.076   6.734  0.00  0.00     0.204 C 
ATOM      6  C1  KGM d          18.428  -5.924   7.633  0.00  0.00     0.291 C 
ENDROOT
BRANCH   6   7
ATOM      7  O1  KGM d          18.760  -6.433   8.936  0.00  0.00    -0.359 OA
BRANCH   7   8
ATOM      8  C7  KGM d          19.029  -5.432   9.933  0.00  0.00     0.171 C 
BRANCH   8   9
ATOM      9  C8  KGM d          19.445  -6.185  11.203  0.00  0.00     0.026 C 
BRANCH   9  10
ATOM     10  C9  KGM d          19.764  -5.174  12.292  0.00  0.00     0.002 C 
BRANCH  10  11
ATOM     11  C10 KGM d          20.199  -5.890  13.566  0.00  0.00     0.000 C 
BRANCH  11  12
ATOM     12  C11 KGM d          20.522  -4.842  14.640  0.00  0.00    -0.000 C 
BRANCH  12  13
ATOM     13  C12 KGM d          20.973  -5.557  15.915  0.00  0.00    -0.005 C 
ATOM     14  C13 KGM d          21.302  -4.561  17.032  0.00  0.00     0.005 C 
ENDBRANCH  12  13
ENDBRANCH  11  12
ENDBRANCH  10  11
ENDBRANCH   9  10
ENDBRANCH   8   9
ENDBRANCH   7   8
ENDBRANCH   6   7
BRANCH   5  15
ATOM     15  O2  KGM d          17.770  -6.558   5.473  0.00  0.00    -0.388 OA
ATOM     16  H   KGM d          17.577  -7.273   4.878  0.00  0.00     0.210 HD
ENDBRANCH   5  15
BRANCH   1  17
ATOM     17  C6  KGM d          21.948  -5.202   6.506  0.00  0.00     0.198 C 
BRANCH  17  18
ATOM     18  O6  KGM d          21.588  -4.646   5.217  0.00  0.00    -0.398 OA
ATOM     19  H   KGM d          22.304  -4.112   4.893  0.00  0.00     0.209 HD
ENDBRANCH  17  18
ENDBRANCH   1  17
BRANCH   4  20
ATOM     20  O3  KGM d          19.033  -9.015   5.652  0.00  0.00    -0.390 OA
ATOM     21  H   KGM d          18.301  -9.534   5.964  0.00  0.00     0.210 HD
ENDBRANCH   4  20
BRANCH   3  22
ATOM     22  O4  KGM d          21.673  -8.043   5.998  0.00  0.00    -0.390 OA
ATOM     23  H   KGM d          22.418  -7.539   5.692  0.00  0.00     0.210 HD
ENDBRANCH   3  22
TORSDOF 12
