REMARK  3 active torsions:
REMARK  status: ('A' for Active; 'I' for Inactive)
REMARK    1  A    between atoms: C1_1  and  N1_2 
REMARK    2  A    between atoms: C2_4  and  C1_1 
REMARK    3  A    between atoms: C4_8  and  C5_9 
ROOT
ATOM      1  S1  SW1 d           1.145 -14.509  14.547  0.00  0.00    -0.079 SA
ATOM      2  C2  SW1 d           1.680 -15.130  16.977  0.00  0.00     0.067 A 
ATOM      3  N2  SW1 d           2.250 -13.907  16.675  0.00  0.00    -0.243 NA
ATOM      4  C3  SW1 d           1.055 -15.577  15.852  0.00  0.00     0.080 A 
ATOM      5  C4  SW1 d           2.050 -13.435  15.487  0.00  0.00     0.115 A 
ENDROOT
BRANCH   2   6
ATOM      6  C1  SW1 d           1.811 -15.981  18.240  0.00  0.00     0.289 C 
BRANCH   6   7
ATOM      7  N1  SW1 d           3.120 -15.603  18.892  0.00  0.00    -0.074 N 
ATOM      8  H3  SW1 d           3.245 -16.145  19.733  0.00  0.00     0.274 HD
ATOM      9  H4  SW1 d           3.110 -14.622  19.123  0.00  0.00     0.274 HD
ATOM     10  H5  SW1 d           3.879 -15.790  18.256  0.00  0.00     0.274 HD
ENDBRANCH   6   7
ENDBRANCH   2   6
BRANCH   5  11
ATOM     11  C5  SW1 d           2.605 -12.141  15.051  0.00  0.00     0.040 A 
ATOM     12  S2  SW1 d           3.942 -11.281  15.779  0.00  0.00    -0.099 SA
ATOM     13  C8  SW1 d           3.816  -9.932  14.728  0.00  0.00     0.050 A 
ATOM     14  C7  SW1 d           2.807 -10.140  13.848  0.00  0.00     0.008 A 
ATOM     15  C6  SW1 d           2.116 -11.386  14.013  0.00  0.00     0.022 A 
ENDBRANCH   5  11
TORSDOF 3
