REMARK  11 active torsions:
REMARK  status: ('A' for Active; 'I' for Inactive)
REMARK    1  A    between atoms: P_2  and  O3P_5 
REMARK    2  A    between atoms: O3P_5  and  C1_6 
REMARK    3  A    between atoms: C1_6  and  C2_7 
REMARK    4  A    between atoms: C2_7  and  O2_8 
REMARK    5  A    between atoms: C2_7  and  C3_9 
REMARK    6  A    between atoms: C3_9  and  O3_10 
REMARK    7  A    between atoms: O3_10  and  C4_11 
REMARK    8  A    between atoms: C4_11  and  C5_13 
REMARK    9  A    between atoms: C5_13  and  C6_14 
REMARK   10  A    between atoms: C6_14  and  C7_15 
REMARK   11  A    between atoms: C7_15  and  C8_16 
ROOT
ATOM      1  C2  HHG d           6.759  25.207  30.238  0.00  0.00     0.166 C 
ENDROOT
BRANCH   1   2
ATOM      2  C1  HHG d           6.140  25.070  31.627  0.00  0.00     0.216 C 
BRANCH   2   3
ATOM      3  O3P HHG d           4.745  24.813  31.500  0.00  0.00    -0.280 OA
BRANCH   3   4
ATOM      4  P   HHG d           3.787  24.671  32.800  0.00  0.00     0.422 P 
ATOM      5  O2P HHG d           4.087  23.301  33.365  0.00  0.00    -0.617 OA
ATOM      6  O4P HHG d           4.163  25.798  33.734  0.00  0.00    -0.617 OA
ATOM      7  O1P HHG d           2.351  24.816  32.331  0.00  0.00    -0.617 OA
ENDBRANCH   3   4
ENDBRANCH   2   3
ENDBRANCH   1   2
BRANCH   1   8
ATOM      8  O2  HHG d           5.891  25.995  29.396  0.00  0.00    -0.391 OA
ATOM      9  H4  HHG d           5.046  25.566  29.325  0.00  0.00     0.210 HD
ENDBRANCH   1   8
BRANCH   1  10
ATOM     10  C3  HHG d           8.126  25.869  30.388  0.00  0.00     0.212 C 
BRANCH  10  11
ATOM     11  O3  HHG d           8.740  26.007  29.104  0.00  0.00    -0.319 OA
BRANCH  11  12
ATOM     12  C4  HHG d          10.061  25.464  28.794  0.00  0.00     0.258 C 
ATOM     13  O1  HHG d          10.704  24.851  29.651  0.00  0.00    -0.265 OA
BRANCH  12  14
ATOM     14  C5  HHG d          10.596  25.688  27.391  0.00  0.00     0.111 C 
BRANCH  14  15
ATOM     15  C6  HHG d          11.978  25.079  27.180  0.00  0.00     0.010 C 
BRANCH  15  16
ATOM     16  C7  HHG d          13.031  26.175  27.153  0.00  0.00     0.000 C 
BRANCH  16  17
ATOM     17  C8  HHG d          14.092  25.887  26.102  0.00  0.00    -0.005 C 
ATOM     18  C9  HHG d          15.376  25.296  26.647  0.00  0.00     0.005 C 
ENDBRANCH  16  17
ENDBRANCH  15  16
ENDBRANCH  14  15
ENDBRANCH  12  14
ENDBRANCH  11  12
ENDBRANCH  10  11
ENDBRANCH   1  10
TORSDOF 11
