REMARK  8 active torsions:
REMARK  status: ('A' for Active; 'I' for Inactive)
REMARK    1  A    between atoms: O3_1  and  C25_2 
REMARK    2  A    between atoms: C25_2  and  C24_5 
REMARK    3  A    between atoms: C24_5  and  C23_6 
REMARK    4  A    between atoms: C23_6  and  C22_7 
REMARK    5  A    between atoms: C22_7  and  C20_8 
REMARK    6  A    between atoms: C7_20  and  C6_21 
REMARK    7  A    between atoms: C1_24  and  O1_25 
REMARK    8  A    between atoms: C3_27  and  O2_28 
ROOT
ATOM      1  C20 VD4 d          62.290   1.145  -6.736  0.00  0.00    -0.081 C 
ATOM      2  C21 VD4 d          61.561  -0.103  -7.151  0.00  0.00     0.043 C 
ATOM      3  C17 VD4 d          61.605   2.055  -5.973  0.00  0.00    -0.069 C 
ATOM      4  C13 VD4 d          62.081   3.384  -5.416  0.00  0.00    -0.013 C 
ATOM      5  C18 VD4 d          62.979   3.133  -4.173  0.00  0.00     0.021 C 
ATOM      6  C12 VD4 d          62.752   4.378  -6.379  0.00  0.00     0.015 C 
ATOM      7  C11 VD4 d          62.901   5.798  -5.740  0.00  0.00     0.005 C 
ATOM      8  C9  VD4 d          61.556   6.318  -5.195  0.00  0.00     0.034 C 
ATOM      9  C16 VD4 d          60.173   1.758  -5.527  0.00  0.00     0.036 C 
ATOM     10  C15 VD4 d          59.829   2.821  -4.470  0.00  0.00     0.014 C 
ATOM     11  C14 VD4 d          60.680   3.933  -5.093  0.00  0.00     0.027 C 
ATOM     12  C8  VD4 d          60.906   5.225  -4.341  0.00  0.00    -0.075 C 
ATOM     13  C7  VD4 d          60.634   5.370  -3.016  0.00  0.00     0.003 C 
ENDROOT
BRANCH  13  14
ATOM     14  C6  VD4 d          60.857   6.634  -2.250  0.00  0.00     0.003 C 
ATOM     15  C5  VD4 d          61.185   6.715  -0.931  0.00  0.00    -0.074 C 
ATOM     16  C10 VD4 d          61.414   5.471  -0.063  0.00  0.00     0.070 C 
ATOM     17  C4  VD4 d          61.362   8.074  -0.273  0.00  0.00     0.070 C 
ATOM     18  C1  VD4 d          60.739   5.608   1.316  0.00  0.00     0.152 C 
ATOM     19  C2  VD4 d          61.143   6.902   1.936  0.00  0.00    -0.032 C 
ATOM     20  C3  VD4 d          60.752   8.116   1.138  0.00  0.00     0.152 C 
ATOM     21  C28 VD4 d          61.769   7.041   3.093  0.00  0.00     0.019 C 
BRANCH  18  22
ATOM     22  O1  VD4 d          61.080   4.499   2.193  0.00  0.00    -0.391 OA
ATOM     23  H36 VD4 d          60.648   4.615   3.031  0.00  0.00     0.210 HD
ENDBRANCH  18  22
BRANCH  20  24
ATOM     24  O2  VD4 d          59.312   8.158   1.058  0.00  0.00    -0.391 OA
ATOM     25  H40 VD4 d          58.948   8.184   1.935  0.00  0.00     0.210 HD
ENDBRANCH  20  24
ENDBRANCH  13  14
BRANCH   1  26
ATOM     26  C22 VD4 d          63.735   1.292  -7.199  0.00  0.00     0.034 C 
BRANCH  26  27
ATOM     27  C23 VD4 d          64.527   0.053  -6.721  0.00  0.00     0.007 C 
BRANCH  27  28
ATOM     28  C24 VD4 d          66.045   0.071  -7.008  0.00  0.00     0.037 C 
BRANCH  28  29
ATOM     29  C25 VD4 d          66.739  -1.269  -6.736  0.00  0.00     0.051 C 
ATOM     30  C26 VD4 d          68.170  -1.249  -7.255  0.00  0.00     0.045 C 
ATOM     31  C27 VD4 d          66.717  -1.654  -5.252  0.00  0.00     0.045 C 
BRANCH  29  32
ATOM     32  O3  VD4 d          66.078  -2.252  -7.503  0.00  0.00    -0.391 OA
ATOM     33  H1  VD4 d          65.172  -2.313  -7.224  0.00  0.00     0.210 HD
ENDBRANCH  29  32
ENDBRANCH  28  29
ENDBRANCH  27  28
ENDBRANCH  26  27
ENDBRANCH   1  26
TORSDOF 8
