REMARK  7 active torsions:
REMARK  status: ('A' for Active; 'I' for Inactive)
REMARK    1  A    between atoms: CAK_3  and  CBD_4 
REMARK    2  A    between atoms: NAG_17  and  CAO_18 
REMARK    3  A    between atoms: CAO_18  and  CAP_19 
REMARK       I    between atoms: CAP_19  and  N_21 
REMARK    4  A    between atoms: N_21  and  CA_22 
REMARK    5  A    between atoms: CA_22  and  C_23 
REMARK    6  A    between atoms: CA_22  and  CB_26 
REMARK    7  A    between atoms: CB_26  and  CG_27 
ROOT
ATOM      1  CAM MOL d          10.933  -5.197  -8.998  0.00  0.00     0.042 C 
ATOM      2  CAL MOL d          11.465  -6.563  -8.638  0.00  0.00     0.020 C 
ATOM      3  CAK MOL d          11.983  -7.264  -9.868  0.00  0.00     0.093 C 
ATOM      4  CAJ MOL d          10.842  -7.534 -10.804  0.00  0.00     0.073 C 
ATOM      5  CAH MOL d           9.929  -6.435 -10.830  0.00  0.00     0.020 A 
ATOM      6  CAI MOL d           9.961  -5.355 -10.013  0.00  0.00    -0.023 A 
ATOM      7  CAE MOL d           8.940  -4.534 -10.361  0.00  0.00     0.000 A 
ATOM      8  CAF MOL d           8.511  -3.348  -9.865  0.00  0.00     0.033 A 
ATOM      9  CAA MOL d           7.405  -2.694 -10.421  0.00  0.00     0.011 A 
ATOM     10 BR   MOL d           6.720  -1.059  -9.791  0.00  0.00    -0.051 Br
ATOM     11  CAB MOL d           6.750  -3.293 -11.489  0.00  0.00     0.021 A 
ATOM     12  CAC MOL d           7.215  -4.512 -11.963  0.00  0.00     0.032 A 
ATOM     13  CAD MOL d           8.290  -5.101 -11.398  0.00  0.00     0.046 A 
ATOM     14  NAG MOL d           8.898  -6.254 -11.669  0.00  0.00    -0.340 N 
ENDROOT
BRANCH  14  15
ATOM     15  CAO MOL d           8.502  -7.200 -12.751  0.00  0.00     0.231 C 
BRANCH  15  16
ATOM     16  CAP MOL d           7.497  -8.287 -12.293  0.00  0.00     0.236 C 
ATOM     17  OAQ MOL d           7.278  -9.240 -13.031  0.00  0.00    -0.272 OA
ATOM     18  N   MOL d           6.865  -8.157 -11.109  0.00  0.00    -0.345 N 
ATOM     19  H13 MOL d           7.052  -7.364 -10.529  0.00  0.00     0.163 HD
BRANCH  18  20
ATOM     20  CA  MOL d           5.895  -9.185 -10.664  0.00  0.00     0.189 C 
BRANCH  20  21
ATOM     21  C   MOL d           6.276  -9.777  -9.294  0.00  0.00     0.197 C 
ATOM     22  OXT MOL d           7.240  -9.276  -8.676  0.00  0.00    -0.646 OA
ATOM     23  O   MOL d           5.571 -10.723  -8.887  0.00  0.00    -0.646 OA
ENDBRANCH  20  21
BRANCH  20  24
ATOM     24  CB  MOL d           4.493  -8.566 -10.578  0.00  0.00     0.074 C 
BRANCH  24  25
ATOM     25  CG  MOL d           4.185  -8.207 -11.905  0.00  0.00    -0.056 A 
ATOM     26  CD1 MOL d           3.690  -9.178 -12.781  0.00  0.00     0.007 A 
ATOM     27  CE1 MOL d           3.392  -8.851 -14.103  0.00  0.00     0.001 A 
ATOM     28  CZ  MOL d           3.582  -7.548 -14.560  0.00  0.00     0.000 A 
ATOM     29  CE2 MOL d           4.078  -6.578 -13.695  0.00  0.00     0.001 A 
ATOM     30  CD2 MOL d           4.378  -6.900 -12.364  0.00  0.00     0.007 A 
ENDBRANCH  24  25
ENDBRANCH  20  24
ENDBRANCH  18  20
ENDBRANCH  15  16
ENDBRANCH  14  15
BRANCH   3  31
ATOM     31  CBD MOL d          12.733  -8.578  -9.465  0.00  0.00     0.177 C 
ATOM     32  OBF MOL d          13.917  -8.436  -9.084  0.00  0.00    -0.648 OA
ATOM     33  OBE MOL d          12.151  -9.693  -9.557  0.00  0.00    -0.648 OA
ENDBRANCH   3  31
TORSDOF 7
