REMARK  4 active torsions:
REMARK  status: ('A' for Active; 'I' for Inactive)
REMARK    1  A    between atoms: C14_10  and  C18_11 
REMARK    2  A    between atoms: C24_14  and  N27_15 
REMARK    3  A    between atoms: C17_23  and  C31_24 
REMARK    4  A    between atoms: C17_23  and  O3_27 
ROOT
ATOM      1  C31 MOL d          10.717   5.796  12.084  0.00  0.00    -0.068 C 
ATOM      2  C30 MOL d          10.942   6.857  12.516  0.00  0.00    -0.108 C 
ATOM      3  C32 MOL d          11.249   8.166  13.115  0.00  0.00     0.112 C 
ENDROOT
BRANCH   1   4
ATOM      4  C17 MOL d          10.503   4.432  11.566  0.00  0.00     0.128 C 
ATOM      5  C12 MOL d          10.489   4.330  10.031  0.00  0.00     0.004 C 
ATOM      6  C13 MOL d           9.735   5.405   9.275  0.00  0.00     0.027 C 
ATOM      7  C19 MOL d          10.006   2.941   9.591  0.00  0.00     0.020 C 
ATOM      8  C11 MOL d          11.990   4.541   9.722  0.00  0.00     0.006 C 
ATOM      9  C14 MOL d           9.951   5.298   7.736  0.00  0.00     0.049 C 
ATOM     10  C10 MOL d          11.425   5.062   7.341  0.00  0.00    -0.060 C 
ATOM     11  C5  MOL d          11.904   5.575   6.181  0.00  0.00    -0.048 C 
ATOM     12  C9  MOL d          12.319   4.257   8.255  0.00  0.00     0.021 C 
ATOM     13  C4  MOL d          13.327   5.418   5.794  0.00  0.00    -0.048 C 
ATOM     14  C6  MOL d          10.990   6.402   5.297  0.00  0.00     0.047 C 
ATOM     15  C3  MOL d          13.851   6.029   4.712  0.00  0.00     0.057 C 
ATOM     16  C7  MOL d          14.240   4.548   6.619  0.00  0.00     0.040 C 
ATOM     17  C2  MOL d          13.050   6.768   3.826  0.00  0.00     0.150 C 
ATOM     18  O30 MOL d          13.570   7.399   2.928  0.00  0.00    -0.293 OA
ATOM     19  C1  MOL d          11.559   6.840   3.951  0.00  0.00     0.087 C 
ATOM     20  C8  MOL d          13.788   4.582   8.074  0.00  0.00     0.014 C 
ATOM     21  C15 MOL d          12.658   3.596  10.730  0.00  0.00     0.010 C 
ATOM     22  C16 MOL d          11.721   3.576  11.963  0.00  0.00     0.052 C 
BRANCH   9  23
ATOM     23  C18 MOL d           8.996   4.308   7.047  0.00  0.00    -0.050 A 
ATOM     24  C22 MOL d           9.415   3.337   6.140  0.00  0.00     0.010 A 
ATOM     25  C23 MOL d           8.502   2.492   5.514  0.00  0.00     0.030 A 
ATOM     26  C24 MOL d           7.133   2.581   5.776  0.00  0.00     0.029 A 
ATOM     27  C25 MOL d           6.705   3.556   6.666  0.00  0.00     0.030 A 
ATOM     28  C26 MOL d           7.630   4.405   7.277  0.00  0.00     0.010 A 
BRANCH  26  29
ATOM     29  N27 MOL d           6.208   1.733   5.135  0.00  0.00    -0.390 N 
ATOM     30  C29 MOL d           6.576   0.434   4.563  0.00  0.00     0.149 C 
ATOM     31  C28 MOL d           4.906   2.284   4.737  0.00  0.00     0.149 C 
ENDBRANCH  26  29
ENDBRANCH   9  23
BRANCH   4  32
ATOM     32  O3  MOL d           9.338   3.899  12.163  0.00  0.00    -0.377 OA
ATOM     33  H27 MOL d           9.190   3.019  11.836  0.00  0.00     0.211 HD
ENDBRANCH   4  32
ENDBRANCH   1   4
TORSDOF 4
