REMARK  1 active torsions:
REMARK  status: ('A' for Active; 'I' for Inactive)
REMARK    1  A    between atoms: C2_3  and  C1_5 
ROOT
ATOM      1  C4  MOL d          -0.622  19.056  22.485  0.00  0.00     0.009 C 
ATOM      2  C3  MOL d           0.078  18.656  23.760  0.00  0.00     0.052 C 
ATOM      3  C2  MOL d           1.163  17.870  23.629  0.00  0.00     0.227 C 
ATOM      4  O3  MOL d           1.542  17.483  22.443  0.00  0.00    -0.213 OA
ENDROOT
BRANCH   3   5
ATOM      5  C1  MOL d           1.943  17.426  24.767  0.00  0.00     0.216 C 
ATOM      6  O1  MOL d           1.326  16.942  25.727  0.00  0.00    -0.646 OA
ATOM      7  O2  MOL d           3.195  17.534  24.707  0.00  0.00    -0.646 OA
ENDBRANCH   3   5
TORSDOF 1
