REMARK  10 active torsions:
REMARK  status: ('A' for Active; 'I' for Inactive)
REMARK    1  A    between atoms: O3B_5  and  PG_1 
REMARK    2  A    between atoms: PB_6  and  O3B_5 
REMARK    3  A    between atoms: O3A_9  and  PB_6 
REMARK    4  A    between atoms: PA_10  and  O3A_9 
REMARK    5  A    between atoms: O5'_25  and  PA_10 
REMARK    6  A    between atoms: C1'_32  and  N9_13 
REMARK    7  A    between atoms: C2_20  and  N2_21 
REMARK    8  A    between atoms: C5'_26  and  O5'_25 
REMARK    9  A    between atoms: C4'_27  and  C5'_26 
REMARK   10  A    between atoms: C3'_29  and  O3'_30 
ROOT
ATOM      1  C4' MOL d         -27.991 -19.009   5.835  0.00  0.00     0.177 C 
ATOM      2  O4' MOL d         -26.764 -19.705   6.207  0.00  0.00    -0.356 OA
ATOM      3  C3' MOL d         -27.513 -17.711   5.143  0.00  0.00     0.153 C 
ATOM      4  C2' MOL d         -26.014 -17.798   5.202  0.00  0.00     0.088 C 
ATOM      5  C1' MOL d         -25.849 -18.654   6.406  0.00  0.00     0.237 C 
ENDROOT
BRANCH   5   6
ATOM      6  N9  MOL d         -24.497 -19.176   6.624  0.00  0.00    -0.252 N 
ATOM      7  C8  MOL d         -23.683 -19.861   5.742  0.00  0.00     0.353 A 
ATOM      8  N7  MOL d         -22.515 -20.165   6.259  0.00  0.00    -0.184 NA
ATOM      9  O8  MOL d         -24.076 -20.124   4.599  0.00  0.00    -0.244 OA
ATOM     10  C5  MOL d         -22.572 -19.650   7.556  0.00  0.00     0.177 A 
ATOM     11  C6  MOL d         -21.612 -19.651   8.610  0.00  0.00     0.292 A 
ATOM     12  C4  MOL d         -23.791 -19.053   7.774  0.00  0.00     0.190 A 
ATOM     13  O6  MOL d         -20.470 -20.113   8.632  0.00  0.00    -0.265 OA
ATOM     14  N1  MOL d         -22.103 -19.017   9.766  0.00  0.00    -0.152 N 
ATOM     15  C2  MOL d         -23.363 -18.455   9.867  0.00  0.00     0.703 A 
ATOM     16  H1  MOL d         -21.503 -18.970  10.565  0.00  0.00     0.187 HD
ATOM     17  N3  MOL d         -24.245 -18.443   8.895  0.00  0.00    -0.044 NA
BRANCH  15  18
ATOM     18  N2  MOL d         -23.664 -17.896  11.049  0.00  0.00    -0.233 N 
ATOM     19  H2  MOL d         -24.586 -17.459  11.192  0.00  0.00     0.174 HD
ATOM     20  H3  MOL d         -22.973 -17.904  11.813  0.00  0.00     0.174 HD
ENDBRANCH  15  18
ENDBRANCH   5   6
BRANCH   1  21
ATOM     21  C5' MOL d         -28.922 -19.853   5.004  0.00  0.00     0.216 C 
BRANCH  21  22
ATOM     22  O5' MOL d         -30.136 -19.112   4.809  0.00  0.00    -0.287 OA
BRANCH  22  23
ATOM     23  PA  MOL d         -31.481 -19.774   4.277  0.00  0.00     0.417 P 
ATOM     24  O1A MOL d         -31.744 -21.095   4.921  0.00  0.00    -0.624 OA
ATOM     25  O2A MOL d         -32.618 -18.813   4.301  0.00  0.00    -0.624 OA
BRANCH  23  26
ATOM     26  O3A MOL d         -31.095 -20.048   2.732  0.00  0.00    -0.180 OA
BRANCH  26  27
ATOM     27  PB  MOL d         -30.864 -19.147   1.449  0.00  0.00     0.428 P 
ATOM     28  O1B MOL d         -29.839 -19.786   0.602  0.00  0.00    -0.624 OA
ATOM     29  O2B MOL d         -32.136 -18.921   0.737  0.00  0.00    -0.624 OA
BRANCH  27  30
ATOM     30  O3B MOL d         -30.305 -17.752   2.043  0.00  0.00    -0.173 OA
BRANCH  30  31
ATOM     31  PG  MOL d         -29.492 -16.582   1.305  0.00  0.00     0.431 P 
ATOM     32  O1G MOL d         -30.013 -16.457  -0.094  0.00  0.00    -0.616 OA
ATOM     33  O2G MOL d         -29.700 -15.336   2.117  0.00  0.00    -0.616 OA
ATOM     34  O3G MOL d         -28.002 -16.930   1.270  0.00  0.00    -0.616 OA
ENDBRANCH  30  31
ENDBRANCH  27  30
ENDBRANCH  26  27
ENDBRANCH  23  26
ENDBRANCH  22  23
ENDBRANCH  21  22
ENDBRANCH   1  21
BRANCH   3  35
ATOM     35  O3' MOL d         -28.030 -16.574   5.825  0.00  0.00    -0.393 OA
ATOM     36  H8  MOL d         -27.730 -15.783   5.392  0.00  0.00     0.210 HD
ENDBRANCH   3  35
TORSDOF 10
