REMARK  14 active torsions:
REMARK  status: ('A' for Active; 'I' for Inactive)
REMARK    1  A    between atoms: N4_1  and  C18_3 
REMARK    2  A    between atoms: C18_3  and  C14_4 
REMARK    3  A    between atoms: C17_7  and  C11_10 
REMARK    4  A    between atoms: C11_10  and  N3_11 
REMARK       I    between atoms: N3_11  and  C10_12 
REMARK    5  A    between atoms: C10_12  and  C8_14 
REMARK    6  A    between atoms: C8_14  and  N2_15 
REMARK       I    between atoms: N2_15  and  C7_16 
REMARK    7  A    between atoms: C7_16  and  C5_18 
REMARK    8  A    between atoms: C5_18  and  C6_19 
REMARK    9  A    between atoms: C5_18  and  N1_21 
REMARK   10  A    between atoms: C6_19  and  O3_20 
REMARK   11  A    between atoms: N1_21  and  S1_22 
REMARK   12  A    between atoms: S1_22  and  C1_25 
REMARK   13  A    between atoms: C1_25  and  C4_26 
REMARK   14  A    between atoms: C4_26  and  C3_27 
ROOT
ATOM      1  C8  SI1 d          29.205  10.370  31.381  0.00  0.00     0.172 C 
ATOM      2  C9  SI1 d          27.916  11.198  31.624  0.00  0.00     0.042 C 
ENDROOT
BRANCH   1   3
ATOM      3  C10 SI1 d          29.071   9.611  30.133  0.00  0.00     0.240 C 
ATOM      4  N3  SI1 d          28.781   8.335  30.159  0.00  0.00    -0.355 N 
ATOM      5  H11 SI1 d          28.694   7.885  31.048  0.00  0.00     0.162 HD
ATOM      6  O5  SI1 d          29.239  10.205  29.059  0.00  0.00    -0.271 OA
BRANCH   4   7
ATOM      7  C11 SI1 d          28.585   7.563  28.993  0.00  0.00     0.161 C 
BRANCH   7   8
ATOM      8  C17 SI1 d          29.768   6.721  28.681  0.00  0.00    -0.040 A 
ATOM      9  C12 SI1 d          30.972   7.302  28.242  0.00  0.00     0.010 A 
ATOM     10  C13 SI1 d          32.074   6.499  27.889  0.00  0.00     0.016 A 
ATOM     11  C14 SI1 d          32.049   5.094  28.062  0.00  0.00     0.007 A 
ATOM     12  C15 SI1 d          30.844   4.527  28.526  0.00  0.00     0.016 A 
ATOM     13  C16 SI1 d          29.717   5.321  28.817  0.00  0.00     0.010 A 
BRANCH  11  14
ATOM     14  C18 SI1 d          33.187   4.298  27.784  0.00  0.00     0.102 C 
ATOM     15  N5  SI1 d          33.177   2.953  27.899  0.00  0.00    -0.385 N 
ATOM     16  H3  SI1 d          32.318   2.468  28.193  0.00  0.00     0.157 HD
ATOM     17  H4  SI1 d          34.029   2.412  27.692  0.00  0.00     0.157 HD
BRANCH  14  18
ATOM     18  N4  SI1 d          34.395   4.770  27.388  0.00  0.00    -0.385 N 
ATOM     19  H1  SI1 d          34.536   5.782  27.262  0.00  0.00     0.157 HD
ATOM     20  H2  SI1 d          35.171   4.116  27.213  0.00  0.00     0.157 HD
ENDBRANCH  14  18
ENDBRANCH  11  14
ENDBRANCH   7   8
ENDBRANCH   4   7
ENDBRANCH   1   3
BRANCH   1  21
ATOM     21  N2  SI1 d          30.302  11.263  31.304  0.00  0.00    -0.346 N 
ATOM     22  C7  SI1 d          31.570  10.928  31.176  0.00  0.00     0.243 C 
ATOM     23  O4  SI1 d          31.875   9.734  31.079  0.00  0.00    -0.271 OA
ATOM     24  H13 SI1 d          30.095  12.240  31.351  0.00  0.00     0.163 HD
BRANCH  22  25
ATOM     25  C5  SI1 d          32.666  11.906  31.134  0.00  0.00     0.208 C 
BRANCH  25  26
ATOM     26  C6  SI1 d          33.401  12.104  32.490  0.00  0.00     0.199 C 
BRANCH  26  27
ATOM     27  O3  SI1 d          32.493  12.123  33.595  0.00  0.00    -0.398 OA
ATOM     28  H17 SI1 d          32.980  12.245  34.401  0.00  0.00     0.209 HD
ENDBRANCH  26  27
ENDBRANCH  25  26
BRANCH  25  29
ATOM     29  N1  SI1 d          33.798  11.560  30.238  0.00  0.00    -0.304 N 
ATOM     30  H18 SI1 d          34.561  11.001  30.562  0.00  0.00     0.173 HD
BRANCH  29  31
ATOM     31  S1  SI1 d          33.756  12.140  28.658  0.00  0.00     0.227 S 
ATOM     32  O2  SI1 d          33.365  13.638  28.602  0.00  0.00    -0.206 OA
ATOM     33  O1  SI1 d          35.184  11.850  28.111  0.00  0.00    -0.206 OA
BRANCH  31  34
ATOM     34  C1  SI1 d          32.615  11.143  27.770  0.00  0.00     0.163 C 
BRANCH  34  35
ATOM     35  C4  SI1 d          32.475  11.400  26.251  0.00  0.00     0.016 C 
BRANCH  35  36
ATOM     36  C3  SI1 d          31.457  10.393  25.652  0.00  0.00    -0.004 C 
ATOM     37  C2  SI1 d          31.343  10.600  24.121  0.00  0.00     0.005 C 
ENDBRANCH  35  36
ENDBRANCH  34  35
ENDBRANCH  31  34
ENDBRANCH  29  31
ENDBRANCH  25  29
ENDBRANCH  22  25
ENDBRANCH   1  21
TORSDOF 14
