REMARK  5 active torsions:
REMARK  status: ('A' for Active; 'I' for Inactive)
REMARK    1  A    between atoms: C2_4  and  N2_5 
REMARK    2  A    between atoms: N9_12  and  C1_13 
REMARK    3  A    between atoms: C3_16  and  O3_17 
REMARK    4  A    between atoms: C4_18  and  C5_19 
REMARK    5  A    between atoms: C5_19  and  O5_20 
ROOT
ATOM      1  O6  MOL d          -0.345  27.796   0.004  0.00  0.00    -0.265 OA
ATOM      2  C6  MOL d           0.521  28.301  -0.750  0.00  0.00     0.290 A 
ATOM      3  N1  MOL d           1.344  29.215  -0.230  0.00  0.00    -0.153 N 
ATOM      4  C2  MOL d           2.287  29.772  -0.991  0.00  0.00     0.703 A 
ATOM      5  N3  MOL d           2.471  29.477  -2.276  0.00  0.00    -0.044 NA
ATOM      6  C4  MOL d           1.667  28.563  -2.859  0.00  0.00     0.187 A 
ATOM      7  C5  MOL d           0.654  27.937  -2.104  0.00  0.00     0.153 A 
ATOM      8  N7  MOL d           0.008  27.075  -2.935  0.00  0.00    -0.300 N 
ATOM      9  C8  MOL d           0.635  27.219  -4.113  0.00  0.00     0.331 A 
ATOM     10  O20 MOL d           0.288  26.566  -5.164  0.00  0.00    -0.246 OA
ATOM     11  N9  MOL d           1.647  28.105  -4.110  0.00  0.00    -0.253 N 
ATOM     12  H1  MOL d           1.253  29.482   0.730  0.00  0.00     0.187 HD
ATOM     13  H4  MOL d          -0.759  26.472  -2.718  0.00  0.00     0.171 HD
ENDROOT
BRANCH  11  14
ATOM     14  C1  MOL d           2.544  28.502  -5.243  0.00  0.00     0.237 C 
ATOM     15  O4  MOL d           3.733  29.284  -4.976  0.00  0.00    -0.356 OA
ATOM     16  C4  MOL d           4.100  29.761  -6.281  0.00  0.00     0.176 C 
ATOM     17  C3  MOL d           2.782  30.211  -6.916  0.00  0.00     0.153 C 
ATOM     18  C2  MOL d           1.744  29.349  -6.227  0.00  0.00     0.088 C 
BRANCH  16  19
ATOM     19  C5  MOL d           5.185  30.818  -6.307  0.00  0.00     0.198 C 
BRANCH  19  20
ATOM     20  O5  MOL d           4.756  31.900  -7.152  0.00  0.00    -0.398 OA
ATOM     21  H13 MOL d           4.603  31.573  -8.031  0.00  0.00     0.209 HD
ENDBRANCH  19  20
ENDBRANCH  16  19
BRANCH  17  22
ATOM     22  O3  MOL d           2.675  29.882  -8.303  0.00  0.00    -0.393 OA
ATOM     23  H9  MOL d           3.305  30.392  -8.798  0.00  0.00     0.210 HD
ENDBRANCH  17  22
ENDBRANCH  11  14
BRANCH   4  24
ATOM     24  N2  MOL d           3.117  30.671  -0.513  0.00  0.00    -0.233 N 
ATOM     25  H2  MOL d           3.836  31.085  -1.124  0.00  0.00     0.174 HD
ATOM     26  H3  MOL d           3.049  30.962   0.473  0.00  0.00     0.174 HD
ENDBRANCH   4  24
TORSDOF 5
