REMARK  8 active torsions:
REMARK  status: ('A' for Active; 'I' for Inactive)
REMARK    1  A    between atoms: S1_2  and  N2_4 
REMARK    2  A    between atoms: S1_2  and  C3_13 
REMARK    3  A    between atoms: N2_4  and  C10_5 
REMARK    4  A    between atoms: N2_4  and  C8_10 
REMARK    5  A    between atoms: C10_5  and  C9_6 
REMARK       I    between atoms: C9_6  and  N1_8 
REMARK    6  A    between atoms: N1_8  and  O2_9 
REMARK    7  A    between atoms: C8_10  and  C6_11 
REMARK    8  A    between atoms: C6_11  and  O1_12 
ROOT
ATOM      1  N2  HS5 d         -13.128  -5.307 -20.862  0.00  0.00    -0.296 N 
ENDROOT
BRANCH   1   2
ATOM      2  S1  HS5 d         -13.152  -6.148 -19.566  0.00  0.00     0.261 S 
ATOM      3  O5  HS5 d         -12.889  -7.362 -20.295  0.00  0.00    -0.200 OA
ATOM      4  O4  HS5 d         -14.413  -5.765 -18.946  0.00  0.00    -0.200 OA
BRANCH   2   5
ATOM      5  C3  HS5 d         -11.946  -6.097 -18.482  0.00  0.00     0.079 A 
ATOM      6  C5  HS5 d         -12.122  -5.369 -17.296  0.00  0.00     0.028 A 
ATOM      7  C7  HS5 d         -11.112  -5.324 -16.332  0.00  0.00     0.044 A 
ATOM      8  C4  HS5 d          -9.913  -6.009 -16.530  0.00  0.00     0.116 A 
ATOM      9  F1  HS5 d          -8.937  -5.970 -15.600  0.00  0.00    -0.206 F 
ATOM     10  C2  HS5 d          -9.728  -6.741 -17.703  0.00  0.00     0.044 A 
ATOM     11  C1  HS5 d         -10.741  -6.786 -18.665  0.00  0.00     0.028 A 
ENDBRANCH   2   5
ENDBRANCH   1   2
BRANCH   1  12
ATOM     12  C10 HS5 d         -13.454  -3.877 -20.832  0.00  0.00     0.240 C 
BRANCH  12  13
ATOM     13  C9  HS5 d         -12.437  -2.986 -20.152  0.00  0.00     0.259 C 
ATOM     14  O3  HS5 d         -11.285  -2.867 -20.555  0.00  0.00    -0.270 OA
ATOM     15  N1  HS5 d         -12.867  -2.308 -19.094  0.00  0.00    -0.236 N 
ATOM     16  H3  HS5 d         -13.825  -2.342 -18.808  0.00  0.00     0.197 HD
BRANCH  15  17
ATOM     17  O2  HS5 d         -11.935  -1.551 -18.403  0.00  0.00    -0.287 OA
ATOM     18  H4  HS5 d         -11.562  -0.901 -18.986  0.00  0.00     0.244 HD
ENDBRANCH  15  17
ENDBRANCH  12  13
ENDBRANCH   1  12
BRANCH   1  19
ATOM     19  C8  HS5 d         -12.911  -5.941 -22.161  0.00  0.00     0.161 C 
BRANCH  19  20
ATOM     20  C6  HS5 d         -11.687  -6.299 -22.995  0.00  0.00     0.184 C 
BRANCH  20  21
ATOM     21  O1  HS5 d         -11.707  -7.723 -23.160  0.00  0.00    -0.399 OA
ATOM     22  H9  HS5 d         -11.671  -8.140 -22.307  0.00  0.00     0.209 HD
ENDBRANCH  20  21
ENDBRANCH  19  20
ENDBRANCH   1  19
TORSDOF 8
