REMARK  4 active torsions:
REMARK  status: ('A' for Active; 'I' for Inactive)
REMARK    1  A    between atoms: C1_1  and  C2_4 
REMARK    2  A    between atoms: C2_4  and  C3_6 
REMARK    3  A    between atoms: C3_6  and  C4_7 
REMARK    4  A    between atoms: C4_7  and  C5_8 
ROOT
ATOM      1  C2  AKG d          13.849  26.112  -4.899  0.00  0.00     0.225 C 
ATOM      2  O5  AKG d          13.197  26.910  -5.559  0.00  0.00    -0.286 OA
ENDROOT
BRANCH   1   3
ATOM      3  C1  AKG d          14.212  24.798  -5.466  0.00  0.00     0.246 C 
ATOM      4  O1  AKG d          13.639  24.369  -6.514  0.00  0.00    -0.642 OA
ATOM      5  O2  AKG d          15.090  24.121  -4.887  0.00  0.00    -0.642 OA
ENDBRANCH   1   3
BRANCH   1   6
ATOM      6  C3  AKG d          14.263  26.481  -3.484  0.00  0.00     0.101 C 
BRANCH   6   7
ATOM      7  C4  AKG d          13.277  27.500  -2.914  0.00  0.00     0.121 C 
BRANCH   7   8
ATOM      8  C5  AKG d          13.619  27.900  -1.497  0.00  0.00     0.172 C 
ATOM      9  O3  AKG d          14.411  27.200  -0.828  0.00  0.00    -0.648 OA
ATOM     10  O4  AKG d          13.082  28.931  -1.038  0.00  0.00    -0.648 OA
ENDBRANCH   7   8
ENDBRANCH   6   7
ENDBRANCH   1   6
TORSDOF 4
