REMARK  8 active torsions:
REMARK  status: ('A' for Active; 'I' for Inactive)
REMARK    1  A    between atoms: C6_3  and  S12_4 
REMARK    2  A    between atoms: S12_4  and  C13_5 
REMARK    3  A    between atoms: C13_5  and  C14_6 
REMARK    4  A    between atoms: C14_6  and  O15_7 
REMARK    5  A    between atoms: C4_10  and  N7_18 
REMARK    6  A    between atoms: C3_11  and  S8_12 
REMARK    7  A    between atoms: S8_12  and  N11_14 
REMARK    8  A    between atoms: N7_18  and  C19_19 
ROOT
ATOM      1  F18 V90 d          -2.827   3.243  12.821  0.00  0.00    -0.202 F 
ATOM      2  C5  V90 d          -3.702   3.276  13.813  0.00  0.00     0.164 C 
ATOM      3  C6  V90 d          -4.243   4.560  14.082  0.00  0.00     0.083 C 
ATOM      4  C1  V90 d          -5.034   4.606  15.287  0.00  0.00     0.176 C 
ATOM      5  F17 V90 d          -5.599   5.741  15.684  0.00  0.00    -0.201 F 
ATOM      6  C4  V90 d          -4.075   2.112  14.458  0.00  0.00     0.095 C 
ATOM      7  C3  V90 d          -4.974   2.189  15.556  0.00  0.00     0.150 C 
ATOM      8  C2  V90 d          -5.405   3.416  15.923  0.00  0.00     0.181 C 
ATOM      9  F16 V90 d          -6.232   3.587  16.973  0.00  0.00    -0.201 F 
ENDROOT
BRANCH   6  10
ATOM     10  N7  V90 d          -3.520   0.919  13.962  0.00  0.00    -0.381 N 
ATOM     11  H8  V90 d          -3.116   0.261  14.644  0.00  0.00     0.160 HD
BRANCH  10  12
ATOM     12  C19 V90 d          -3.475   0.552  12.579  0.00  0.00     0.082 C 
ATOM     13  C26 V90 d          -3.456  -0.996  12.554  0.00  0.00     0.025 C 
ATOM     14  C25 V90 d          -2.164  -1.368  11.862  0.00  0.00     0.002 C 
ATOM     15  C24 V90 d          -2.314  -1.357  10.304  0.00  0.00     0.000 C 
ATOM     16  C23 V90 d          -2.380   0.062   9.702  0.00  0.00     0.000 C 
ATOM     17  C22 V90 d          -3.856   0.462   9.376  0.00  0.00     0.000 C 
ATOM     18  C21 V90 d          -4.227   1.604  10.322  0.00  0.00     0.002 C 
ATOM     19  C20 V90 d          -4.621   1.155  11.755  0.00  0.00     0.025 C 
ENDBRANCH  10  12
ENDBRANCH   6  10
BRANCH   7  20
ATOM     20  S8  V90 d          -5.481   0.825  16.557  0.00  0.00     0.262 S 
ATOM     21  O10 V90 d          -6.930   0.852  16.468  0.00  0.00    -0.201 OA
ATOM     22  O9  V90 d          -4.916   1.067  17.884  0.00  0.00    -0.201 OA
BRANCH  20  23
ATOM     23  N11 V90 d          -4.923  -0.532  15.975  0.00  0.00    -0.324 N 
ATOM     24  H6  V90 d          -5.128  -1.395  16.436  0.00  0.00     0.169 HD
ATOM     25  H7  V90 d          -4.365  -0.528  15.145  0.00  0.00     0.169 HD
ENDBRANCH  20  23
ENDBRANCH   7  20
BRANCH   3  26
ATOM     26  S12 V90 d          -3.811   5.998  13.180  0.00  0.00    -0.121 SA
BRANCH  26  27
ATOM     27  C13 V90 d          -2.411   6.716  14.082  0.00  0.00     0.105 C 
BRANCH  27  28
ATOM     28  C14 V90 d          -1.181   5.941  13.721  0.00  0.00     0.174 C 
BRANCH  28  29
ATOM     29  O15 V90 d          -0.508   6.475  12.647  0.00  0.00    -0.400 OA
ATOM     30  H5  V90 d           0.260   5.947  12.462  0.00  0.00     0.209 HD
ENDBRANCH  28  29
ENDBRANCH  27  28
ENDBRANCH  26  27
ENDBRANCH   3  26
TORSDOF 8
