REMARK  21 active torsions:
REMARK  status: ('A' for Active; 'I' for Inactive)
REMARK    1  A    between atoms: N_1  and  C6_4 
REMARK       I    between atoms: C4_40  and  N_1 
REMARK    2  A    between atoms: C14_9  and  O_3 
REMARK    3  A    between atoms: O_3  and  C15_10 
REMARK    4  A    between atoms: C6_4  and  C8_5 
REMARK    5  A    between atoms: C6_4  and  C7_21 
REMARK    6  A    between atoms: C8_5  and  C9_6 
REMARK    7  A    between atoms: C15_10  and  P_11 
REMARK    8  A    between atoms: P_11  and  O3_12 
REMARK    9  A    between atoms: P_11  and  O1_16 
REMARK   10  A    between atoms: O3_12  and  C18_13 
REMARK   11  A    between atoms: O1_16  and  C16_17 
REMARK   12  A    between atoms: C7_21  and  O8_22 
REMARK   13  A    between atoms: C7_21  and  C20_23 
REMARK   14  A    between atoms: C20_23  and  N1_24 
REMARK   15  A    between atoms: N1_24  and  C21_25 
REMARK   16  A    between atoms: N1_24  and  S_29 
REMARK   17  A    between atoms: C21_25  and  C22_26 
REMARK   18  A    between atoms: S_29  and  C23_32 
REMARK   19  A    between atoms: C26_35  and  O5_36 
REMARK   20  A    between atoms: O6_42  and  C4_40 
REMARK   21  A    between atoms: O6_42  and  C5_43 
ROOT
ATOM      1  C6  KGQ d          14.551  22.918  17.351  0.00  0.00     0.120 C 
ENDROOT
BRANCH   1   2
ATOM      2  N   KGQ d          13.540  22.094  17.976  0.00  0.00    -0.329 N 
ATOM      3  C4  KGQ d          13.915  20.790  18.316  0.00  0.00     0.361 C 
ATOM      4  O7  KGQ d          15.020  20.289  18.125  0.00  0.00    -0.238 OA
ATOM      5  H1  KGQ d          12.619  22.439  18.156  0.00  0.00     0.165 HD
BRANCH   3   6
ATOM      6  O6  KGQ d          12.852  20.189  18.868  0.00  0.00    -0.296 OA
BRANCH   6   7
ATOM      7  C5  KGQ d          12.948  18.826  19.286  0.00  0.00     0.166 C 
ATOM      8  C   KGQ d          11.937  17.944  18.489  0.00  0.00     0.075 C 
ATOM      9  C32 KGQ d          10.663  18.069  19.388  0.00  0.00     0.266 C 
ATOM     10  C1  KGQ d          11.380  18.467  17.129  0.00  0.00     0.038 C 
ATOM     11  O4  KGQ d          10.935  18.890  20.520  0.00  0.00    -0.358 OA
ATOM     12  O11 KGQ d           9.567  18.606  18.622  0.00  0.00    -0.361 OA
ATOM     13  C3  KGQ d          12.331  18.689  20.689  0.00  0.00     0.204 C 
ATOM     14  C2  KGQ d          10.197  19.340  17.577  0.00  0.00     0.171 C 
ENDBRANCH   6   7
ENDBRANCH   3   6
ENDBRANCH   1   2
BRANCH   1  15
ATOM     15  C8  KGQ d          13.890  23.462  16.018  0.00  0.00     0.066 C 
BRANCH  15  16
ATOM     16  C9  KGQ d          13.424  22.328  15.136  0.00  0.00    -0.056 A 
ATOM     17  C11 KGQ d          14.320  21.619  14.329  0.00  0.00     0.010 A 
ATOM     18  C13 KGQ d          13.899  20.557  13.507  0.00  0.00     0.037 A 
ATOM     19  C14 KGQ d          12.528  20.163  13.467  0.00  0.00     0.069 A 
ATOM     20  C12 KGQ d          11.613  20.884  14.286  0.00  0.00     0.037 A 
ATOM     21  C10 KGQ d          12.069  21.944  15.097  0.00  0.00     0.010 A 
BRANCH  19  22
ATOM     22  O   KGQ d          12.109  19.113  12.655  0.00  0.00    -0.340 OA
BRANCH  22  23
ATOM     23  C15 KGQ d          11.918  17.828  13.272  0.00  0.00     0.307 C 
BRANCH  23  24
ATOM     24  P   KGQ d          11.402  16.616  12.095  0.00  0.00     0.352 P 
ATOM     25  O2  KGQ d          10.208  15.811  12.700  0.00  0.00    -0.256 OA
BRANCH  24  26
ATOM     26  O3  KGQ d          12.533  15.527  11.996  0.00  0.00    -0.313 OA
BRANCH  26  27
ATOM     27  C18 KGQ d          13.802  16.140  11.759  0.00  0.00     0.174 C 
ATOM     28  C19 KGQ d          14.900  15.058  11.656  0.00  0.00     0.034 C 
ENDBRANCH  26  27
ENDBRANCH  24  26
BRANCH  24  29
ATOM     29  O1  KGQ d          10.812  17.108  10.823  0.00  0.00    -0.313 OA
BRANCH  29  30
ATOM     30  C16 KGQ d          10.255  16.039  10.048  0.00  0.00     0.174 C 
ATOM     31  C17 KGQ d           9.564  16.625   8.798  0.00  0.00     0.034 C 
ENDBRANCH  29  30
ENDBRANCH  24  29
ENDBRANCH  23  24
ENDBRANCH  22  23
ENDBRANCH  19  22
ENDBRANCH  15  16
ENDBRANCH   1  15
BRANCH   1  32
ATOM     32  C7  KGQ d          14.997  24.071  18.283  0.00  0.00     0.155 C 
BRANCH  32  33
ATOM     33  O8  KGQ d          13.904  24.920  18.604  0.00  0.00    -0.392 OA
ATOM     34  H23 KGQ d          14.203  25.617  19.175  0.00  0.00     0.210 HD
ENDBRANCH  32  33
BRANCH  32  35
ATOM     35  C20 KGQ d          16.122  24.909  17.643  0.00  0.00     0.141 C 
BRANCH  35  36
ATOM     36  N1  KGQ d          17.397  24.183  17.646  0.00  0.00    -0.204 NA
BRANCH  36  37
ATOM     37  C21 KGQ d          18.304  25.006  18.472  0.00  0.00     0.111 C 
BRANCH  37  38
ATOM     38  C22 KGQ d          18.431  24.626  19.972  0.00  0.00    -0.009 C 
ATOM     39  C30 KGQ d          19.847  24.771  20.555  0.00  0.00     0.011 C 
ATOM     40  C29 KGQ d          17.849  23.247  20.304  0.00  0.00     0.011 C 
ENDBRANCH  37  38
ENDBRANCH  36  37
BRANCH  36  41
ATOM     41  S   KGQ d          17.945  24.186  16.068  0.00  0.00     0.243 S 
ATOM     42  O10 KGQ d          18.829  22.950  15.841  0.00  0.00    -0.206 OA
ATOM     43  O9  KGQ d          16.772  24.001  15.085  0.00  0.00    -0.206 OA
BRANCH  41  44
ATOM     44  C23 KGQ d          18.858  25.610  15.616  0.00  0.00     0.074 A 
ATOM     45  C28 KGQ d          20.202  25.746  15.818  0.00  0.00     0.027 A 
ATOM     46  C27 KGQ d          20.939  26.878  15.466  0.00  0.00     0.038 A 
ATOM     47  C26 KGQ d          20.334  27.902  14.901  0.00  0.00     0.068 A 
ATOM     48  C25 KGQ d          19.044  27.859  14.666  0.00  0.00     0.038 A 
ATOM     49  C24 KGQ d          18.311  26.713  15.024  0.00  0.00     0.027 A 
BRANCH  47  50
ATOM     50  O5  KGQ d          21.156  29.191  14.500  0.00  0.00    -0.356 OA
ATOM     51  C31 KGQ d          22.270  29.285  15.107  0.00  0.00     0.210 C 
ENDBRANCH  47  50
ENDBRANCH  41  44
ENDBRANCH  36  41
ENDBRANCH  35  36
ENDBRANCH  32  35
ENDBRANCH   1  32
TORSDOF 21
