REMARK  3 active torsions:
REMARK  status: ('A' for Active; 'I' for Inactive)
REMARK    1  A    between atoms: C1_1  and  C2_4 
REMARK    2  A    between atoms: C2_4  and  C3_5 
REMARK    3  A    between atoms: C3_5  and  S_7 
ROOT
ATOM      1  C2  SPV d          28.792  69.322  73.292  0.00  0.00     0.241 C 
ATOM      2  O2  SPV d          28.112  70.340  72.926  0.00  0.00    -0.285 OA
ENDROOT
BRANCH   1   3
ATOM      3  C1  SPV d          30.311  69.447  73.114  0.00  0.00     0.247 C 
ATOM      4  O2' SPV d          30.977  70.348  73.575  0.00  0.00    -0.642 OA
ATOM      5  O1  SPV d          30.824  68.479  72.432  0.00  0.00    -0.642 OA
ENDBRANCH   1   3
BRANCH   1   6
ATOM      6  C3  SPV d          28.066  68.287  73.779  0.00  0.00     0.255 C 
BRANCH   6   7
ATOM      7  S   SPV d          28.466  67.924  75.526  0.00  0.00     0.109 S 
ATOM      8  O3S SPV d          27.512  67.001  75.956  0.00  0.00    -0.595 OA
ATOM      9  O2S SPV d          29.823  67.478  75.504  0.00  0.00    -0.595 OA
ATOM     10  O1S SPV d          28.263  69.127  76.221  0.00  0.00    -0.595 OA
ENDBRANCH   6   7
ENDBRANCH   1   6
TORSDOF 3
