REMARK  15 active torsions:
REMARK  status: ('A' for Active; 'I' for Inactive)
REMARK    1  A    between atoms: C2_4  and  N1_2 
REMARK    2  A    between atoms: C3_7  and  C2_4 
REMARK       I    between atoms: N2_5  and  C3_7 
REMARK    3  A    between atoms: C4_10  and  N2_5 
REMARK       I    between atoms: N3_8  and  C8_19 
REMARK    4  A    between atoms: C9_21  and  N3_8 
REMARK    5  A    between atoms: C4_10  and  C5_13 
REMARK    6  A    between atoms: C6_15  and  C4_10 
REMARK    7  A    between atoms: C14_27  and  N4_11 
REMARK    8  A    between atoms: C7_17  and  C6_15 
REMARK    9  A    between atoms: C8_19  and  C7_17 
REMARK   10  A    between atoms: C9_21  and  C10_22 
REMARK   11  A    between atoms: C11_23  and  C9_21 
REMARK   12  A    between atoms: C12_24  and  C11_23 
REMARK   13  A    between atoms: C13_25  and  C12_24 
REMARK   14  A    between atoms: C14_27  and  C13_25 
REMARK   15  A    between atoms: C15_26  and  C14_27 
ROOT
ATOM      1  N3  MHI d          13.398  61.919  39.664  0.00  0.00    -0.347 N 
ATOM      2  O4  MHI d          15.056  60.890  40.757  0.00  0.00    -0.274 OA
ATOM      3  C8  MHI d          13.898  60.891  40.334  0.00  0.00     0.218 C 
ATOM      4  H9  MHI d          12.432  61.884  39.406  0.00  0.00     0.163 HD
ENDROOT
BRANCH   3   5
ATOM      5  C7  MHI d          12.974  59.692  40.523  0.00  0.00     0.105 C 
BRANCH   5   6
ATOM      6  C6  MHI d          12.563  59.578  41.990  0.00  0.00     0.045 C 
BRANCH   6   7
ATOM      7  C4  MHI d          11.587  58.429  42.215  0.00  0.00     0.186 C 
BRANCH   7   8
ATOM      8  N2  MHI d          12.099  57.149  41.745  0.00  0.00    -0.345 N 
ATOM      9  C3  MHI d          11.869  56.688  40.511  0.00  0.00     0.248 C 
ATOM     10  O1  MHI d          11.274  57.317  39.700  0.00  0.00    -0.271 OA
ATOM     11  H8  MHI d          12.645  56.592  42.371  0.00  0.00     0.163 HD
BRANCH   9  12
ATOM     12  C2  MHI d          12.423  55.343  40.110  0.00  0.00     0.270 C 
ATOM     13  C1  MHI d          13.901  55.497  39.603  0.00  0.00     0.050 C 
BRANCH  12  14
ATOM     14  N1  MHI d          11.666  54.765  39.026  0.00  0.00    -0.067 N 
ATOM     15  H4  MHI d          10.706  54.649  39.311  0.00  0.00     0.275 HD
ATOM     16  H5  MHI d          12.056  53.867  38.785  0.00  0.00     0.275 HD
ATOM     17  H6  MHI d          11.707  55.375  38.225  0.00  0.00     0.275 HD
ENDBRANCH  12  14
ENDBRANCH   9  12
ENDBRANCH   7   8
BRANCH   7  18
ATOM     18  C5  MHI d          11.313  58.353  43.685  0.00  0.00     0.196 C 
ATOM     19  O2  MHI d          11.791  57.367  44.416  0.00  0.00    -0.646 OA
ATOM     20  O3  MHI d          10.717  59.232  44.248  0.00  0.00    -0.646 OA
ENDBRANCH   7  18
ENDBRANCH   6   7
ENDBRANCH   5   6
ENDBRANCH   3   5
BRANCH   1  21
ATOM     21  C9  MHI d          14.155  63.082  39.284  0.00  0.00     0.185 C 
BRANCH  21  22
ATOM     22  C10 MHI d          13.744  64.270  40.151  0.00  0.00     0.196 C 
ATOM     23  O5  MHI d          14.494  65.349  40.232  0.00  0.00    -0.646 OA
ATOM     24  O6  MHI d          12.747  64.283  40.856  0.00  0.00    -0.646 OA
ENDBRANCH  21  22
BRANCH  21  25
ATOM     25  C11 MHI d          13.857  63.312  37.816  0.00  0.00     0.036 C 
BRANCH  25  26
ATOM     26  C12 MHI d          14.486  64.582  37.260  0.00  0.00     0.005 C 
BRANCH  26  27
ATOM     27  C13 MHI d          14.436  64.657  35.754  0.00  0.00     0.044 C 
BRANCH  27  28
ATOM     28  C14 MHI d          15.358  65.681  35.072  0.00  0.00     0.283 C 
BRANCH  28  29
ATOM     29  N4  MHI d          15.222  65.649  33.633  0.00  0.00    -0.065 N 
ATOM     30  H11 MHI d          15.474  64.734  33.292  0.00  0.00     0.275 HD
ATOM     31  H12 MHI d          15.830  66.340  33.222  0.00  0.00     0.275 HD
ATOM     32  H13 MHI d          14.267  65.850  33.381  0.00  0.00     0.275 HD
ENDBRANCH  28  29
BRANCH  28  33
ATOM     33  C15 MHI d          14.963  67.055  35.421  0.00  0.00     0.204 C 
ATOM     34  O7  MHI d          15.311  67.481  36.615  0.00  0.00    -0.646 OA
ATOM     35  O8  MHI d          14.328  67.771  34.627  0.00  0.00    -0.646 OA
ENDBRANCH  28  33
ENDBRANCH  27  28
ENDBRANCH  26  27
ENDBRANCH  25  26
ENDBRANCH  21  25
ENDBRANCH   1  21
TORSDOF 15
