REMARK  0 active torsions:
REMARK  status: ('A' for Active; 'I' for Inactive)
ROOT
ATOM      1  NAF MOL d          -0.443  34.500 -17.624  0.00  0.00    -0.258 N 
ATOM      2  CAH MOL d          -1.192  35.320 -16.865  0.00  0.00     0.082 A 
ATOM      3  CAC MOL d          -2.375  35.978 -17.089  0.00  0.00     0.033 A 
ATOM      4  CAA MOL d          -2.998  36.829 -16.217  0.00  0.00     0.002 A 
ATOM      5  CAB MOL d          -2.318  37.010 -15.009  0.00  0.00     0.003 A 
ATOM      6  CAD MOL d          -1.081  36.329 -14.706  0.00  0.00     0.036 A 
ATOM      7  CAI MOL d          -0.518  35.496 -15.670  0.00  0.00     0.108 A 
ATOM      8  NAG MOL d           0.578  34.751 -15.796  0.00  0.00    -0.130 NA
ATOM      9  NAE MOL d           0.581  34.230 -16.949  0.00  0.00    -0.067 NA
ATOM     10  H1  MOL d          -0.665  34.161 -18.571  0.00  0.00     0.191 HD
ENDROOT
TORSDOF 0
