REMARK  3 active torsions:
REMARK  status: ('A' for Active; 'I' for Inactive)
REMARK    1  A    between atoms: P_1  and  O1P_2 
REMARK    2  A    between atoms: O1P_2  and  C2_6 
REMARK    3  A    between atoms: C2_6  and  C1_7 
ROOT
ATOM      1  O1P PGA d          22.385   4.155   3.301  0.00  0.00    -0.272 OA
ENDROOT
BRANCH   1   2
ATOM      2  P   PGA d          21.304   3.083   3.854  0.00  0.00     0.422 P 
ATOM      3  O2P PGA d          20.235   3.895   4.570  0.00  0.00    -0.617 OA
ATOM      4  O3P PGA d          22.049   2.170   4.799  0.00  0.00    -0.617 OA
ATOM      5  O4P PGA d          20.598   2.394   2.694  0.00  0.00    -0.617 OA
ENDBRANCH   1   2
BRANCH   1   6
ATOM      6  C2  PGA d          21.954   5.202   2.465  0.00  0.00     0.295 C 
BRANCH   6   7
ATOM      7  C1  PGA d          22.905   5.342   1.303  0.00  0.00     0.198 C 
ATOM      8  O1  PGA d          22.842   6.393   0.638  0.00  0.00    -0.646 OA
ATOM      9  O2  PGA d          23.724   4.430   0.979  0.00  0.00    -0.646 OA
ENDBRANCH   6   7
ENDBRANCH   1   6
TORSDOF 3
