4yik_ligand

Created by X-TOOL on Sun Nov 13 14:28:50 2016
 49 52  0  0  0  0  0  0  0  0999 V2000
   -4.8530   22.7670   29.0410  C 0  0  0  2  0  3
   -4.6420   21.4780   28.6220  C 0  0  0  2  0  3
   -3.6970   20.7230   29.2960  C 0  0  0  2  0  3
   -2.9810   21.2270   30.3760  C 0  0  0  2  0  3
   -3.2070   22.5400   30.8090  C 0  0  0  2  0  3
   -4.1700   23.3030   30.1310  C 0  0  0  1  0  3
   -4.5190   24.7490   30.5300  C 0  0  0  1  0  4
   -5.8180   24.6920   31.8760  P 0  0  0  1  0  4
   -5.0310   24.1270   33.0990  O 0  0  0  1  0  1
   -6.4330   26.1470   32.0900  O 0  0  0  1  0  1
   -6.8710   23.6810   31.5610  O 0  0  0  1  0  1
   -4.9710   25.3550   29.3110  O 0  0  0  1  0  2
   -3.3590   25.4070   30.9660  O 0  0  0  1  0  2
   -3.4730   26.8550   31.0480  C 0  0  0  3  0  4
   -4.0730   27.4390   29.9090  C 0  0  0  2  0  4
   -3.0820   27.5930   28.8950  O 0  0  0  1  0  2
   -5.1720   26.7500   29.2800  C 0  0  0  2  0  4
   -5.0860   27.2570   27.8380  C 0  0  0  3  0  4
   -3.6180   27.8430   27.7310  C 0  0  0  2  0  4
   -2.8240   27.0890   26.7200  N 0  0  0  1  0  3
   -3.2200   25.7910   26.2030  C 0  0  0  2  0  3
   -1.7250   27.6550   26.2450  C 0  0  0  1  0  3
   -1.3770   28.7560   26.6650  O 0  0  0  1  0  1
   -1.0180   27.0960   25.2850  N 0  0  0  2  0  3
   -1.3570   25.8600   24.7690  C 0  0  0  1  0  3
   -0.6440   25.4400   23.8720  O 0  0  0  1  0  1
   -2.4630   25.1710   25.2140  C 0  0  0  1  0  3
   -2.7030   23.9100   24.5910  C 0  0  0  2  0  3
   -2.9770   22.7280   25.2270  C 0  0  0  2  0  3
   -3.1210   21.2030   24.4470  P 0  0  0  1  0  4
   -4.7110   20.7800   24.6450  O 0  0  0  1  0  1
   -2.8980   21.2980   22.8410  O 0  0  0  1  0  1
   -2.1970   20.1520   25.0290  O 0  0  0  1  0  1
   -5.5692   23.3843   28.5108  H 0  0  0  1  0  1
   -5.1979   21.0632   27.7889  H 0  0  0  1  0  1
   -3.5094   19.7060   28.9711  H 0  0  0  1  0  1
   -2.2502   20.6060   30.8814  H 0  0  0  1  0  1
   -2.6538   22.9547   31.6439  H 0  0  0  1  0  1
   -2.4642   27.2776   31.1653  H 0  0  0  1  0  1
   -4.0809   27.1070   31.9294  H 0  0  0  1  0  1
   -4.4388   28.4302   30.2152  H 0  0  0  1  0  1
   -6.1341   27.0054   29.7481  H 0  0  0  1  0  1
   -5.8353   28.0407   27.6527  H 0  0  0  1  0  1
   -5.2323   26.4335   27.1236  H 0  0  0  1  0  1
   -3.6299   28.9184   27.5002  H 0  0  0  1  0  1
   -4.1122   25.3015   26.5906  H 0  0  0  1  0  1
   -0.2193   27.5759   24.9220  H 0  0  0  1  0  1
   -2.6646   23.8847   23.5030  H 0  0  0  1  0  1
   -3.1137   22.7567   26.3070  H 0  0  0  1  0  1
  1  2  4  0  0  1
  1  6  4  0  0  1
  2  3  4  0  0  1
  3  4  4  0  0  1
  4  5  4  0  0  1
  5  6  4  0  0  1
  6  7  1  0  0  2
  7  8  1  0  0  2
  7 12  1  0  0  1
  7 13  1  0  0  1
  8  9  2  0  0  2
  8 10  2  0  0  2
  8 11  2  0  0  2
 12 17  1  0  0  1
 13 14  1  0  0  1
 14 15  1  0  0  1
 15 16  1  0  0  1
 15 17  1  0  0  1
 16 19  1  0  0  1
 17 18  1  0  0  1
 18 19  1  0  0  1
 19 20  1  0  0  2
 20 21  1  0  0  1
 20 22  1  0  0  1
 21 27  2  0  0  1
 22 23  2  0  0  2
 22 24  1  0  0  1
 24 25  1  0  0  1
 25 26  2  0  0  2
 25 27  1  0  0  1
 27 28  1  0  0  2
 28 29  2  0  0  2
 29 30  1  0  0  2
 30 31  2  0  0  2
 30 32  2  0  0  2
 30 33  2  0  0  2
  1 34  1  0  0  2
  2 35  1  0  0  2
  3 36  1  0  0  2
  4 37  1  0  0  2
  5 38  1  0  0  2
 14 39  1  0  0  2
 14 40  1  0  0  2
 15 41  1  0  0  2
 17 42  1  0  0  2
 18 43  1  0  0  2
 18 44  1  0  0  2
 19 45  1  0  0  2
 21 46  1  0  0  2
 24 47  1  0  0  2
 28 48  1  0  0  2
 29 49  1  0  0  2
M  END
> <MOLECULAR_FORMULA>
C18H16N2O11P2

> <MOLECULAR_WEIGHT>
498.1

> <NUM_HB_ATOMS>
12 

> <NUM_ROTOR>
2  

> <XLOGP2>
-1.14

$$$$
