REMARK  3 active torsions:
REMARK  status: ('A' for Active; 'I' for Inactive)
REMARK    1  A    between atoms: C7_2  and  C3_4 
REMARK    2  A    between atoms: C2_9  and  O3_10 
REMARK    3  A    between atoms: O3_10  and  C8_11 
ROOT
ATOM      1  C3  AIN d          11.830  15.316   1.664  0.00  0.00     0.074 A 
ATOM      2  C4  AIN d          11.114  15.381   0.456  0.00  0.00     0.021 A 
ATOM      3  C5  AIN d           9.774  15.001   0.429  0.00  0.00     0.001 A 
ATOM      4  C6  AIN d           9.120  14.601   1.580  0.00  0.00     0.003 A 
ATOM      5  C1  AIN d           9.752  14.568   2.802  0.00  0.00     0.038 A 
ATOM      6  C2  AIN d          11.088  14.922   2.923  0.00  0.00     0.096 A 
ENDROOT
BRANCH   6   7
ATOM      7  O3  AIN d          11.823  14.906   4.090  0.00  0.00    -0.278 OA
BRANCH   7   8
ATOM      8  C8  AIN d          12.477  13.770   4.769  0.00  0.00     0.260 C 
ATOM      9  O4  AIN d          12.686  13.870   5.971  0.00  0.00    -0.265 OA
ATOM     10  C9  AIN d          12.890  12.509   4.056  0.00  0.00     0.126 C 
ENDBRANCH   7   8
ENDBRANCH   6   7
BRANCH   1  11
ATOM     11  C7  AIN d          13.254  15.778   1.723  0.00  0.00     0.212 C 
ATOM     12  O1  AIN d          13.907  16.130   0.624  0.00  0.00    -0.644 OA
ATOM     13  O2  AIN d          13.911  15.759   2.749  0.00  0.00    -0.644 OA
ENDBRANCH   1  11
TORSDOF 3
