REMARK  14 active torsions:
REMARK  status: ('A' for Active; 'I' for Inactive)
REMARK       I    between atoms: N_3  and  C1_1 
REMARK    1  A    between atoms: C1_1  and  C2_4 
REMARK    2  A    between atoms: C3_18  and  N_3 
REMARK    3  A    between atoms: C5_11  and  O5_14 
REMARK    4  A    between atoms: O4_37  and  C1_16 
REMARK    5  A    between atoms: C2_17  and  O2_22 
REMARK    6  A    between atoms: C4_19  and  O4_23 
REMARK    7  A    between atoms: C5_20  and  C6_21 
REMARK    8  A    between atoms: C6_21  and  O6_25 
REMARK    9  A    between atoms: C1_26  and  O1_35 
REMARK   10  A    between atoms: N2_34  and  C2_27 
REMARK   11  A    between atoms: C3_28  and  O3_36 
REMARK   12  A    between atoms: C4_29  and  O4_37 
REMARK   13  A    between atoms: C5_30  and  C6_31 
REMARK   14  A    between atoms: C6_31  and  O6_39 
REMARK       I    between atoms: C7_32  and  N2_34 
ROOT
ATOM      1  C1  MOL d          -2.282  -8.956   1.362  0.00  0.00     0.291 C 
ATOM      2  C2  MOL d          -0.860  -9.400   1.141  0.00  0.00     0.198 C 
ATOM      3  C3  MOL d           0.111  -8.271   1.361  0.00  0.00     0.148 C 
ATOM      4  C4  MOL d          -0.319  -6.971   0.668  0.00  0.00     0.174 C 
ATOM      5  C5  MOL d          -1.769  -6.668   0.956  0.00  0.00     0.179 C 
ATOM      6  O5  MOL d          -2.588  -7.796   0.584  0.00  0.00    -0.349 OA
ENDROOT
BRANCH   1   7
ATOM      7  O4  MOL d          -3.099  -9.976   0.905  0.00  0.00    -0.348 OA
BRANCH   7   8
ATOM      8  C4  MOL d          -4.490  -9.884   1.113  0.00  0.00     0.186 C 
ATOM      9  C3  MOL d          -5.199 -10.329  -0.173  0.00  0.00     0.177 C 
ATOM     10  C2  MOL d          -6.721 -10.414   0.034  0.00  0.00     0.170 C 
ATOM     11  C1  MOL d          -6.925 -11.363   1.244  0.00  0.00     0.282 C 
ATOM     12  O5  MOL d          -6.261 -10.829   2.395  0.00  0.00    -0.349 OA
ATOM     13  C5  MOL d          -4.844 -10.849   2.235  0.00  0.00     0.179 C 
BRANCH   9  14
ATOM     14  O3  MOL d          -4.858  -9.447  -1.243  0.00  0.00    -0.391 OA
ATOM     15  H27 MOL d          -3.918  -9.465  -1.379  0.00  0.00     0.210 HD
ENDBRANCH   9  14
BRANCH  10  16
ATOM     16  N2  MOL d          -7.387 -10.976  -1.143  0.00  0.00    -0.349 N 
ATOM     17  C7  MOL d          -8.465 -10.397  -1.686  0.00  0.00     0.214 C 
ATOM     18  C8  MOL d          -9.016 -11.032  -2.956  0.00  0.00     0.117 C 
ATOM     19  O7  MOL d          -9.028  -9.399  -1.222  0.00  0.00    -0.274 OA
ATOM     20  H25 MOL d          -7.027 -11.815  -1.552  0.00  0.00     0.163 HD
ENDBRANCH  10  16
BRANCH  11  21
ATOM     21  O1  MOL d          -8.269 -11.464   1.553  0.00  0.00    -0.369 OA
ATOM     22  H26 MOL d          -8.379 -12.042   2.299  0.00  0.00     0.212 HD
ENDBRANCH  11  21
BRANCH  13  23
ATOM     23  C6  MOL d          -4.203 -10.479   3.560  0.00  0.00     0.198 C 
BRANCH  23  24
ATOM     24  O6  MOL d          -4.550  -9.160   3.902  0.00  0.00    -0.398 OA
ATOM     25  H28 MOL d          -5.495  -9.092   3.978  0.00  0.00     0.209 HD
ENDBRANCH  23  24
ENDBRANCH  13  23
ENDBRANCH   7   8
ENDBRANCH   1   7
BRANCH   2  26
ATOM     26  O2  MOL d          -0.536 -10.440   2.054  0.00  0.00    -0.388 OA
ATOM     27  H12 MOL d          -1.138 -11.165   1.933  0.00  0.00     0.210 HD
ENDBRANCH   2  26
BRANCH   3  28
ATOM     28  N   MOL d           1.468  -8.587   0.986  0.00  0.00    -0.358 N 
ATOM     29  C1  MOL d           2.659  -8.288   1.589  0.00  0.00     0.192 C 
ATOM     30  O   MOL d           2.535  -7.644   2.772  0.00  0.00    -0.171 OA
ATOM     31  H1  MOL d           1.552  -9.115   0.141  0.00  0.00     0.162 HD
BRANCH  29  32
ATOM     32  C2  MOL d           3.787  -8.755   0.903  0.00  0.00     0.101 A 
ATOM     33  C3  MOL d           4.717  -9.522   1.703  0.00  0.00     0.175 A 
ATOM     34  F3  MOL d           4.502  -9.723   2.851  0.00  0.00    -0.202 F 
ATOM     35  C4  MOL d           5.901 -10.033   1.104  0.00  0.00     0.192 A 
ATOM     36  C5  MOL d           6.222  -9.797  -0.316  0.00  0.00     0.152 A 
ATOM     37  F4  MOL d           6.587 -10.612   1.744  0.00  0.00    -0.200 F 
ATOM     38  C6  MOL d           5.270  -9.010  -1.141  0.00  0.00     0.192 A 
ATOM     39  C7  MOL d           4.060  -8.489  -0.551  0.00  0.00     0.175 A 
ATOM     40  F6  MOL d           5.467  -8.814  -2.216  0.00  0.00    -0.200 F 
ATOM     41  F7  MOL d           3.316  -7.861  -1.235  0.00  0.00    -0.202 F 
BRANCH  36  42
ATOM     42  O5  MOL d           7.225 -10.261  -0.676  0.00  0.00    -0.350 OA
ATOM     43  C8  MOL d           7.841 -10.218  -1.947  0.00  0.00     0.210 C 
ENDBRANCH  36  42
ENDBRANCH  29  32
ENDBRANCH   3  28
BRANCH   5  44
ATOM     44  C6  MOL d          -2.300  -5.484   0.198  0.00  0.00     0.198 C 
BRANCH  44  45
ATOM     45  O6  MOL d          -3.686  -5.316   0.451  0.00  0.00    -0.398 OA
ATOM     46  H14 MOL d          -4.154  -6.096   0.176  0.00  0.00     0.209 HD
ENDBRANCH  44  45
ENDBRANCH   5  44
BRANCH   4  47
ATOM     47  O4  MOL d          -0.109  -7.138  -0.708  0.00  0.00    -0.391 OA
ATOM     48  H13 MOL d          -0.641  -7.859  -1.023  0.00  0.00     0.210 HD
ENDBRANCH   4  47
TORSDOF 14
