REMARK  9 active torsions:
REMARK  status: ('A' for Active; 'I' for Inactive)
REMARK    1  A    between atoms: CAN_2  and  CAL_4 
REMARK       I    between atoms: CAL_4  and  NAK_6 
REMARK    2  A    between atoms: NAK_6  and  CAC_7 
REMARK    3  A    between atoms: CAB_8  and  OAG_9 
REMARK    4  A    between atoms: CAA_10  and  OAH_11 
REMARK    5  A    between atoms: CAF_12  and  CAI_13 
REMARK    6  A    between atoms: CAI_13  and  OAJ_14 
REMARK    7  A    between atoms: CAP_19  and  CAR_20 
REMARK    8  A    between atoms: CAR_20  and  CAS_21 
REMARK    9  A    between atoms: CAS_21  and  CAT_22 
ROOT
ATOM      1  CAC GSZ d          32.933  43.014  21.201  0.00  0.00     0.185 C 
ATOM      2  CAB GSZ d          32.278  43.186  22.572  0.00  0.00     0.179 C 
ATOM      3  CAA GSZ d          30.833  42.651  22.656  0.00  0.00     0.174 C 
ATOM      4  CAF GSZ d          30.869  41.154  22.330  0.00  0.00     0.145 C 
ATOM      5  NAE GSZ d          31.290  41.020  20.907  0.00  0.00    -0.332 N 
ATOM      6  CAQ GSZ d          30.946  40.188  19.924  0.00  0.00     0.120 A 
ATOM      7  CAD GSZ d          32.277  41.885  20.367  0.00  0.00     0.132 A 
ATOM      8  NAO GSZ d          32.445  41.534  19.093  0.00  0.00    -0.236 NA
ATOM      9  CAP GSZ d          31.629  40.507  18.813  0.00  0.00     0.052 A 
ENDROOT
BRANCH   9  10
ATOM     10  CAR GSZ d          31.543  39.758  17.463  0.00  0.00     0.065 C 
BRANCH  10  11
ATOM     11  CAS GSZ d          31.372  40.737  16.307  0.00  0.00     0.044 C 
BRANCH  11  12
ATOM     12  CAT GSZ d          29.954  41.346  16.250  0.00  0.00    -0.058 A 
ATOM     13  CAU GSZ d          28.890  40.629  15.669  0.00  0.00     0.007 A 
ATOM     14  CAV GSZ d          27.606  41.184  15.593  0.00  0.00     0.001 A 
ATOM     15  CAW GSZ d          27.400  42.462  16.115  0.00  0.00     0.000 A 
ATOM     16  CAX GSZ d          28.461  43.183  16.696  0.00  0.00     0.001 A 
ATOM     17  CAY GSZ d          29.737  42.629  16.771  0.00  0.00     0.007 A 
ENDBRANCH  11  12
ENDBRANCH  10  11
ENDBRANCH   9  10
BRANCH   4  18
ATOM     18  CAI GSZ d          29.568  40.370  22.651  0.00  0.00     0.192 C 
BRANCH  18  19
ATOM     19  OAJ GSZ d          28.532  40.831  21.828  0.00  0.00    -0.399 OA
ATOM     20  H17 GSZ d          28.768  40.696  20.918  0.00  0.00     0.209 HD
ENDBRANCH  18  19
ENDBRANCH   4  18
BRANCH   1  21
ATOM     21  NAK GSZ d          34.415  42.833  21.314  0.00  0.00    -0.347 N 
ATOM     22  CAL GSZ d          34.972  41.735  21.858  0.00  0.00     0.221 C 
ATOM     23  OAM GSZ d          34.325  40.781  22.320  0.00  0.00    -0.273 OA
ATOM     24  H8  GSZ d          35.015  43.556  20.972  0.00  0.00     0.163 HD
BRANCH  22  25
ATOM     25  CAN GSZ d          36.519  41.732  21.860  0.00  0.00     0.070 C 
ATOM     26  CAZ GSZ d          37.109  40.474  22.524  0.00  0.00     0.019 C 
ATOM     27  CBA GSZ d          37.033  42.979  22.565  0.00  0.00     0.019 C 
ENDBRANCH  22  25
ENDBRANCH   1  21
BRANCH   3  28
ATOM     28  OAH GSZ d          30.300  42.881  23.969  0.00  0.00    -0.391 OA
ATOM     29  H13 GSZ d          30.300  43.813  24.151  0.00  0.00     0.210 HD
ENDBRANCH   3  28
BRANCH   2  30
ATOM     30  OAG GSZ d          32.291  44.560  22.821  0.00  0.00    -0.390 OA
ATOM     31  H11 GSZ d          31.893  44.731  23.667  0.00  0.00     0.210 HD
ENDBRANCH   2  30
TORSDOF 9
