REMARK  6 active torsions:
REMARK  status: ('A' for Active; 'I' for Inactive)
REMARK    1  A    between atoms: C2'_10  and  O2'_11 
REMARK    2  A    between atoms: C1'_12  and  N9_13 
REMARK    3  A    between atoms: C2_20  and  N2_21 
REMARK    4  A    between atoms: C2A_33  and  O2A_34 
REMARK    5  A    between atoms: C1A_35  and  N91_36 
REMARK    6  A    between atoms: C21_43  and  N21_44 
ROOT
ATOM      1  P1  C2E d          20.183  20.032  21.142  0.00  0.00     0.408 P 
ATOM      2  O2P C2E d          20.284  19.413  19.703  0.00  0.00    -0.624 OA
ATOM      3  O1P C2E d          21.325  19.410  21.980  0.00  0.00    -0.624 OA
ATOM      4  O5' C2E d          20.406  21.587  21.039  0.00  0.00    -0.287 OA
ATOM      5  C5' C2E d          20.549  22.286  22.259  0.00  0.00     0.216 C 
ATOM      6  C4' C2E d          20.392  23.792  22.005  0.00  0.00     0.180 C 
ATOM      7  O4' C2E d          21.605  24.298  21.463  0.00  0.00    -0.353 OA
ATOM      8  C3' C2E d          19.317  24.252  21.048  0.00  0.00     0.198 C 
ATOM      9  O3' C2E d          18.099  24.393  21.712  0.00  0.00    -0.279 OA
ATOM     10  C2' C2E d          19.846  25.540  20.596  0.00  0.00     0.199 C 
ATOM     11  C1' C2E d          21.317  25.241  20.437  0.00  0.00     0.262 C 
ATOM     12  P11 C2E d          16.708  24.019  21.066  0.00  0.00     0.408 P 
ATOM     13  O21 C2E d          15.599  24.621  21.935  0.00  0.00    -0.624 OA
ATOM     14  O11 C2E d          16.621  24.559  19.616  0.00  0.00    -0.624 OA
ATOM     15  O5A C2E d          16.566  22.435  21.054  0.00  0.00    -0.287 OA
ATOM     16  C5A C2E d          16.350  21.718  22.273  0.00  0.00     0.216 C 
ATOM     17  C4A C2E d          16.450  20.229  21.959  0.00  0.00     0.180 C 
ATOM     18  O4A C2E d          15.344  19.783  21.254  0.00  0.00    -0.353 OA
ATOM     19  C3A C2E d          17.621  19.910  21.109  0.00  0.00     0.198 C 
ATOM     20  O3A C2E d          18.766  19.752  21.813  0.00  0.00    -0.279 OA
ATOM     21  C2A C2E d          17.165  18.593  20.542  0.00  0.00     0.199 C 
ATOM     22  C1A C2E d          15.721  18.804  20.326  0.00  0.00     0.262 C 
ENDROOT
BRANCH  11  23
ATOM     23  N9  C2E d          21.605  24.823  19.084  0.00  0.00    -0.293 N 
ATOM     24  C8  C2E d          21.531  23.557  18.550  0.00  0.00     0.214 A 
ATOM     25  N7  C2E d          21.879  23.576  17.225  0.00  0.00    -0.235 NA
ATOM     26  C5  C2E d          22.196  24.918  16.882  0.00  0.00     0.159 A 
ATOM     27  C6  C2E d          22.632  25.618  15.704  0.00  0.00     0.226 A 
ATOM     28  C4  C2E d          22.014  25.703  18.092  0.00  0.00     0.185 A 
ATOM     29  O6  C2E d          22.826  24.949  14.519  0.00  0.00    -0.169 OA
ATOM     30  N1  C2E d          22.865  27.016  15.737  0.00  0.00    -0.164 N 
ATOM     31  C2  C2E d          22.679  27.737  16.934  0.00  0.00     0.702 A 
ATOM     32  H9  C2E d          23.162  27.492  14.909  0.00  0.00     0.186 HD
ATOM     33  N3  C2E d          22.262  27.085  18.072  0.00  0.00    -0.044 NA
BRANCH  31  34
ATOM     34  N2  C2E d          22.928  29.162  16.966  0.00  0.00    -0.233 N 
ATOM     35  H10 C2E d          22.792  29.689  17.840  0.00  0.00     0.174 HD
ATOM     36  H11 C2E d          23.241  29.649  16.114  0.00  0.00     0.174 HD
ENDBRANCH  31  34
ENDBRANCH  11  23
BRANCH  10  37
ATOM     37  O2' C2E d          19.672  26.533  21.558  0.00  0.00    -0.388 OA
ATOM     38  H6  C2E d          18.745  26.637  21.741  0.00  0.00     0.210 HD
ENDBRANCH  10  37
BRANCH  21  39
ATOM     39  O2A C2E d          17.423  17.499  21.381  0.00  0.00    -0.388 OA
ATOM     40  H17 C2E d          18.358  17.433  21.535  0.00  0.00     0.210 HD
ENDBRANCH  21  39
BRANCH  22  41
ATOM     41  N91 C2E d          15.567  19.282  18.990  0.00  0.00    -0.293 N 
ATOM     42  C81 C2E d          15.691  20.552  18.548  0.00  0.00     0.214 A 
ATOM     43  N71 C2E d          15.504  20.616  17.185  0.00  0.00    -0.235 NA
ATOM     44  C51 C2E d          15.256  19.319  16.754  0.00  0.00     0.159 A 
ATOM     45  C61 C2E d          14.971  18.671  15.470  0.00  0.00     0.226 A 
ATOM     46  C41 C2E d          15.299  18.474  17.923  0.00  0.00     0.185 A 
ATOM     47  O61 C2E d          14.922  19.482  14.309  0.00  0.00    -0.169 OA
ATOM     48  N11 C2E d          14.760  17.306  15.428  0.00  0.00    -0.164 N 
ATOM     49  C21 C2E d          14.816  16.506  16.647  0.00  0.00     0.702 A 
ATOM     50  H20 C2E d          14.567  16.862  14.553  0.00  0.00     0.186 HD
ATOM     51  N31 C2E d          15.077  17.100  17.853  0.00  0.00    -0.044 NA
BRANCH  49  52
ATOM     52  N21 C2E d          14.596  15.079  16.634  0.00  0.00    -0.233 N 
ATOM     53  H21 C2E d          14.643  14.543  17.512  0.00  0.00     0.174 HD
ATOM     54  H22 C2E d          14.393  14.597  15.747  0.00  0.00     0.174 HD
ENDBRANCH  49  52
ENDBRANCH  22  41
TORSDOF 6
