REMARK  9 active torsions:
REMARK  status: ('A' for Active; 'I' for Inactive)
REMARK    1  A    between atoms: CAZ_8  and  OAX_9 
REMARK    2  A    between atoms: OAX_9  and  CAP_10 
REMARK    3  A    between atoms: CAP_10  and  CAO_11 
REMARK    4  A    between atoms: CAO_11  and  CAU_12 
REMARK    5  A    between atoms: CAU_12  and  NBD_13 
REMARK    6  A    between atoms: CBC_18  and  CBE_19 
REMARK    7  A    between atoms: CBE_19  and  CBB_20 
REMARK    8  A    between atoms: CBE_19  and  OAB_25 
REMARK    9  A    between atoms: CBE_19  and  CBA_26 
ROOT
ATOM      1  CAK MOL d         -10.709  19.253 -13.378  0.00  0.00     0.038 A 
ATOM      2  CAI MOL d         -10.145  20.416 -13.874  0.00  0.00     0.025 A 
ATOM      3  CAY MOL d          -8.774  20.546 -13.956  0.00  0.00     0.044 A 
ATOM      4  CAC MOL d          -8.200  21.737 -14.473  0.00  0.00     0.099 C 
ATOM      5  NAA MOL d          -7.771  22.705 -14.905  0.00  0.00    -0.191 NA
ATOM      6  CAJ MOL d          -7.982  19.487 -13.526  0.00  0.00     0.025 A 
ATOM      7  CAL MOL d          -8.536  18.294 -13.046  0.00  0.00     0.038 A 
ATOM      8  CAZ MOL d          -9.914  18.172 -12.988  0.00  0.00     0.068 A 
ENDROOT
BRANCH   8   9
ATOM      9  OAX MOL d         -10.543  17.040 -12.546  0.00  0.00    -0.351 OA
BRANCH   9  10
ATOM     10  CAP MOL d          -9.797  15.874 -12.164  0.00  0.00     0.177 C 
BRANCH  10  11
ATOM     11  CAO MOL d         -10.745  15.002 -11.290  0.00  0.00     0.054 C 
BRANCH  11  12
ATOM     12  CAU MOL d         -11.608  14.287 -12.292  0.00  0.00     0.237 C 
BRANCH  12  13
ATOM     13  NBD MOL d         -12.754  13.540 -11.653  0.00  0.00    -0.071 N 
ATOM     14  CAW MOL d         -13.454  12.705 -12.623  0.00  0.00     0.235 C 
ATOM     15  CAT MOL d         -14.631  11.958 -12.029  0.00  0.00     0.036 C 
ATOM     16  CBC MOL d         -14.119  10.985 -10.979  0.00  0.00     0.028 C 
ATOM     17  CAS MOL d         -13.229  11.722  -9.895  0.00  0.00     0.036 C 
ATOM     18  CAV MOL d         -12.140  12.496 -10.716  0.00  0.00     0.235 C 
ATOM     19  H   MOL d         -13.379  14.173 -11.180  0.00  0.00     0.279 HD
BRANCH  16  20
ATOM     20  CBE MOL d         -15.242  10.057 -10.405  0.00  0.00     0.092 C 
BRANCH  20  21
ATOM     21  CBB MOL d         -14.606   9.085  -9.378  0.00  0.00     0.025 C 
ATOM     22  CAQ MOL d         -13.507   8.107  -9.894  0.00  0.00     0.008 C 
ATOM     23  CAM MOL d         -13.287   7.289  -8.597  0.00  0.00     0.001 C 
ATOM     24  CAN MOL d         -14.698   7.232  -7.884  0.00  0.00     0.001 C 
ATOM     25  CAR MOL d         -15.639   8.085  -8.667  0.00  0.00     0.008 C 
ENDBRANCH  20  21
BRANCH  20  26
ATOM     26  OAB MOL d         -16.159  10.896  -9.732  0.00  0.00    -0.384 OA
ATOM     27  H   MOL d         -16.554  11.495 -10.354  0.00  0.00     0.211 HD
ENDBRANCH  20  26
BRANCH  20  28
ATOM     28  CBA MOL d         -15.923   9.306 -11.422  0.00  0.00    -0.023 A 
ATOM     29  CAG MOL d         -17.309   9.166 -11.400  0.00  0.00     0.010 A 
ATOM     30  CAE MOL d         -17.981   8.419 -12.370  0.00  0.00     0.001 A 
ATOM     31  CAD MOL d         -17.243   7.844 -13.417  0.00  0.00     0.000 A 
ATOM     32  CAF MOL d         -15.877   7.964 -13.468  0.00  0.00     0.001 A 
ATOM     33  CAH MOL d         -15.238   8.722 -12.504  0.00  0.00     0.010 A 
ENDBRANCH  20  28
ENDBRANCH  16  20
ENDBRANCH  12  13
ENDBRANCH  11  12
ENDBRANCH  10  11
ENDBRANCH   9  10
ENDBRANCH   8   9
TORSDOF 9
