REMARK  5 active torsions:
REMARK  status: ('A' for Active; 'I' for Inactive)
REMARK       I    between atoms: C7_2  and  N2_3 
REMARK    1  A    between atoms: C7_2  and  C8_5 
REMARK    2  A    between atoms: N2_3  and  O4_4 
REMARK    3  A    between atoms: C8_5  and  N1_6 
REMARK    4  A    between atoms: N1_6  and  S1_7 
REMARK    5  A    between atoms: S1_7  and  C3_10 
ROOT
ATOM      1  N1  HS7 d          -1.560  -5.249  -3.780  0.00  0.00    -0.307 N 
ATOM      2  H5  HS7 d          -2.022  -5.613  -2.971  0.00  0.00     0.172 HD
ENDROOT
BRANCH   1   3
ATOM      3  C8  HS7 d          -1.077  -3.884  -3.768  0.00  0.00     0.237 C 
BRANCH   3   4
ATOM      4  C7  HS7 d          -2.072  -2.971  -4.441  0.00  0.00     0.259 C 
ATOM      5  O3  HS7 d          -3.228  -2.873  -4.042  0.00  0.00    -0.270 OA
ATOM      6  N2  HS7 d          -1.625  -2.274  -5.477  0.00  0.00    -0.236 N 
ATOM      7  H1  HS7 d          -0.677  -2.357  -5.784  0.00  0.00     0.197 HD
BRANCH   6   8
ATOM      8  O4  HS7 d          -2.516  -1.425  -6.122  0.00  0.00    -0.287 OA
ATOM      9  H2  HS7 d          -2.836  -0.777  -5.506  0.00  0.00     0.244 HD
ENDBRANCH   6   8
ENDBRANCH   3   4
ENDBRANCH   1   3
BRANCH   1  10
ATOM     10  S1  HS7 d          -1.369  -6.188  -5.064  0.00  0.00     0.259 S 
ATOM     11  O1  HS7 d          -0.167  -5.805  -5.760  0.00  0.00    -0.201 OA
ATOM     12  O2  HS7 d          -1.321  -7.546  -4.601  0.00  0.00    -0.201 OA
BRANCH  10  13
ATOM     13  C3  HS7 d          -2.615  -6.023  -6.066  0.00  0.00     0.079 A 
ATOM     14  C1  HS7 d          -2.458  -5.410  -7.315  0.00  0.00     0.025 A 
ATOM     15  C2  HS7 d          -3.537  -5.287  -8.189  0.00  0.00     0.002 A 
ATOM     16  C4  HS7 d          -4.791  -5.773  -7.821  0.00  0.00     0.000 A 
ATOM     17  C5  HS7 d          -4.965  -6.379  -6.577  0.00  0.00     0.002 A 
ATOM     18  C6  HS7 d          -3.877  -6.505  -5.708  0.00  0.00     0.025 A 
ENDBRANCH  10  13
ENDBRANCH   1  10
TORSDOF 5
