REMARK  6 active torsions:
REMARK  status: ('A' for Active; 'I' for Inactive)
REMARK    1  A    between atoms: C1_1  and  O2_21 
REMARK    2  A    between atoms: C13_13  and  O1_20 
REMARK    3  A    between atoms: C17_17  and  C19_19 
REMARK    4  A    between atoms: C19_19  and  C21_23 
REMARK    5  A    between atoms: C21_23  and  C22_24 
REMARK    6  A    between atoms: C22_24  and  C23_25 
ROOT
ATOM      1  C1  DXC d          -0.789  22.723  14.881  0.00  0.00     0.118 C 
ATOM      2  C2  DXC d          -1.018  21.276  14.439  0.00  0.00     0.037 C 
ATOM      3  C3  DXC d          -0.046  20.353  15.177  0.00  0.00    -0.004 C 
ATOM      4  C4  DXC d           1.414  20.731  14.912  0.00  0.00    -0.036 C 
ATOM      5  C5  DXC d           1.631  22.196  15.296  0.00  0.00     0.012 C 
ATOM      6  C6  DXC d           0.654  23.117  14.562  0.00  0.00     0.032 C 
ATOM      7  C7  DXC d          -0.328  18.908  14.761  0.00  0.00     0.006 C 
ATOM      8  C8  DXC d          -0.004  18.719  13.277  0.00  0.00     0.006 C 
ATOM      9  C9  DXC d           1.459  19.078  13.014  0.00  0.00    -0.005 C 
ATOM     10  C10 DXC d           1.760  20.518  13.435  0.00  0.00     0.001 C 
ATOM     11  C11 DXC d           1.785  18.930  11.527  0.00  0.00     0.001 C 
ATOM     12  C12 DXC d           3.276  19.163  11.294  0.00  0.00    -0.010 C 
ATOM     13  C13 DXC d           3.610  20.603  11.697  0.00  0.00     0.127 C 
ATOM     14  C14 DXC d           3.232  20.851  13.161  0.00  0.00     0.038 C 
ATOM     15  C15 DXC d           1.630  17.517  10.968  0.00  0.00     0.006 C 
ATOM     16  C16 DXC d           2.398  17.628   9.647  0.00  0.00     0.006 C 
ATOM     17  C17 DXC d           3.278  18.876   9.791  0.00  0.00     0.000 C 
ATOM     18  C18 DXC d           2.322  19.851  15.775  0.00  0.00     0.016 C 
ATOM     19  C20 DXC d           4.109  18.150  12.081  0.00  0.00     0.018 C 
ENDROOT
BRANCH  17  20
ATOM     20  C19 DXC d           4.651  18.659   9.145  0.00  0.00    -0.013 C 
ATOM     21  C24 DXC d           5.499  19.932   9.219  0.00  0.00     0.010 C 
BRANCH  20  22
ATOM     22  C21 DXC d           4.438  18.225   7.694  0.00  0.00     0.015 C 
BRANCH  22  23
ATOM     23  C22 DXC d           5.700  17.683   7.014  0.00  0.00     0.113 C 
BRANCH  23  24
ATOM     24  C23 DXC d           6.623  18.785   6.486  0.00  0.00     0.172 C 
ATOM     25  O3  DXC d           7.748  18.886   7.008  0.00  0.00    -0.648 OA
ATOM     26  O4  DXC d           6.186  19.480   5.537  0.00  0.00    -0.648 OA
ENDBRANCH  23  24
ENDBRANCH  22  23
ENDBRANCH  20  22
ENDBRANCH  17  20
BRANCH  13  27
ATOM     27  O1  DXC d           2.906  21.517  10.855  0.00  0.00    -0.395 OA
ATOM     28  H28 DXC d           3.144  21.359   9.949  0.00  0.00     0.210 HD
ENDBRANCH  13  27
BRANCH   1  29
ATOM     29  O2  DXC d          -1.690  23.577  14.170  0.00  0.00    -0.396 OA
ATOM     30  H29 DXC d          -2.585  23.329  14.371  0.00  0.00     0.210 HD
ENDBRANCH   1  29
TORSDOF 6
