REMARK  10 active torsions:
REMARK  status: ('A' for Active; 'I' for Inactive)
REMARK    1  A    between atoms: C1_11  and  C1C_1 
REMARK    2  A    between atoms: N1_10  and  C4P_7 
REMARK    3  A    between atoms: C4_14  and  N1_10 
REMARK    4  A    between atoms: C1_11  and  C4D_21 
REMARK    5  A    between atoms: C1_11  and  C2_12 
REMARK    6  A    between atoms: C2_12  and  C3_13 
REMARK    7  A    between atoms: C3_13  and  C4_14 
REMARK    8  A    between atoms: C1A_17  and  N1A_15 
REMARK    9  A    between atoms: C5B_28  and  C1A_17 
REMARK   10  A    between atoms: C6D_23  and  C3B_26 
ROOT
ATOM      1  C1D MOL d           0.718  16.784  14.071  0.00  0.00     0.012 A 
ATOM      2  C2D MOL d          -0.485  16.274  14.632  0.00  0.00     0.001 A 
ATOM      3  C3D MOL d          -0.780  16.503  16.001  0.00  0.00     0.008 A 
ATOM      4  C4D MOL d           0.124  17.241  16.820  0.00  0.00    -0.043 A 
ATOM      5  C5D MOL d           1.339  17.756  16.261  0.00  0.00     0.020 A 
ATOM      6  C6D MOL d           1.639  17.529  14.883  0.00  0.00    -0.025 A 
ENDROOT
BRANCH   4   7
ATOM      7  C1  MOL d          -0.230  17.466  18.299  0.00  0.00     0.120 C 
BRANCH   7   8
ATOM      8  C1C MOL d           0.520  16.439  19.171  0.00  0.00     0.181 C 
ATOM      9  O3  MOL d           1.696  16.772  19.787  0.00  0.00    -0.647 OA
ATOM     10  O2  MOL d           0.048  15.301  19.301  0.00  0.00    -0.647 OA
ENDBRANCH   7   8
BRANCH   7  11
ATOM     11  C2  MOL d           0.096  18.897  18.734  0.00  0.00     0.022 C 
BRANCH  11  12
ATOM     12  C3  MOL d          -1.227  19.594  19.036  0.00  0.00     0.021 C 
BRANCH  12  13
ATOM     13  C4  MOL d          -1.018  21.104  19.056  0.00  0.00     0.120 C 
BRANCH  13  14
ATOM     14  N1  MOL d          -1.902  21.714  18.039  0.00  0.00    -0.390 N 
ATOM     15  H5  MOL d          -2.528  21.170  17.428  0.00  0.00     0.159 HD
BRANCH  14  16
ATOM     16  C4P MOL d          -1.790  23.196  17.993  0.00  0.00     0.030 A 
ATOM     17  C5P MOL d          -0.913  23.909  18.858  0.00  0.00     0.048 A 
ATOM     18  C6P MOL d          -0.842  25.307  18.776  0.00  0.00     0.118 A 
ATOM     19  N1P MOL d          -1.637  26.005  17.839  0.00  0.00    -0.273 NA
ATOM     20  C2P MOL d          -2.508  25.304  16.982  0.00  0.00     0.118 A 
ATOM     21  C3P MOL d          -2.583  23.898  17.062  0.00  0.00     0.048 A 
ENDBRANCH  14  16
ENDBRANCH  13  14
ENDBRANCH  12  13
ENDBRANCH  11  12
ENDBRANCH   7  11
ENDBRANCH   4   7
BRANCH   6  22
ATOM     22  C3B MOL d           2.949  18.089  14.263  0.00  0.00    -0.025 A 
ATOM     23  C4B MOL d           2.952  18.489  12.901  0.00  0.00     0.027 A 
ATOM     24  C5B MOL d           4.126  19.005  12.299  0.00  0.00     0.008 A 
ATOM     25  C6B MOL d           5.319  19.130  13.065  0.00  0.00     0.015 A 
ATOM     26  C1B MOL d           5.330  18.733  14.436  0.00  0.00     0.002 A 
ATOM     27  C2B MOL d           4.147  18.212  15.037  0.00  0.00     0.012 A 
BRANCH  24  28
ATOM     28  C1A MOL d           4.081  19.423  10.817  0.00  0.00     0.102 C 
ATOM     29  N2A MOL d           3.174  18.887  10.025  0.00  0.00    -0.385 N 
ATOM     30  H15 MOL d           2.510  18.194  10.398  0.00  0.00     0.157 HD
ATOM     31  H16 MOL d           3.129  19.162   9.033  0.00  0.00     0.157 HD
BRANCH  28  32
ATOM     32  N1A MOL d           4.933  20.312  10.341  0.00  0.00    -0.385 N 
ATOM     33  H13 MOL d           4.893  20.584   9.348  0.00  0.00     0.157 HD
ATOM     34  H14 MOL d           5.638  20.734  10.962  0.00  0.00     0.157 HD
ENDBRANCH  28  32
ENDBRANCH  24  28
ENDBRANCH   6  22
TORSDOF 10
