REMARK  8 active torsions:
REMARK  status: ('A' for Active; 'I' for Inactive)
REMARK    1  A    between atoms: CAK_11  and  CAJ_10 
REMARK    2  A    between atoms: CAJ_10  and  CAL_12 
REMARK    3  A    between atoms: NAN_14  and  CAK_11 
REMARK    4  A    between atoms: CAL_12  and  NAV_22 
REMARK    5  A    between atoms: CAR_18  and  NAN_14 
REMARK    6  A    between atoms: CAS_19  and  NAO_15 
REMARK    7  A    between atoms: CAT_20  and  OAP_16 
REMARK    8  A    between atoms: OAQ_17  and  CAU_21 
ROOT
ATOM      1  SAC PBD d           8.104  49.684  17.124  0.00  0.00    -0.041 SA
ATOM      2  NAO PBD d           5.562  50.118  17.858  0.00  0.00    -0.333 N 
ATOM      3  CAR PBD d           6.790  49.820  18.269  0.00  0.00     0.172 C 
ATOM      4  H20 PBD d           5.450  50.304  16.882  0.00  0.00     0.168 HD
ENDROOT
BRANCH   2   5
ATOM      5  CAS PBD d           4.444  50.197  18.624  0.00  0.00     0.037 A 
ATOM      6  CAE PBD d           4.222  51.276  19.507  0.00  0.00     0.032 A 
ATOM      7  CAF PBD d           3.022  51.288  20.274  0.00  0.00     0.042 A 
ATOM      8  CAT PBD d           2.087  50.227  20.109  0.00  0.00     0.101 A 
ATOM      9  CAU PBD d           2.387  49.146  19.260  0.00  0.00     0.103 A 
ATOM     10  CAI PBD d           3.528  49.163  18.462  0.00  0.00     0.069 A 
BRANCH   8  11
ATOM     11  OAP PBD d           0.914  50.070  20.863  0.00  0.00    -0.353 OA
ATOM     12  CAA PBD d           0.717  51.054  21.944  0.00  0.00     0.210 C 
ENDBRANCH   8  11
BRANCH   9  13
ATOM     13  OAQ PBD d           1.439  48.130  19.126  0.00  0.00    -0.353 OA
ATOM     14  CAB PBD d           1.739  46.984  18.275  0.00  0.00     0.210 C 
ENDBRANCH   9  13
ENDBRANCH   2   5
BRANCH   3  15
ATOM     15  NAN PBD d           6.975  49.624  19.550  0.00  0.00    -0.367 N 
ATOM     16  H19 PBD d           6.186  49.712  20.157  0.00  0.00     0.161 HD
BRANCH  15  17
ATOM     17  CAK PBD d           8.281  49.281  20.153  0.00  0.00     0.123 C 
BRANCH  17  18
ATOM     18  CAJ PBD d           7.992  48.792  21.539  0.00  0.00     0.040 C 
BRANCH  18  19
ATOM     19  CAL PBD d           9.255  48.595  22.312  0.00  0.00     0.131 C 
BRANCH  19  20
ATOM     20  NAV PBD d           8.953  48.161  23.698  0.00  0.00    -0.350 N 
ATOM     21  CAG PBD d           8.682  46.955  24.164  0.00  0.00     0.111 A 
ATOM     22  CAD PBD d           8.459  47.057  25.486  0.00  0.00     0.135 A 
ATOM     23  NAM PBD d           8.451  48.365  25.819  0.00  0.00    -0.255 NA
ATOM     24  CAH PBD d           8.800  49.037  24.694  0.00  0.00     0.209 A 
ENDBRANCH  19  20
ENDBRANCH  18  19
ENDBRANCH  17  18
ENDBRANCH  15  17
ENDBRANCH   3  15
TORSDOF 8
