REMARK  7 active torsions:
REMARK  status: ('A' for Active; 'I' for Inactive)
REMARK    1  A    between atoms: O21_2  and  C18_3 
REMARK    2  A    between atoms: C7_8  and  C3_9 
REMARK    3  A    between atoms: C2_10  and  C8_11 
REMARK       I    between atoms: C8_11  and  N10_13 
REMARK    4  A    between atoms: N10_13  and  C26_14 
REMARK    5  A    between atoms: C4_17  and  C6_18 
REMARK    6  A    between atoms: C13_22  and  O24_23 
REMARK    7  A    between atoms: C15_25  and  O23_26 
ROOT
ATOM      1  C3  MOL d          31.468   8.517  26.237  0.00  0.00     0.048 A 
ATOM      2  C2  MOL d          31.041   8.090  27.512  0.00  0.00     0.165 A 
ATOM      3  N1  MOL d          30.093   8.892  28.004  0.00  0.00    -0.121 NA
ATOM      4  C4  MOL d          30.704   9.670  25.984  0.00  0.00     0.128 A 
ATOM      5  O3  MOL d          29.885   9.874  27.047  0.00  0.00    -0.211 OA
ENDROOT
BRANCH   4   6
ATOM      6  C6  MOL d          30.722  10.492  24.839  0.00  0.00     0.036 A 
ATOM      7  C11 MOL d          31.945  11.001  24.391  0.00  0.00     0.044 A 
ATOM      8  C12 MOL d          32.016  11.813  23.258  0.00  0.00     0.068 A 
ATOM      9 CL25 MOL d          33.548  12.452  22.702  0.00  0.00    -0.081 Cl
ATOM     10  C13 MOL d          30.830  12.131  22.581  0.00  0.00     0.090 A 
ATOM     11  C14 MOL d          29.599  11.624  23.002  0.00  0.00     0.075 A 
ATOM     12  C15 MOL d          29.545  10.840  24.163  0.00  0.00     0.081 A 
BRANCH  10  13
ATOM     13  O24 MOL d          30.878  12.874  21.471  0.00  0.00    -0.359 OA
ATOM     14  H15 MOL d          29.998  12.998  21.136  0.00  0.00     0.217 HD
ENDBRANCH  10  13
BRANCH  12  15
ATOM     15  O23 MOL d          28.338  10.353  24.562  0.00  0.00    -0.360 OA
ATOM     16  H17 MOL d          28.450   9.844  25.356  0.00  0.00     0.217 HD
ENDBRANCH  12  15
ENDBRANCH   4   6
BRANCH   1  17
ATOM     17  C7  MOL d          32.448   7.914  25.378  0.00  0.00    -0.020 A 
ATOM     18  C20 MOL d          32.094   7.332  24.129  0.00  0.00     0.015 A 
ATOM     19  C19 MOL d          33.059   6.753  23.268  0.00  0.00     0.037 A 
ATOM     20  C18 MOL d          34.418   6.776  23.649  0.00  0.00     0.068 A 
ATOM     21  C17 MOL d          34.773   7.351  24.890  0.00  0.00     0.037 A 
ATOM     22  C16 MOL d          33.803   7.919  25.724  0.00  0.00     0.015 A 
BRANCH  20  23
ATOM     23  O21 MOL d          35.435   6.238  22.903  0.00  0.00    -0.356 OA
ATOM     24  C22 MOL d          35.110   5.610  21.624  0.00  0.00     0.210 C 
ENDBRANCH  20  23
ENDBRANCH   1  17
BRANCH   2  25
ATOM     25  C8  MOL d          31.565   6.908  28.296  0.00  0.00     0.273 C 
ATOM     26  O9  MOL d          32.052   5.928  27.738  0.00  0.00    -0.266 OA
ATOM     27  N10 MOL d          31.537   7.058  29.633  0.00  0.00    -0.356 N 
ATOM     28  H8  MOL d          31.189   7.911  30.023  0.00  0.00     0.162 HD
BRANCH  27  29
ATOM     29  C26 MOL d          32.011   5.986  30.539  0.00  0.00     0.118 C 
ATOM     30  C27 MOL d          33.492   6.216  30.890  0.00  0.00     0.026 C 
ENDBRANCH  27  29
ENDBRANCH   2  25
TORSDOF 7
