REMARK  1 active torsions:
REMARK  status: ('A' for Active; 'I' for Inactive)
REMARK    1  A    between atoms: CAC_9  and  CAH_10 
ROOT
ATOM      1  CAA ICO d         -16.746  18.167   1.283  0.00  0.00     0.009 A 
ATOM      2  CAD ICO d         -17.715  18.532   0.355  0.00  0.00     0.015 A 
ATOM      3  CAI ICO d         -18.001  19.865   0.118  0.00  0.00     0.001 A 
ATOM      4  CAJ ICO d         -17.333  20.864   0.790  0.00  0.00     0.002 A 
ATOM      5  CAF ICO d         -16.354  20.538   1.716  0.00  0.00     0.030 A 
ATOM      6  CAB ICO d         -16.078  19.195   1.953  0.00  0.00     0.043 A 
ATOM      7  NAE ICO d         -15.134  18.622   2.795  0.00  0.00    -0.364 N 
ATOM      8  CAG ICO d         -15.193  17.265   2.696  0.00  0.00     0.107 A 
ATOM      9  CAC ICO d         -16.179  16.937   1.772  0.00  0.00     0.068 A 
ATOM     10  H5  ICO d         -14.487  19.144   3.403  0.00  0.00     0.165 HD
ENDROOT
BRANCH   9  11
ATOM     11  CAH ICO d         -16.535  15.453   1.408  0.00  0.00     0.211 C 
ATOM     12  OAL ICO d         -17.408  15.207   0.502  0.00  0.00    -0.644 OA
ATOM     13  OAK ICO d         -15.957  14.548   2.092  0.00  0.00    -0.644 OA
ENDBRANCH   9  11
TORSDOF 1
