REMARK  1 active torsions:
REMARK  status: ('A' for Active; 'I' for Inactive)
REMARK    1  A    between atoms: C3_3  and  N11_11 
ROOT
ATOM      1  C1  MOL d           3.808 -27.722 -34.992  0.00  0.00     0.099 A 
ATOM      2  C2  MOL d           4.267 -28.734 -34.140  0.00  0.00    -0.005 A 
ATOM      3  C3  MOL d           3.970 -27.849 -36.375  0.00  0.00     0.132 A 
ATOM      4  C4  MOL d           4.885 -29.874 -34.645  0.00  0.00     0.014 A 
ATOM      5  C5  MOL d           4.593 -28.997 -36.874  0.00  0.00     0.038 A 
ATOM      6  C6  MOL d           5.048 -30.003 -36.022  0.00  0.00     0.003 A 
ATOM      7  C7  MOL d           3.039 -26.475 -33.135  0.00  0.00     0.117 A 
ATOM      8  C8  MOL d           3.479 -27.459 -32.251  0.00  0.00     0.020 A 
ATOM      9  N9  MOL d           3.208 -26.622 -34.475  0.00  0.00    -0.258 NA
ATOM     10  C10 MOL d           4.098 -28.601 -32.761  0.00  0.00     0.015 A 
ENDROOT
BRANCH   3  11
ATOM     11  N11 MOL d           3.539 -26.893 -37.220  0.00  0.00    -0.113 N 
ATOM     12  O12 MOL d           2.823 -27.189 -38.166  0.00  0.00    -0.532 OA
ATOM     13  O13 MOL d           3.844 -25.719 -37.077  0.00  0.00    -0.532 OA
ENDBRANCH   3  11
TORSDOF 1
