REMARK  13 active torsions:
REMARK  status: ('A' for Active; 'I' for Inactive)
REMARK    1  A    between atoms: PA_1  and  O3A_8 
REMARK    2  A    between atoms: O01_9  and  PA_1 
REMARK    3  A    between atoms: O3A_8  and  PB_5 
REMARK    4  A    between atoms: C01_10  and  O01_9 
REMARK    5  A    between atoms: C05_11  and  C01_10 
REMARK    6  A    between atoms: C04_12  and  C05_11 
REMARK    7  A    between atoms: C7_32  and  C02_16 
REMARK    8  A    between atoms: N3_17  and  C18_18 
REMARK    9  A    between atoms: C18_18  and  C19_19 
REMARK   10  A    between atoms: P8_28  and  O9_30 
REMARK   11  A    between atoms: P8_28  and  C7_32 
REMARK   12  A    between atoms: C7_32  and  O7_33 
REMARK   13  A    between atoms: C7_32  and  C2_34 
ROOT
ATOM      1  C04 D7K d         108.352  45.478  96.043  0.00  0.00     0.004 A 
ATOM      2  C03 D7K d         107.685  46.609  95.759  0.00  0.00     0.017 A 
ATOM      3  CM4 D7K d         106.845  47.368  96.844  0.00  0.00     0.069 C 
ATOM      4  S1  D7K d         109.132  44.878  94.646  0.00  0.00    -0.102 SA
ATOM      5  C02 D7K d         108.568  46.217  93.636  0.00  0.00     0.203 A 
ATOM      6  N3  D7K d         107.780  47.042  94.438  0.00  0.00    -0.361 N 
ENDROOT
BRANCH   5   7
ATOM      7  C7  D7K d         109.111  46.338  92.170  0.00  0.00     0.220 C 
BRANCH   7   8
ATOM      8  P8  D7K d         110.646  47.557  92.299  0.00  0.00     0.292 P 
ATOM      9  O12 D7K d         110.200  48.796  93.047  0.00  0.00    -0.644 OA
ATOM     10  O11 D7K d         111.329  47.725  90.995  0.00  0.00    -0.644 OA
BRANCH   8  11
ATOM     11  O9  D7K d         111.643  46.705  93.268  0.00  0.00    -0.315 OA
ATOM     12  C10 D7K d         113.072  46.795  93.109  0.00  0.00     0.213 C 
ENDBRANCH   8  11
ENDBRANCH   7   8
BRANCH   7  13
ATOM     13  O7  D7K d         108.340  47.155  91.288  0.00  0.00    -0.370 OA
ATOM     14  H20 D7K d         108.167  47.992  91.703  0.00  0.00     0.212 HD
ENDBRANCH   7  13
BRANCH   7  15
ATOM     15  C2  D7K d         109.473  45.072  91.569  0.00  0.00    -0.008 A 
ATOM     16  C3  D7K d         108.644  44.499  90.611  0.00  0.00     0.011 A 
ATOM     17  C4  D7K d         108.943  43.284  90.009  0.00  0.00     0.001 A 
ATOM     18  C5  D7K d         110.108  42.604  90.357  0.00  0.00     0.000 A 
ATOM     19  C6  D7K d         110.957  43.146  91.299  0.00  0.00     0.001 A 
ATOM     20  C1  D7K d         110.649  44.361  91.908  0.00  0.00     0.011 A 
ENDBRANCH   7  15
ENDBRANCH   5   7
BRANCH   6  21
ATOM     21  C18 D7K d         107.063  48.314  94.044  0.00  0.00     0.168 C 
BRANCH  21  22
ATOM     22  C19 D7K d         105.598  48.176  93.780  0.00  0.00     0.023 C 
ATOM     23  C20 D7K d         104.700  48.913  94.580  0.00  0.00     0.131 C 
ATOM     24  N25 D7K d         103.281  48.869  94.362  0.00  0.00    -0.245 NA
ATOM     25  C24 D7K d         102.777  48.120  93.361  0.00  0.00     0.124 C 
ATOM     26  N23 D7K d         103.609  47.418  92.566  0.00  0.00    -0.216 NA
ATOM     27  CM2 D7K d         101.366  48.079  93.138  0.00  0.00     0.093 C 
ATOM     28  C21 D7K d         104.986  47.486  92.704  0.00  0.00     0.132 C 
ATOM     29  N22 D7K d         105.773  46.767  91.897  0.00  0.00    -0.383 N 
ATOM     30  H12 D7K d         105.364  46.252  91.104  0.00  0.00     0.157 HD
ATOM     31  H13 D7K d         106.788  46.728  92.068  0.00  0.00     0.157 HD
ENDBRANCH  21  22
ENDBRANCH   6  21
BRANCH   1  32
ATOM     32  C05 D7K d         108.496  44.727  97.396  0.00  0.00     0.075 C 
BRANCH  32  33
ATOM     33  C01 D7K d         107.682  43.469  97.588  0.00  0.00     0.186 C 
BRANCH  33  34
ATOM     34  O01 D7K d         108.155  42.852  98.839  0.00  0.00    -0.289 OA
BRANCH  34  35
ATOM     35  PA  D7K d         107.807  41.361  99.199  0.00  0.00     0.418 P 
ATOM     36  O1A D7K d         107.908  41.279 100.696  0.00  0.00    -0.624 OA
ATOM     37  O2A D7K d         106.564  40.932  98.563  0.00  0.00    -0.624 OA
BRANCH  35  38
ATOM     38  O3A D7K d         109.041  40.497  98.507  0.00  0.00    -0.173 OA
BRANCH  38  39
ATOM     39  PB  D7K d         110.668  40.707  98.901  0.00  0.00     0.431 P 
ATOM     40  O1B D7K d         111.213  41.830  98.064  0.00  0.00    -0.616 OA
ATOM     41  O2B D7K d         110.835  40.857 100.409  0.00  0.00    -0.616 OA
ATOM     42  O3B D7K d         111.297  39.297  98.445  0.00  0.00    -0.616 OA
ENDBRANCH  38  39
ENDBRANCH  35  38
ENDBRANCH  34  35
ENDBRANCH  33  34
ENDBRANCH  32  33
ENDBRANCH   1  32
TORSDOF 13
