3m89_ligand

Created by X-TOOL on Fri Sep 26 17:34:48 2014
 46 48  0  0  0  0  0  0  0  0999 V2000
  -18.2990  -22.9910  -20.8370  P 0  0  0  1  0  4
  -19.0790  -23.0480  -19.3760  O 0  0  0  1  0  2
  -18.9740  -24.6010  -21.5030  S 0  0  0  2  0  2
  -18.7890  -21.6980  -21.3940  O 0  0  0  1  0  1
  -16.8340  -23.2910  -20.7280  O 0  0  0  1  0  1
  -19.0160  -21.9530  -18.1140  P 0  0  0  1  0  4
  -18.1790  -20.9390  -18.7060  O 0  0  0  1  0  1
  -20.3150  -21.4010  -17.6090  O 0  0  0  1  0  1
  -18.9770  -23.8550  -16.0120  P 0  0  0  1  0  4
  -20.0570  -23.2180  -15.2070  O 0  0  0  1  0  1
  -19.1970  -25.0660  -16.8820  O 0  0  0  1  0  1
  -18.3170  -22.7270  -16.8870  O 0  0  0  1  0  2
  -17.7740  -24.2360  -14.9460  O 0  0  0  1  0  2
  -16.4520  -23.5800  -14.8870  C 0  0  0  3  0  4
  -15.6960  -24.2420  -13.7520  C 0  0  0  2  0  4
  -16.6280  -24.6030  -12.6480  O 0  0  0  1  0  2
  -14.9890  -25.5960  -14.1380  C 0  0  0  2  0  4
  -13.6270  -25.5400  -13.5980  O 0  0  0  2  0  2
  -15.8500  -26.7430  -13.4630  C 0  0  0  2  0  4
  -15.0340  -27.8780  -13.0160  O 0  0  0  2  0  2
  -16.6010  -26.0140  -12.2760  C 0  0  0  2  0  4
  -18.0540  -26.3520  -12.0770  N 0  0  0  1  0  3
  -19.0880  -26.6970  -12.9460  C 0  0  0  2  0  3
  -20.2530  -26.9380  -12.4070  N 0  0  0  1  0  2
  -19.9880  -26.7270  -11.0460  C 0  0  0  1  0  3
  -20.9040  -26.8460   -9.8900  C 0  0  0  1  0  3
  -22.0980  -27.1550  -10.0260  O 0  0  0  1  0  1
  -20.2120  -26.5410   -8.6590  N 0  0  0  2  0  3
  -18.8360  -26.1880   -8.5230  C 0  3  0  1  0  3
  -18.3150  -25.9350   -7.3370  N 0  0  0  3  0  3
  -18.0020  -26.0930   -9.6130  N 0  0  0  2  0  3
  -18.6360  -26.3780  -10.8380  C 0  0  0  1  0  3
  -18.6049  -24.7621  -22.4270  H 0  0  0  1  0  1
  -16.5695  -22.5043  -14.6894  H 0  0  0  1  0  1
  -15.9142  -23.7219  -15.8360  H 0  0  0  1  0  1
  -14.9392  -23.5318  -13.3876  H 0  0  0  1  0  1
  -14.9573  -25.7341  -15.2288  H 0  0  0  1  0  1
  -13.1690  -26.3441  -13.8129  H 0  0  0  1  0  1
  -16.5875  -27.1230  -14.1853  H 0  0  0  1  0  1
  -14.3982  -27.5774  -12.3773  H 0  0  0  1  0  1
  -16.0506  -26.1841  -11.3389  H 0  0  0  1  0  1
  -18.9320  -26.7624  -14.0218  H 0  0  0  1  0  1
  -20.7513  -26.5813   -7.8179  H 0  0  0  1  0  1
  -17.3201  -25.6815   -7.2550  H 0  0  0  1  0  1
  -18.9034  -25.9911   -6.4934  H 0  0  0  1  0  1
  -17.0069  -25.8373   -9.5401  H 0  0  0  1  0  1
  2  1  1  0  0  2
  1  3  1  0  0  2
  1  4  2  0  0  2
  1  5  2  0  0  2
  6  2  1  0  0  2
  6  7  2  0  0  2
  6  8  2  0  0  2
 12  6  1  0  0  2
  9 10  2  0  0  2
  9 11  2  0  0  2
  9 12  1  0  0  2
  9 13  1  0  0  2
 13 14  1  0  0  2
 14 15  1  0  0  2
 15 16  1  0  0  1
 15 17  1  0  0  1
 16 21  1  0  0  1
 17 18  1  0  0  2
 17 19  1  0  0  1
 19 20  1  0  0  2
 19 21  1  0  0  1
 21 22  1  0  0  2
 22 23  1  0  0  1
 22 32  1  0  0  1
 23 24  2  0  0  1
 24 25  1  0  0  1
 25 26  1  0  0  1
 25 32  2  0  0  1
 26 27  2  0  0  2
 26 28  1  0  0  1
 28 29  4  0  0  1
 29 30  2  0  0  2
 29 31  4  0  0  1
 31 32  1  0  0  1
  3 33  1  0  0  2
 14 34  1  0  0  2
 14 35  1  0  0  2
 15 36  1  0  0  2
 17 37  1  0  0  2
 18 38  1  0  0  2
 19 39  1  0  0  2
 20 40  1  0  0  2
 21 41  1  0  0  2
 23 42  1  0  0  2
 28 43  1  0  0  2
 30 44  1  0  0  2
 30 45  1  0  0  2
 31 46  1  0  0  2
M  END
> <MOLECULAR_FORMULA>
C10H14N5O13P3S

> <MOLECULAR_WEIGHT>
537.1

> <NUM_HB_ATOMS>
19 

> <NUM_ROTOR>
8  

> <XLOGP2>
-3.74

$$$$
