REMARK  1 active torsions:
REMARK  status: ('A' for Active; 'I' for Inactive)
REMARK    1  A    between atoms: C7_4  and  O8_8 
ROOT
ATOM      1  C4  LSA d          -1.618   4.989  85.378  0.00  0.00     0.002 A 
ATOM      2  C5  LSA d          -2.096   4.029  86.271  0.00  0.00     0.026 A 
ATOM      3  C6  LSA d          -1.784   2.709  86.008  0.00  0.00     0.090 A 
ATOM      4  C7  LSA d          -0.845   0.829  84.822  0.00  0.00     0.264 A 
ATOM      5  C3  LSA d          -0.865   4.625  84.268  0.00  0.00     0.001 A 
ATOM      6  S10 LSA d          -2.192   1.261  86.869  0.00  0.00     0.261 S 
ATOM      7  N9  LSA d          -1.496   0.177  85.936  0.00  0.00    -0.284 N 
ATOM      8  C1  LSA d          -1.033   2.353  84.896  0.00  0.00     0.014 A 
ATOM      9  C2  LSA d          -0.561   3.295  84.003  0.00  0.00     0.013 A 
ATOM     10  O12 LSA d          -1.567   1.195  88.202  0.00  0.00    -0.200 OA
ATOM     11  O11 LSA d          -3.643   1.096  86.911  0.00  0.00    -0.200 OA
ATOM     12  H5  LSA d          -1.507  -0.810  86.096  0.00  0.00     0.175 HD
ENDROOT
BRANCH   4  13
ATOM     13  O8  LSA d          -0.170   0.202  83.811  0.00  0.00    -0.372 OA
ATOM     14  H6  LSA d          -0.760  -0.385  83.354  0.00  0.00     0.212 HD
ENDBRANCH   4  13
TORSDOF 1
