4x6i_ligand

Created by X-TOOL on Sun Nov 13 14:29:06 2016
 42 43  0  0  0  0  0  0  0  0999 V2000
   13.3410   10.1500  -19.1330  C 0  0  0  1  0  2
   13.0860    8.7350  -18.9810  C 0  0  0  3  0  4
   15.2850    7.6420  -18.9350  C 0  0  0  1  0  3
   16.2080    6.5710  -19.5510  C 0  0  0  1  0  4
   16.8330    4.0990  -19.1030  C 0  0  0  3  0  4
   16.5320    3.7670  -20.5630  C 0  0  0  3  0  4
   16.7430    4.9760  -21.4780  C 0  0  0  3  0  4
   15.8360    6.1350  -20.9890  C 0  0  0  3  0  4
   17.9830    8.2220  -20.1330  C 0  0  0  1  0  3
   19.2790    8.7300  -19.5760  C 0  0  0  1  0  3
   19.5300   10.0910  -19.4980  C 0  0  0  1  0  3
   20.1800    7.8170  -18.9730  C 0  0  0  2  0  3
   13.5730   11.2690  -19.2180  N 0  0  0  1  0  1
   14.1110    7.8830  -19.5270  N 0  0  0  2  0  3
   15.5760    8.2170  -17.8780  O 0  0  0  1  0  1
   16.0520    5.3510  -18.6370  C 0  0  0  3  0  4
   17.6020    7.0350  -19.5680  N 0  0  0  2  0  3
   17.1900    8.9500  -20.7880  O 0  0  0  1  0  1
   20.6580   10.5420  -18.8500  C 0  0  0  2  0  3
   21.5280    9.6410  -18.2460  C 0  0  0  1  0  3
   21.3190    8.2690  -18.3020  C 0  0  0  2  0  3
   18.7040   11.1380  -20.0750  N 0  0  0  3  0  3
   23.0140   10.3880  -17.3230 Br 0  0  0  1  0  1
   12.1380    8.5001  -19.4870  H 0  0  0  1  0  1
   12.9926    8.5158  -17.9071  H 0  0  0  1  0  1
   17.9110    4.2883  -18.9937  H 0  0  0  1  0  1
   16.5454    3.2432  -18.4746  H 0  0  0  1  0  1
   15.4857    3.4376  -20.6445  H 0  0  0  1  0  1
   17.1986    2.9545  -20.8878  H 0  0  0  1  0  1
   16.4770    4.7089  -22.5114  H 0  0  0  1  0  1
   17.7967    5.2895  -21.4399  H 0  0  0  1  0  1
   15.9553    6.9936  -21.6661  H 0  0  0  1  0  1
   14.7883    5.8003  -21.0024  H 0  0  0  1  0  1
   19.9825    6.7528  -19.0333  H 0  0  0  1  0  1
   13.9326    7.4427  -20.4070  H 0  0  0  1  0  1
   14.9841    5.0919  -18.5884  H 0  0  0  1  0  1
   16.4089    5.6252  -17.6333  H 0  0  0  1  0  1
   18.3030    6.4584  -19.1484  H 0  0  0  1  0  1
   20.8689   11.6046  -18.8105  H 0  0  0  1  0  1
   22.0135    7.5751  -17.8424  H 0  0  0  1  0  1
   17.8397   10.8932  -20.5790  H 0  0  0  1  0  1
   18.9828   12.1250  -19.9800  H 0  0  0  1  0  1
  2  1  1  0  0  2
  1 13  3  0  0  2
 14  2  1  0  0  2
  4  3  1  0  0  2
  3 14  1  0  0  2
  3 15  2  0  0  2
  4  8  1  0  0  1
  4 16  1  0  0  1
 17  4  1  0  0  2
  5  6  1  0  0  1
 16  5  1  0  0  1
  7  6  1  0  0  1
  8  7  1  0  0  1
  9 10  1  0  0  2
  9 17  1  0  0  2
  9 18  2  0  0  2
 10 11  4  0  0  1
 10 12  4  0  0  1
 11 19  4  0  0  1
 11 22  1  0  0  2
 12 21  4  0  0  1
 19 20  4  0  0  1
 20 21  4  0  0  1
 20 23  1  0  0  2
  2 24  1  0  0  2
  2 25  1  0  0  2
  5 26  1  0  0  2
  5 27  1  0  0  2
  6 28  1  0  0  2
  6 29  1  0  0  2
  7 30  1  0  0  2
  7 31  1  0  0  2
  8 32  1  0  0  2
  8 33  1  0  0  2
 12 34  1  0  0  2
 14 35  1  0  0  2
 16 36  1  0  0  2
 16 37  1  0  0  2
 17 38  1  0  0  2
 19 39  1  0  0  2
 21 40  1  0  0  2
 22 41  1  0  0  2
 22 42  1  0  0  2
M  END
> <MOLECULAR_FORMULA>
C16H19N4O2Br

> <MOLECULAR_WEIGHT>
379.1

> <NUM_HB_ATOMS>
6  

> <NUM_ROTOR>
3  

> <XLOGP2>
2.29 

$$$$
