2f7o_ligand

Created by X-TOOL on Fri Sep 26 17:34:33 2014
 25 25  0  0  0  0  0  0  0  0999 V2000
   31.3190   65.8770    9.4500  C 0  0  0  2  0  4
   31.1480   64.5080    9.9440  N 0  3  0  4  0  4
   32.8010   66.1880    9.5120  C 0  0  0  2  0  4
   33.6220   65.0880    9.9130  O 0  0  0  2  0  2
   33.0740   66.7150    8.0990  C 0  0  0  2  0  4
   33.8360   65.8240    7.2910  O 0  0  0  2  0  2
   31.7990   67.0490    7.3310  C 0  0  0  2  0  4
   31.7660   67.2890    5.9230  O 0  0  0  2  0  2
   30.9360   65.9490    7.9790  C 0  0  0  2  0  4
   29.2320   66.5180    8.0170  S 0  0  0  1  0  2
   28.4200   65.3730    9.1430  C 0  0  0  4  0  4
   30.7289   66.5869   10.0481  H 0  0  0  1  0  1
   31.4034   64.4680   10.9183  H 0  0  0  1  0  1
   31.7381   63.8841    9.4161  H 0  0  0  1  0  1
   30.1849   64.2302    9.8375  H 0  0  0  1  0  1
   32.9731   66.9952   10.2392  H 0  0  0  1  0  1
   33.5149   64.3731    9.2966  H 0  0  0  1  0  1
   33.6533   67.6430    8.2142  H 0  0  0  1  0  1
   33.9679   66.2104    6.4332  H 0  0  0  1  0  1
   31.4406   68.0099    7.7288  H 0  0  0  1  0  1
   30.8740   67.4776    5.6559  H 0  0  0  1  0  1
   31.0479   64.9845    7.4621  H 0  0  0  1  0  1
   27.3571   65.6409    9.2348  H 0  0  0  1  0  1
   28.8990   65.4292   10.1316  H 0  0  0  1  0  1
   28.5075   64.3490    8.7509  H 0  0  0  1  0  1
  1  2  1  0  0  2
  1  3  1  0  0  1
  1  9  1  0  0  1
  3  4  1  0  0  2
  3  5  1  0  0  1
  5  6  1  0  0  2
  5  7  1  0  0  1
  7  8  1  0  0  2
  7  9  1  0  0  1
  9 10  1  0  0  2
 10 11  1  0  0  2
  1 12  1  0  0  2
  2 13  1  0  0  2
  2 14  1  0  0  2
  2 15  1  0  0  2
  3 16  1  0  0  2
  4 17  1  0  0  2
  5 18  1  0  0  2
  6 19  1  0  0  2
  7 20  1  0  0  2
  8 21  1  0  0  2
  9 22  1  0  0  2
 11 23  1  0  0  2
 11 24  1  0  0  2
 11 25  1  0  0  2
M  END
> <MOLECULAR_FORMULA>
C6H14NO3S

> <MOLECULAR_WEIGHT>
180.1

> <NUM_HB_ATOMS>
5  

> <NUM_ROTOR>
1  

> <XLOGP2>
-1.37

$$$$
