REMARK  5 active torsions:
REMARK  status: ('A' for Active; 'I' for Inactive)
REMARK    1  A    between atoms: C5_1  and  N5_2 
REMARK    2  A    between atoms: C4_3  and  O4_4 
REMARK    3  A    between atoms: C3_5  and  O3_6 
REMARK    4  A    between atoms: C2_7  and  O2_8 
REMARK    5  A    between atoms: C1_9  and  S6_10 
ROOT
ATOM      1  C5  MSN d          31.319  65.877   9.450  0.00  0.00     0.230 C 
ATOM      2  C4  MSN d          32.801  66.188   9.512  0.00  0.00     0.181 C 
ATOM      3  C3  MSN d          33.074  66.715   8.099  0.00  0.00     0.178 C 
ATOM      4  C2  MSN d          31.799  67.049   7.331  0.00  0.00     0.165 C 
ATOM      5  C1  MSN d          30.936  65.949   7.979  0.00  0.00     0.111 C 
ENDROOT
BRANCH   1   6
ATOM      6  N5  MSN d          31.148  64.508   9.944  0.00  0.00    -0.071 N 
ATOM      7  H2  MSN d          31.403  64.468  10.918  0.00  0.00     0.274 HD
ATOM      8  H3  MSN d          31.738  63.884   9.416  0.00  0.00     0.274 HD
ATOM      9  H4  MSN d          30.185  64.230   9.838  0.00  0.00     0.274 HD
ENDBRANCH   1   6
BRANCH   2  10
ATOM     10  O4  MSN d          33.622  65.088   9.913  0.00  0.00    -0.391 OA
ATOM     11  H6  MSN d          33.515  64.373   9.297  0.00  0.00     0.210 HD
ENDBRANCH   2  10
BRANCH   5  12
ATOM     12  S6  MSN d          29.232  66.518   8.017  0.00  0.00    -0.164 SA
ATOM     13  C7  MSN d          28.420  65.373   9.143  0.00  0.00     0.090 C 
ENDBRANCH   5  12
BRANCH   3  14
ATOM     14  O3  MSN d          33.836  65.824   7.291  0.00  0.00    -0.390 OA
ATOM     15  H8  MSN d          33.968  66.210   6.433  0.00  0.00     0.210 HD
ENDBRANCH   3  14
BRANCH   4  16
ATOM     16  O2  MSN d          31.766  67.289   5.923  0.00  0.00    -0.392 OA
ATOM     17  H10 MSN d          30.874  67.478   5.656  0.00  0.00     0.210 HD
ENDBRANCH   4  16
TORSDOF 5
