REMARK  8 active torsions:
REMARK  status: ('A' for Active; 'I' for Inactive)
REMARK       I    between atoms: C6_2  and  N1_3 
REMARK    1  A    between atoms: C6_2  and  C7_4 
REMARK    2  A    between atoms: C7_4  and  C8_5 
REMARK    3  A    between atoms: C7_4  and  N2_10 
REMARK    4  A    between atoms: C8_5  and  C9_6 
REMARK    5  A    between atoms: C9_6  and  C10_7 
REMARK       I    between atoms: N2_10  and  C11_11 
REMARK    6  A    between atoms: C11_11  and  C27_13 
REMARK    7  A    between atoms: C16_16  and  C18_19 
REMARK    8  A    between atoms: C20_21  and  C21_24 
ROOT
ATOM      1  C27 E37 d          -7.860 -24.957   4.205  0.00  0.00     0.032 A 
ATOM      2  C28 E37 d          -6.588 -25.374   3.849  0.00  0.00     0.018 A 
ATOM      3  C15 E37 d          -5.476 -24.772   4.429  0.00  0.00     0.014 A 
ATOM      4  C16 E37 d          -5.633 -23.742   5.335  0.00  0.00    -0.019 A 
ATOM      5  C17 E37 d          -6.900 -23.364   5.728  0.00  0.00     0.014 A 
ATOM      6  C14 E37 d          -8.005 -23.960   5.147  0.00  0.00     0.018 A 
ENDROOT
BRANCH   1   7
ATOM      7  C11 E37 d          -9.082 -25.623   3.629  0.00  0.00     0.252 C 
ATOM      8  N2  E37 d          -8.992 -26.417   2.453  0.00  0.00    -0.344 N 
ATOM      9  H8  E37 d          -8.121 -26.520   1.972  0.00  0.00     0.163 HD
ATOM     10  O2  E37 d         -10.141 -25.556   4.193  0.00  0.00    -0.268 OA
BRANCH   8  11
ATOM     11  C7  E37 d         -10.186 -27.072   1.968  0.00  0.00     0.177 C 
BRANCH  11  12
ATOM     12  C6  E37 d         -10.201 -28.548   2.338  0.00  0.00     0.238 C 
ATOM     13  O1  E37 d         -10.893 -29.339   1.752  0.00  0.00    -0.271 OA
ATOM     14  N1  E37 d          -9.396 -29.036   3.406  0.00  0.00    -0.368 N 
ATOM     15  H1  E37 d          -8.808 -28.408   3.916  0.00  0.00     0.159 HD
ATOM     16  H2  E37 d          -9.419 -30.006   3.646  0.00  0.00     0.159 HD
ENDBRANCH  11  12
BRANCH  11  17
ATOM     17  C8  E37 d         -10.237 -26.843   0.490  0.00  0.00     0.045 C 
BRANCH  17  18
ATOM     18  C9  E37 d         -10.333 -25.364   0.222  0.00  0.00     0.116 C 
BRANCH  18  19
ATOM     19  C10 E37 d          -8.986 -24.691   0.158  0.00  0.00     0.172 C 
ATOM     20  O4E E37 d          -9.096 -23.475   0.360  0.00  0.00    -0.648 OA
ATOM     21  O4  E37 d          -8.103 -25.508  -0.070  0.00  0.00    -0.648 OA
ENDBRANCH  18  19
ENDBRANCH  17  18
ENDBRANCH  11  17
ENDBRANCH   8  11
ENDBRANCH   1   7
BRANCH   4  22
ATOM     22  C18 E37 d          -4.537 -23.204   5.976  0.00  0.00     0.015 A 
ATOM     23  C19 E37 d          -3.218 -23.651   5.782  0.00  0.00     0.032 A 
ATOM     24  C20 E37 d          -2.216 -22.865   6.808  0.00  0.00    -0.018 A 
ATOM     25  C29 E37 d          -2.961 -22.011   7.633  0.00  0.00     0.062 A 
ATOM     26  S7  E37 d          -4.567 -22.123   7.222  0.00  0.00    -0.100 SA
BRANCH  24  27
ATOM     27  C21 E37 d          -0.721 -23.083   6.870  0.00  0.00    -0.025 A 
ATOM     28  C22 E37 d           0.035 -22.232   7.594  0.00  0.00     0.012 A 
ATOM     29  C23 E37 d           1.421 -22.489   7.645  0.00  0.00     0.001 A 
ATOM     30  C24 E37 d           1.943 -23.626   6.948  0.00  0.00     0.000 A 
ATOM     31  C25 E37 d           1.058 -24.470   6.240  0.00  0.00     0.001 A 
ATOM     32  C26 E37 d          -0.249 -24.133   6.255  0.00  0.00     0.012 A 
ENDBRANCH  24  27
ENDBRANCH   4  22
TORSDOF 8
