REMARK  7 active torsions:
REMARK  status: ('A' for Active; 'I' for Inactive)
REMARK    1  A    between atoms: O2_12  and  P_1 
REMARK    2  A    between atoms: C5_6  and  O5_5 
REMARK    3  A    between atoms: C4_7  and  C5_6 
REMARK    4  A    between atoms: C3_9  and  O3_10 
REMARK    5  A    between atoms: C2_11  and  O2_12 
REMARK    6  A    between atoms: C1_13  and  N9_14 
REMARK    7  A    between atoms: C2_21  and  N2_22 
ROOT
ATOM      1  C4  MOL d          19.426  33.073  23.541  0.00  0.00     0.179 C 
ATOM      2  O4  MOL d          18.389  32.312  22.824  0.00  0.00    -0.353 OA
ATOM      3  C3  MOL d          20.277  33.764  22.453  0.00  0.00     0.183 C 
ATOM      4  C2  MOL d          19.233  33.920  21.334  0.00  0.00     0.216 C 
ATOM      5  C1  MOL d          18.504  32.608  21.416  0.00  0.00     0.263 C 
ENDROOT
BRANCH   5   6
ATOM      6  N9  MOL d          17.188  32.423  20.848  0.00  0.00    -0.293 N 
ATOM      7  C8  MOL d          16.781  31.361  20.131  0.00  0.00     0.214 A 
ATOM      8  N7  MOL d          15.492  31.271  20.035  0.00  0.00    -0.234 NA
ATOM      9  C5  MOL d          14.960  32.331  20.765  0.00  0.00     0.173 A 
ATOM     10  C6  MOL d          13.637  32.755  21.028  0.00  0.00     0.292 A 
ATOM     11  C4  MOL d          16.019  33.040  21.275  0.00  0.00     0.186 A 
ATOM     12  O6  MOL d          12.527  32.298  20.669  0.00  0.00    -0.265 OA
ATOM     13  N1  MOL d          13.574  33.890  21.815  0.00  0.00    -0.152 N 
ATOM     14  C2  MOL d          14.728  34.526  22.267  0.00  0.00     0.703 A 
ATOM     15  H10 MOL d          12.680  34.263  22.065  0.00  0.00     0.187 HD
ATOM     16  N3  MOL d          15.948  34.153  22.039  0.00  0.00    -0.044 NA
BRANCH  14  17
ATOM     17  N2  MOL d          14.485  35.596  23.032  0.00  0.00    -0.233 N 
ATOM     18  H11 MOL d          15.269  36.141  23.419  0.00  0.00     0.174 HD
ATOM     19  H12 MOL d          13.514  35.875  23.233  0.00  0.00     0.174 HD
ENDBRANCH  14  17
ENDBRANCH   5   6
BRANCH   4  20
ATOM     20  O2  MOL d          19.903  34.154  20.106  0.00  0.00    -0.270 OA
BRANCH  20  21
ATOM     21  P   MOL d          19.664  35.430  19.218  0.00  0.00     0.422 P 
ATOM     22  O1P MOL d          20.756  35.186  18.064  0.00  0.00    -0.617 OA
ATOM     23  O2P MOL d          20.158  36.605  20.027  0.00  0.00    -0.617 OA
ATOM     24  O3P MOL d          18.407  35.450  18.511  0.00  0.00    -0.617 OA
ENDBRANCH  20  21
ENDBRANCH   4  20
BRANCH   1  25
ATOM     25  C5  MOL d          18.759  33.935  24.586  0.00  0.00     0.198 C 
BRANCH  25  26
ATOM     26  O5  MOL d          17.770  34.775  23.990  0.00  0.00    -0.398 OA
ATOM     27  H1  MOL d          17.111  34.236  23.569  0.00  0.00     0.209 HD
ENDBRANCH  25  26
ENDBRANCH   1  25
BRANCH   3  28
ATOM     28  O3  MOL d          21.265  32.832  22.049  0.00  0.00    -0.390 OA
ATOM     29  H6  MOL d          21.811  33.222  21.377  0.00  0.00     0.210 HD
ENDBRANCH   3  28
TORSDOF 7
