REMARK  17 active torsions:
REMARK  status: ('A' for Active; 'I' for Inactive)
REMARK    1  A    between atoms: C21_2  and  C20_4 
REMARK    2  A    between atoms: C20_4  and  C19_5 
REMARK    3  A    between atoms: C19_5  and  C17_6 
REMARK    4  A    between atoms: C17_6  and  N_7 
REMARK    5  A    between atoms: C17_6  and  C18_36 
REMARK       I    between atoms: N_7  and  C_8 
REMARK    6  A    between atoms: C_8  and  C14_10 
REMARK    7  A    between atoms: C11_13  and  C10_16 
REMARK    8  A    between atoms: C10_16  and  C1_17 
REMARK    9  A    between atoms: C10_16  and  C5_29 
REMARK   10  A    between atoms: C1_17  and  C2_18 
REMARK   11  A    between atoms: C2_18  and  C3_19 
REMARK   12  A    between atoms: C3_19  and  C4_20 
REMARK   13  A    between atoms: C8_24  and  N2_25 
REMARK   14  A    between atoms: C7_27  and  N8_28 
REMARK   15  A    between atoms: C5_29  and  OA2_30 
REMARK   16  A    between atoms: C5_29  and  OA1_31 
REMARK   17  A    between atoms: C5_29  and  C6_32 
ROOT
ATOM      1  C10 KEU d          72.364  22.916  29.274  0.00  0.00     0.090 C 
ENDROOT
BRANCH   1   2
ATOM      2  C11 KEU d          72.864  22.976  30.820  0.00  0.00    -0.048 A 
ATOM      3  C12 KEU d          72.506  24.094  31.819  0.00  0.00     0.009 A 
ATOM      4  C13 KEU d          73.094  24.028  33.132  0.00  0.00     0.017 A 
ATOM      5  C14 KEU d          74.025  22.910  33.476  0.00  0.00     0.032 A 
ATOM      6  C15 KEU d          74.346  21.827  32.503  0.00  0.00     0.017 A 
ATOM      7  C16 KEU d          73.762  21.877  31.214  0.00  0.00     0.009 A 
BRANCH   5   8
ATOM      8  C   KEU d          74.615  22.967  34.790  0.00  0.00     0.252 C 
ATOM      9  N   KEU d          75.558  22.007  35.120  0.00  0.00    -0.342 N 
ATOM     10  H6  KEU d          75.766  21.281  34.465  0.00  0.00     0.163 HD
ATOM     11  O   KEU d          74.311  23.853  35.557  0.00  0.00    -0.268 OA
BRANCH   9  12
ATOM     12  C17 KEU d          76.279  22.033  36.447  0.00  0.00     0.186 C 
BRANCH  12  13
ATOM     13  C19 KEU d          75.956  20.703  37.035  0.00  0.00     0.046 C 
BRANCH  13  14
ATOM     14  C20 KEU d          74.461  20.478  37.250  0.00  0.00     0.116 C 
BRANCH  14  15
ATOM     15  C21 KEU d          74.142  19.161  37.833  0.00  0.00     0.172 C 
ATOM     16  O4  KEU d          72.840  19.045  38.006  0.00  0.00    -0.648 OA
ATOM     17  O5  KEU d          74.997  18.317  38.113  0.00  0.00    -0.648 OA
ENDBRANCH  14  15
ENDBRANCH  13  14
ENDBRANCH  12  13
BRANCH  12  18
ATOM     18  C18 KEU d          77.824  22.367  36.249  0.00  0.00     0.196 C 
ATOM     19  O3  KEU d          78.454  22.790  37.205  0.00  0.00    -0.646 OA
ATOM     20  O2  KEU d          78.442  22.183  35.030  0.00  0.00    -0.646 OA
ENDBRANCH  12  18
ENDBRANCH   9  12
ENDBRANCH   5   8
ENDBRANCH   1   2
BRANCH   1  21
ATOM     21  C1  KEU d          73.431  22.236  28.398  0.00  0.00     0.015 C 
BRANCH  21  22
ATOM     22  C2  KEU d          74.479  23.545  28.109  0.00  0.00     0.006 C 
BRANCH  22  23
ATOM     23  C3  KEU d          75.256  23.531  26.741  0.00  0.00     0.047 C 
BRANCH  23  24
ATOM     24  C4  KEU d          76.515  24.210  27.183  0.00  0.00     0.042 A 
ATOM     25  C9  KEU d          76.407  25.512  26.878  0.00  0.00     0.203 A 
ATOM     26  O1  KEU d          75.406  26.283  26.270  0.00  0.00    -0.171 OA
ATOM     27  N3  KEU d          77.519  26.643  27.167  0.00  0.00    -0.166 N 
ATOM     28  C8  KEU d          78.653  26.213  27.769  0.00  0.00     0.702 A 
ATOM     29  H18 KEU d          77.380  27.601  26.918  0.00  0.00     0.186 HD
ATOM     30  N1  KEU d          78.796  24.990  28.038  0.00  0.00    -0.047 NA
ATOM     31  C7  KEU d          77.809  23.914  27.821  0.00  0.00     0.151 A 
BRANCH  28  32
ATOM     32  N2  KEU d          79.646  27.065  28.061  0.00  0.00    -0.233 N 
ATOM     33  H19 KEU d          80.502  26.721  28.519  0.00  0.00     0.174 HD
ATOM     34  H20 KEU d          79.553  28.064  27.827  0.00  0.00     0.174 HD
ENDBRANCH  28  32
BRANCH  31  35
ATOM     35  N8  KEU d          78.134  22.633  28.205  0.00  0.00    -0.383 N 
ATOM     36  H21 KEU d          79.043  22.444  28.650  0.00  0.00     0.157 HD
ATOM     37  H22 KEU d          77.468  21.863  28.047  0.00  0.00     0.157 HD
ENDBRANCH  31  35
ENDBRANCH  23  24
ENDBRANCH  22  23
ENDBRANCH  21  22
ENDBRANCH   1  21
BRANCH   1  38
ATOM     38  C5  KEU d          70.959  22.346  28.843  0.00  0.00     0.268 C 
BRANCH  38  39
ATOM     39  OA2 KEU d          70.495  22.747  27.853  0.00  0.00    -0.358 OA
ATOM     40  H23 KEU d          69.571  22.528  27.826  0.00  0.00     0.213 HD
ENDBRANCH  38  39
BRANCH  38  41
ATOM     41  OA1 KEU d          70.073  23.139  29.911  0.00  0.00    -0.358 OA
ATOM     42  H24 KEU d          69.158  22.911  29.794  0.00  0.00     0.213 HD
ENDBRANCH  38  41
BRANCH  38  43
ATOM     43  C6  KEU d          70.564  20.933  29.329  0.00  0.00     0.445 C 
ATOM     44  F2  KEU d          70.665  20.605  30.673  0.00  0.00    -0.166 F 
ATOM     45  F1  KEU d          71.515  20.214  28.743  0.00  0.00    -0.166 F 
ATOM     46  F   KEU d          69.333  20.634  28.881  0.00  0.00    -0.166 F 
ENDBRANCH  38  43
ENDBRANCH   1  38
TORSDOF 17
