REMARK  4 active torsions:
REMARK  status: ('A' for Active; 'I' for Inactive)
REMARK    1  A    between atoms: O2_1  and  C13_2 
REMARK    2  A    between atoms: C4_7  and  C2_8 
REMARK    3  A    between atoms: C2_8  and  C1_11 
REMARK    4  A    between atoms: C8_16  and  O1_17 
ROOT
ATOM      1  C2  MOL d          48.420 -28.969 -95.420  0.00  0.00     0.007 C 
ATOM      2  C3  MOL d          49.724 -29.612 -94.829  0.00  0.00     0.025 C 
ATOM      3  C5  MOL d          47.232 -29.712 -94.754  0.00  0.00     0.025 C 
ENDROOT
BRANCH   1   4
ATOM      4  C4  MOL d          48.458 -29.165 -96.992  0.00  0.00    -0.045 A 
ATOM      5  C11 MOL d          47.468 -29.936 -97.711  0.00  0.00     0.011 A 
ATOM      6  C12 MOL d          47.525 -30.087 -99.129  0.00  0.00     0.037 A 
ATOM      7  C13 MOL d          48.564 -29.478 -99.858  0.00  0.00     0.065 A 
ATOM      8  C14 MOL d          49.559 -28.714 -99.198  0.00  0.00     0.037 A 
ATOM      9  C15 MOL d          49.508 -28.558 -97.784  0.00  0.00     0.011 A 
BRANCH   7  10
ATOM     10  O2  MOL d          48.579 -29.648-101.211  0.00  0.00    -0.361 OA
ATOM     11  H1  MOL d          49.326 -29.190-101.578  0.00  0.00     0.217 HD
ENDBRANCH   7  10
ENDBRANCH   1   4
BRANCH   1  12
ATOM     12  C1  MOL d          48.215 -27.437 -95.066  0.00  0.00    -0.045 A 
ATOM     13  C10 MOL d          49.112 -26.665 -94.248  0.00  0.00     0.011 A 
ATOM     14  C9  MOL d          48.846 -25.286 -93.971  0.00  0.00     0.037 A 
ATOM     15  C8  MOL d          47.686 -24.662 -94.510  0.00  0.00     0.065 A 
ATOM     16  C7  MOL d          46.796 -25.386 -95.314  0.00  0.00     0.037 A 
ATOM     17  C6  MOL d          47.051 -26.748 -95.586  0.00  0.00     0.011 A 
BRANCH  15  18
ATOM     18  O1  MOL d          47.454 -23.342 -94.230  0.00  0.00    -0.361 OA
ATOM     19  H16 MOL d          48.151 -23.010 -93.677  0.00  0.00     0.217 HD
ENDBRANCH  15  18
ENDBRANCH   1  12
TORSDOF 4
