REMARK  14 active torsions:
REMARK  status: ('A' for Active; 'I' for Inactive)
REMARK    1  A    between atoms: C_1  and  OA_3 
REMARK       I    between atoms: N_11  and  C_1 
REMARK    2  A    between atoms: OA_3  and  CB_4 
REMARK    3  A    between atoms: CB_4  and  CG_5 
REMARK    4  A    between atoms: CA_12  and  N_11 
REMARK    5  A    between atoms: P_13  and  CA_12 
REMARK    6  A    between atoms: P_13  and  N_16 
REMARK    7  A    between atoms: N_16  and  CA_17 
REMARK    8  A    between atoms: CA_17  and  CB_20 
REMARK    9  A    between atoms: CA_17  and  C_18 
REMARK       I    between atoms: C_18  and  N_24 
REMARK   10  A    between atoms: CB_20  and  CG_21 
REMARK   11  A    between atoms: N_24  and  CA_25 
REMARK   12  A    between atoms: CA_25  and  CB_28 
REMARK   13  A    between atoms: CA_25  and  C_26 
REMARK   14  A    between atoms: CB_28  and  CG_29 
ROOT
ATOM      1  N   MOL d          51.712  18.517  -4.509  0.00  0.00    -0.334 N 
ATOM      2  H11 MOL d          50.807  18.431  -4.093  0.00  0.00     0.164 HD
ENDROOT
BRANCH   1   3
ATOM      3  CA  MOL d          52.836  18.229  -3.639  0.00  0.00     0.178 C 
BRANCH   3   4
ATOM      4  CB  MOL d          52.473  18.323  -2.131  0.00  0.00     0.038 C 
BRANCH   4   5
ATOM      5  CG  MOL d          53.700  18.161  -1.241  0.00  0.00    -0.020 C 
ATOM      6  CD1 MOL d          54.632  19.371  -1.435  0.00  0.00     0.009 C 
ATOM      7  CD2 MOL d          53.211  18.083   0.219  0.00  0.00     0.009 C 
ENDBRANCH   4   5
ENDBRANCH   3   4
BRANCH   3   8
ATOM      8  C   MOL d          53.530  16.886  -3.904  0.00  0.00     0.241 C 
ATOM      9  O   MOL d          54.757  16.775  -3.834  0.00  0.00    -0.271 OA
ATOM     10  N   MOL d          52.737  15.885  -4.194  0.00  0.00    -0.345 N 
ATOM     11  H22 MOL d          51.754  16.063  -4.241  0.00  0.00     0.163 HD
BRANCH  10  12
ATOM     12  CA  MOL d          53.202  14.521  -4.453  0.00  0.00     0.185 C 
BRANCH  12  13
ATOM     13  CB  MOL d          53.449  13.693  -3.139  0.00  0.00     0.040 C 
BRANCH  13  14
ATOM     14  CG  MOL d          52.250  13.487  -2.260  0.00  0.00    -0.020 C 
ATOM     15  CD1 MOL d          52.340  12.169  -1.535  0.00  0.00     0.009 C 
ATOM     16  CD2 MOL d          52.251  14.541  -1.171  0.00  0.00     0.009 C 
ENDBRANCH  13  14
ENDBRANCH  12  13
BRANCH  12  17
ATOM     17  C   MOL d          52.389  13.836  -5.524  0.00  0.00     0.196 C 
ATOM     18  O   MOL d          51.325  14.363  -5.943  0.00  0.00    -0.646 OA
ATOM     19  OXT MOL d          52.791  12.766  -6.071  0.00  0.00    -0.646 OA
ENDBRANCH  12  17
ENDBRANCH  10  12
ENDBRANCH   3   8
ENDBRANCH   1   3
BRANCH   1  20
ATOM     20  P   MOL d          51.731  18.970  -6.103  0.00  0.00     0.224 P 
ATOM     21  O1P MOL d          53.074  18.641  -6.573  0.00  0.00    -0.651 OA
ATOM     22  O2P MOL d          51.501  20.472  -6.137  0.00  0.00    -0.651 OA
BRANCH  20  23
ATOM     23  CA  MOL d          50.444  17.978  -6.700  0.00  0.00     0.252 C 
BRANCH  23  24
ATOM     24  N   MOL d          50.131  18.628  -7.886  0.00  0.00    -0.325 N 
ATOM     25  C   MOL d          49.731  17.921  -8.917  0.00  0.00     0.361 C 
ATOM     26  O   MOL d          49.624  16.719  -9.015  0.00  0.00    -0.238 OA
ATOM     27  H8  MOL d          50.209  19.623  -7.954  0.00  0.00     0.165 HD
BRANCH  25  28
ATOM     28  OA  MOL d          49.436  18.746  -9.880  0.00  0.00    -0.299 OA
BRANCH  28  29
ATOM     29  CB  MOL d          48.880  18.292 -11.185  0.00  0.00     0.219 C 
BRANCH  29  30
ATOM     30  CG  MOL d          47.542  19.040 -11.568  0.00  0.00    -0.034 A 
ATOM     31  CD1 MOL d          46.478  18.975 -10.703  0.00  0.00     0.009 A 
ATOM     32  CE1 MOL d          45.248  19.585 -10.962  0.00  0.00     0.001 A 
ATOM     33  CZ  MOL d          45.111  20.300 -12.094  0.00  0.00     0.000 A 
ATOM     34  CE2 MOL d          46.154  20.414 -12.958  0.00  0.00     0.001 A 
ATOM     35  CD2 MOL d          47.380  19.770 -12.725  0.00  0.00     0.009 A 
ENDBRANCH  29  30
ENDBRANCH  28  29
ENDBRANCH  25  28
ENDBRANCH  23  24
ENDBRANCH  20  23
ENDBRANCH   1  20
TORSDOF 14
