REMARK  9 active torsions:
REMARK  status: ('A' for Active; 'I' for Inactive)
REMARK    1  A    between atoms: N10_17  and  C1'_19 
REMARK    2  A    between atoms: C1'_19  and  C2'_20 
REMARK    3  A    between atoms: C2'_20  and  C3'_22 
REMARK    4  A    between atoms: C2'_20  and  O2'_21 
REMARK    5  A    between atoms: C3'_22  and  C4'_24 
REMARK    6  A    between atoms: C3'_22  and  O3'_23 
REMARK    7  A    between atoms: C4'_24  and  C5'_26 
REMARK    8  A    between atoms: C4'_24  and  O4'_25 
REMARK    9  A    between atoms: C5'_26  and  O5'_27 
ROOT
ATOM      1  N1  RBF d          74.570  22.331  38.890  0.00  0.00    -0.173 NA
ATOM      2  C2  RBF d          73.828  21.448  38.124  0.00  0.00     0.350 A 
ATOM      3  O2  RBF d          74.439  20.711  37.388  0.00  0.00    -0.244 OA
ATOM      4  N3  RBF d          72.475  21.518  38.299  0.00  0.00    -0.272 N 
ATOM      5  C4  RBF d          71.725  22.370  39.150  0.00  0.00     0.282 A 
ATOM      6  O4  RBF d          70.518  22.315  39.199  0.00  0.00    -0.265 OA
ATOM      7  C4A RBF d          72.597  23.330  39.960  0.00  0.00     0.171 A 
ATOM      8  N5  RBF d          72.018  24.187  40.789  0.00  0.00    -0.237 NA
ATOM      9  C5A RBF d          72.836  25.083  41.541  0.00  0.00     0.085 A 
ATOM     10  C6  RBF d          72.122  26.012  42.422  0.00  0.00     0.041 A 
ATOM     11  C7  RBF d          72.930  26.901  43.147  0.00  0.00    -0.054 A 
ATOM     12  C7M RBF d          72.335  27.959  44.110  0.00  0.00     0.049 C 
ATOM     13  C8  RBF d          74.412  26.855  42.998  0.00  0.00    -0.054 A 
ATOM     14  C8M RBF d          75.283  27.871  43.815  0.00  0.00     0.049 C 
ATOM     15  C9  RBF d          75.128  25.975  42.173  0.00  0.00     0.039 A 
ATOM     16  C9A RBF d          74.278  25.068  41.424  0.00  0.00     0.065 A 
ATOM     17  N10 RBF d          74.850  24.078  40.486  0.00  0.00    -0.325 N 
ATOM     18  C10 RBF d          74.016  23.249  39.784  0.00  0.00     0.170 A 
ATOM     19  H1  RBF d          71.937  20.878  37.750  0.00  0.00     0.174 HD
ENDROOT
BRANCH  17  20
ATOM     20  C1' RBF d          76.321  24.037  40.354  0.00  0.00     0.165 C 
BRANCH  20  21
ATOM     21  C2' RBF d          76.975  24.808  39.212  0.00  0.00     0.167 C 
BRANCH  21  22
ATOM     22  C3' RBF d          78.423  25.010  39.541  0.00  0.00     0.179 C 
BRANCH  22  23
ATOM     23  C4' RBF d          78.776  25.998  40.603  0.00  0.00     0.173 C 
BRANCH  23  24
ATOM     24  C5' RBF d          80.153  26.759  40.685  0.00  0.00     0.198 C 
BRANCH  24  25
ATOM     25  O5' RBF d          80.528  27.014  39.320  0.00  0.00    -0.398 OA
ATOM     26  H20 RBF d          79.860  27.546  38.903  0.00  0.00     0.209 HD
ENDBRANCH  24  25
ENDBRANCH  23  24
BRANCH  23  27
ATOM     27  O4' RBF d          77.965  27.187  40.543  0.00  0.00    -0.391 OA
ATOM     28  H17 RBF d          78.206  27.695  39.777  0.00  0.00     0.210 HD
ENDBRANCH  23  27
ENDBRANCH  22  23
BRANCH  22  29
ATOM     29  O3' RBF d          79.161  23.882  39.993  0.00  0.00    -0.390 OA
ATOM     30  H15 RBF d          79.026  23.156  39.395  0.00  0.00     0.210 HD
ENDBRANCH  22  29
ENDBRANCH  21  22
BRANCH  21  31
ATOM     31  O2' RBF d          76.745  23.988  38.035  0.00  0.00    -0.391 OA
ATOM     32  H13 RBF d          75.810  23.903  37.887  0.00  0.00     0.210 HD
ENDBRANCH  21  31
ENDBRANCH  20  21
ENDBRANCH  17  20
TORSDOF 9
