REMARK  5 active torsions:
REMARK  status: ('A' for Active; 'I' for Inactive)
REMARK    1  A    between atoms: C11_9  and  C13_10 
REMARK    2  A    between atoms: C13_10  and  N14_11 
REMARK    3  A    between atoms: N19_15  and  S28_18 
REMARK    4  A    between atoms: S28_18  and  C29_21 
REMARK    5  A    between atoms: C30_22  and  C31_23 
ROOT
ATOM      1  N14 RRR d           5.316   4.827  21.473  0.00  0.00    -0.344 N 
ATOM      2  C17 RRR d           4.970   5.020  22.795  0.00  0.00     0.234 C 
ATOM      3  O44 RRR d           4.415   4.169  23.486  0.00  0.00    -0.272 OA
ATOM      4  C18 RRR d           5.310   6.401  23.389  0.00  0.00     0.210 C 
ATOM      5  N19 RRR d           5.910   7.413  22.390  0.00  0.00    -0.197 NA
ATOM      6  C20 RRR d           6.676   6.935  21.442  0.00  0.00     0.128 C 
ATOM      7  C21 RRR d           5.984   5.836  20.615  0.00  0.00     0.141 C 
ENDROOT
BRANCH   1   8
ATOM      8  C13 RRR d           4.998   3.539  20.834  0.00  0.00     0.182 C 
BRANCH   8   9
ATOM      9  C11 RRR d           6.084   2.784  20.083  0.00  0.00     0.028 A 
ATOM     10  N10 RRR d           5.840   2.297  18.842  0.00  0.00    -0.357 N 
ATOM     11  C4  RRR d           6.969   1.644  18.392  0.00  0.00     0.045 A 
ATOM     12  H1  RRR d           4.957   2.398  18.321  0.00  0.00     0.166 HD
ATOM     13  C5  RRR d           7.962   1.750  19.442  0.00  0.00     0.010 A 
ATOM     14  C3  RRR d           7.260   0.956  17.176  0.00  0.00     0.049 A 
ATOM     15  C6  RRR d           9.232   1.140  19.215  0.00  0.00     0.130 A 
ATOM     16  C12 RRR d           7.395   2.473  20.511  0.00  0.00     0.041 A 
ATOM     17  N1  RRR d           9.468   0.491  18.040  0.00  0.00    -0.272 NA
ATOM     18  C2  RRR d           8.558   0.377  17.037  0.00  0.00     0.118 A 
ENDBRANCH   8   9
ENDBRANCH   1   8
BRANCH   5  19
ATOM     19  S28 RRR d           6.631   8.791  23.390  0.00  0.00     0.234 S 
ATOM     20  O37 RRR d           5.696   8.938  24.477  0.00  0.00    -0.207 OA
ATOM     21  O45 RRR d           6.596   9.664  22.259  0.00  0.00    -0.207 OA
BRANCH  19  22
ATOM     22  C29 RRR d           8.255   8.688  23.988  0.00  0.00     0.127 C 
ATOM     23  C30 RRR d           8.457   7.960  25.092  0.00  0.00     0.031 C 
BRANCH  23  24
ATOM     24  C31 RRR d           9.759   7.691  25.707  0.00  0.00     0.007 A 
ATOM     25  C35 RRR d           9.848   6.900  26.916  0.00  0.00     0.021 A 
ATOM     26  C34 RRR d          11.198   6.725  27.346  0.00  0.00     0.033 A 
ATOM     27  C33 RRR d          12.122   7.387  26.453  0.00  0.00     0.075 A 
ATOM     28 CL36 RRR d          13.830   7.337  26.685  0.00  0.00    -0.076 Cl
ATOM     29  S32 RRR d          11.315   8.193  25.154  0.00  0.00    -0.078 SA
ENDBRANCH  23  24
ENDBRANCH  19  22
ENDBRANCH   5  19
TORSDOF 5
