REMARK  14 active torsions:
REMARK  status: ('A' for Active; 'I' for Inactive)
REMARK    1  A    between atoms: PA_1  and  O3A_8 
REMARK    2  A    between atoms: O01_9  and  PA_1 
REMARK    3  A    between atoms: O3A_8  and  PB_5 
REMARK    4  A    between atoms: C01_10  and  O01_9 
REMARK    5  A    between atoms: C05_11  and  C01_10 
REMARK    6  A    between atoms: C04_12  and  C05_11 
REMARK    7  A    between atoms: C7_32  and  C02_16 
REMARK    8  A    between atoms: N3_17  and  C18_18 
REMARK    9  A    between atoms: C18_18  and  C19_19 
REMARK   10  A    between atoms: C21_21  and  N22_22 
REMARK   11  A    between atoms: P8_28  and  O9_30 
REMARK   12  A    between atoms: P8_28  and  C7_32 
REMARK   13  A    between atoms: C7_32  and  O7_33 
REMARK   14  A    between atoms: C7_32  and  C2_34 
ROOT
ATOM      1  C04 D7K d         -40.273  22.913   4.038  0.00  0.00     0.004 C 
ATOM      2  C03 D7K d         -40.812  21.702   3.798  0.00  0.00     0.017 C 
ATOM      3  CM4 D7K d         -41.439  21.314   2.485  0.00  0.00     0.069 C 
ATOM      4  S1  D7K d         -39.628  23.019   5.553  0.00  0.00    -0.102 SA
ATOM      5  C02 D7K d         -40.331  21.520   6.134  0.00  0.00     0.203 C 
ATOM      6  N3  D7K d         -40.761  20.883   4.882  0.00  0.00    -0.361 N 
ENDROOT
BRANCH   5   7
ATOM      7  C7  D7K d         -39.514  20.782   7.248  0.00  0.00     0.220 C 
BRANCH   7   8
ATOM      8  P8  D7K d         -37.997  19.867   6.849  0.00  0.00     0.292 P 
ATOM      9  O12 D7K d         -38.328  18.582   6.115  0.00  0.00    -0.644 OA
ATOM     10  O11 D7K d         -37.153  20.882   6.109  0.00  0.00    -0.644 OA
BRANCH   8  11
ATOM     11  O9  D7K d         -37.384  19.391   8.286  0.00  0.00    -0.315 OA
ATOM     12  C10 D7K d         -36.304  20.055   8.942  0.00  0.00     0.213 C 
ENDBRANCH   8  11
ENDBRANCH   7   8
BRANCH   7  13
ATOM     13  O7  D7K d         -40.375  19.782   7.787  0.00  0.00    -0.370 OA
ATOM     14  H20 D7K d         -40.521  19.107   7.135  0.00  0.00     0.212 HD
ENDBRANCH   7  13
BRANCH   7  15
ATOM     15  C2  D7K d         -39.273  21.821   8.318  0.00  0.00    -0.008 A 
ATOM     16  C3  D7K d         -40.195  21.947   9.371  0.00  0.00     0.011 A 
ATOM     17  C4  D7K d         -40.008  22.927  10.362  0.00  0.00     0.001 A 
ATOM     18  C5  D7K d         -38.906  23.806  10.289  0.00  0.00     0.000 A 
ATOM     19  C6  D7K d         -37.994  23.685   9.239  0.00  0.00     0.001 A 
ATOM     20  C1  D7K d         -38.179  22.699   8.268  0.00  0.00     0.011 A 
ENDBRANCH   7  15
ENDBRANCH   5   7
BRANCH   6  21
ATOM     21  C18 D7K d         -41.137  19.487   5.052  0.00  0.00     0.168 C 
BRANCH  21  22
ATOM     22  C19 D7K d         -42.628  19.379   5.041  0.00  0.00     0.023 A 
ATOM     23  C20 D7K d         -43.268  18.813   3.948  0.00  0.00     0.131 A 
ATOM     24  N25 D7K d         -44.615  18.696   3.995  0.00  0.00    -0.245 NA
ATOM     25  C24 D7K d         -45.340  19.131   5.049  0.00  0.00     0.124 A 
ATOM     26  N23 D7K d         -44.704  19.682   6.109  0.00  0.00    -0.216 NA
ATOM     27  CM2 D7K d         -46.846  19.022   5.110  0.00  0.00     0.093 C 
ATOM     28  C21 D7K d         -43.370  19.801   6.133  0.00  0.00     0.132 A 
BRANCH  28  29
ATOM     29  N22 D7K d         -42.815  20.335   7.249  0.00  0.00    -0.383 N 
ATOM     30  H12 D7K d         -43.416  20.632   8.031  0.00  0.00     0.157 HD
ATOM     31  H13 D7K d         -41.793  20.444   7.314  0.00  0.00     0.157 HD
ENDBRANCH  28  29
ENDBRANCH  21  22
ENDBRANCH   6  21
BRANCH   1  32
ATOM     32  C05 D7K d         -40.231  24.119   3.091  0.00  0.00     0.075 C 
BRANCH  32  33
ATOM     33  C01 D7K d         -41.247  25.245   3.415  0.00  0.00     0.186 C 
BRANCH  33  34
ATOM     34  O01 D7K d         -41.467  26.127   2.291  0.00  0.00    -0.289 OA
BRANCH  34  35
ATOM     35  PA  D7K d         -42.215  27.562   2.391  0.00  0.00     0.418 P 
ATOM     36  O1A D7K d         -42.315  28.125   0.988  0.00  0.00    -0.624 OA
ATOM     37  O2A D7K d         -43.548  27.480   3.106  0.00  0.00    -0.624 OA
BRANCH  35  38
ATOM     38  O3A D7K d         -41.347  28.480   3.367  0.00  0.00    -0.173 OA
BRANCH  38  39
ATOM     39  PB  D7K d         -39.785  28.910   3.356  0.00  0.00     0.431 P 
ATOM     40  O1B D7K d         -39.966  30.187   4.166  0.00  0.00    -0.616 OA
ATOM     41  O2B D7K d         -39.438  28.975   1.878  0.00  0.00    -0.616 OA
ATOM     42  O3B D7K d         -38.924  27.905   4.085  0.00  0.00    -0.616 OA
ENDBRANCH  38  39
ENDBRANCH  35  38
ENDBRANCH  34  35
ENDBRANCH  33  34
ENDBRANCH  32  33
ENDBRANCH   1  32
TORSDOF 14
