REMARK  8 active torsions:
REMARK  status: ('A' for Active; 'I' for Inactive)
REMARK    1  A    between atoms: C1_1  and  O1_10 
REMARK    2  A    between atoms: N2_9  and  C2_2 
REMARK    3  A    between atoms: C3_3  and  O3_11 
REMARK    4  A    between atoms: C4_4  and  O4_12 
REMARK    5  A    between atoms: C5_5  and  C6_6 
REMARK    6  A    between atoms: C6_6  and  O6_14 
REMARK    7  A    between atoms: P7_7  and  N2_9 
REMARK    8  A    between atoms: O6_14  and  P_17 
ROOT
ATOM      1  C1  NNG d         -35.346  15.520 -12.178  0.00  0.00     0.282 C 
ATOM      2  C2  NNG d         -34.840  15.598 -10.717  0.00  0.00     0.172 C 
ATOM      3  C3  NNG d         -34.840  17.079 -10.237  0.00  0.00     0.177 C 
ATOM      4  C4  NNG d         -34.062  17.969 -11.229  0.00  0.00     0.180 C 
ATOM      5  C5  NNG d         -34.632  17.762 -12.662  0.00  0.00     0.180 C 
ATOM      6  O5  NNG d         -34.538  16.362 -13.040  0.00  0.00    -0.349 OA
ENDROOT
BRANCH   2   7
ATOM      7  N2  NNG d         -35.751  14.826  -9.886  0.00  0.00    -0.337 N 
ATOM      8  H11 NNG d         -36.730  14.858 -10.086  0.00  0.00     0.164 HD
BRANCH   7   9
ATOM      9  P7  NNG d         -35.235  13.913  -8.644  0.00  0.00     0.201 P 
ATOM     10  C8  NNG d         -36.580  13.102  -7.803  0.00  0.00     0.145 C 
ATOM     11  O71 NNG d         -34.357  12.843  -9.212  0.00  0.00    -0.652 OA
ATOM     12  O72 NNG d         -34.338  14.853  -7.698  0.00  0.00    -0.652 OA
ENDBRANCH   7   9
ENDBRANCH   2   7
BRANCH   1  13
ATOM     13  O1  NNG d         -36.721  15.922 -12.253  0.00  0.00    -0.369 OA
ATOM     14  H12 NNG d         -37.026  15.838 -13.149  0.00  0.00     0.212 HD
ENDBRANCH   1  13
BRANCH   3  15
ATOM     15  O3  NNG d         -34.216  17.166  -8.952  0.00  0.00    -0.391 OA
ATOM     16  H13 NNG d         -34.689  16.621  -8.334  0.00  0.00     0.210 HD
ENDBRANCH   3  15
BRANCH   4  17
ATOM     17  O4  NNG d         -34.225  19.346 -10.850  0.00  0.00    -0.390 OA
ATOM     18  H14 NNG d         -33.878  19.476  -9.975  0.00  0.00     0.210 HD
ENDBRANCH   4  17
BRANCH   5  19
ATOM     19  C6  NNG d         -33.824  18.602 -13.670  0.00  0.00     0.217 C 
BRANCH  19  20
ATOM     20  O6  NNG d         -32.436  18.277 -13.548  0.00  0.00    -0.280 OA
BRANCH  20  21
ATOM     21  P   NNG d         -31.582  19.154 -14.607  0.00  0.00     0.422 P 
ATOM     22  O1P NNG d         -30.164  19.113 -14.203  0.00  0.00    -0.617 OA
ATOM     23  O2P NNG d         -31.740  18.528 -16.080  0.00  0.00    -0.617 OA
ATOM     24  O3P NNG d         -32.092  20.686 -14.628  0.00  0.00    -0.617 OA
ENDBRANCH  20  21
ENDBRANCH  19  20
ENDBRANCH   5  19
TORSDOF 8
