REMARK  7 active torsions:
REMARK  status: ('A' for Active; 'I' for Inactive)
REMARK    1  A    between atoms: O3'_10  and  P_1 
REMARK    2  A    between atoms: C5'_6  and  O5'_5 
REMARK    3  A    between atoms: C4'_7  and  C5'_6 
REMARK    4  A    between atoms: C3'_9  and  O3'_10 
REMARK    5  A    between atoms: C2'_11  and  O2'_12 
REMARK    6  A    between atoms: C1'_13  and  N1_14 
REMARK    7  A    between atoms: C4_17  and  N4_21 
ROOT
ATOM      1  C4' C3P d         -12.940  51.438   5.823  0.00  0.00     0.180 C 
ATOM      2  O4' C3P d         -11.881  52.123   5.071  0.00  0.00    -0.353 OA
ATOM      3  C3' C3P d         -12.385  50.076   6.114  0.00  0.00     0.199 C 
ATOM      4  C2' C3P d         -11.198  49.911   5.169  0.00  0.00     0.199 C 
ATOM      5  C1' C3P d         -10.733  51.309   4.911  0.00  0.00     0.264 C 
ENDROOT
BRANCH   5   6
ATOM      6  N1  C3P d          -9.685  51.840   5.735  0.00  0.00    -0.280 N 
ATOM      7  C2  C3P d          -8.441  51.398   5.523  0.00  0.00     0.330 A 
ATOM      8  N3  C3P d          -7.435  51.961   6.211  0.00  0.00    -0.293 N 
ATOM      9  O2  C3P d          -8.287  50.525   4.700  0.00  0.00    -0.246 OA
ATOM     10  C4  C3P d          -7.666  52.898   7.128  0.00  0.00     0.125 A 
ATOM     11  H9  C3P d          -6.495  51.671   6.031  0.00  0.00     0.172 HD
ATOM     12  C5  C3P d          -8.971  53.330   7.365  0.00  0.00     0.067 A 
ATOM     13  C6  C3P d          -9.942  52.824   6.643  0.00  0.00     0.102 A 
BRANCH  10  14
ATOM     14  N4  C3P d          -6.724  53.496   7.843  0.00  0.00    -0.284 NA
ATOM     15  H12 C3P d          -6.975  54.198   8.521  0.00  0.00     0.188 HD
ENDBRANCH  10  14
ENDBRANCH   5   6
BRANCH   4  16
ATOM     16  O2' C3P d         -11.347  48.779   4.286  0.00  0.00    -0.388 OA
ATOM     17  H7  C3P d         -11.424  47.985   4.801  0.00  0.00     0.210 HD
ENDBRANCH   4  16
BRANCH   1  18
ATOM     18  C5' C3P d         -13.624  52.123   7.034  0.00  0.00     0.198 C 
BRANCH  18  19
ATOM     19  O5' C3P d         -14.672  52.951   6.555  0.00  0.00    -0.398 OA
ATOM     20  H1  C3P d         -15.099  53.376   7.289  0.00  0.00     0.209 HD
ENDBRANCH  18  19
ENDBRANCH   1  18
BRANCH   3  21
ATOM     21  O3' C3P d         -13.300  49.035   6.062  0.00  0.00    -0.272 OA
BRANCH  21  22
ATOM     22  P   C3P d         -13.007  47.578   6.678  0.00  0.00     0.422 P 
ATOM     23  O1P C3P d         -12.495  47.755   8.066  0.00  0.00    -0.617 OA
ATOM     24  O2P C3P d         -11.909  46.966   5.845  0.00  0.00    -0.617 OA
ATOM     25  O3P C3P d         -14.292  46.843   6.513  0.00  0.00    -0.617 OA
ENDBRANCH  21  22
ENDBRANCH   3  21
TORSDOF 7
