3g2h_ligand

Created by X-TOOL on Fri Sep 26 17:34:47 2014
 39 41  0  0  0  0  0  0  0  0999 V2000
   37.3570   23.5390   30.4350  C 0  0  0  2  0  3
   38.5770   23.8620   31.0310  C 0  0  0  2  0  3
   38.6730   24.9760   31.8620  C 0  0  0  2  0  3
   37.5590   25.7710   32.1040  C 0  0  0  2  0  3
   36.3390   25.4520   31.5030  C 0  0  0  2  0  3
   36.2390   24.3330   30.6690  C 0  0  0  1  0  3
   35.0210   24.0160   30.0760  C 0  0  0  1  0  3
   34.8170   23.3270   28.9590  C 0  0  0  2  0  3
   33.8170   24.3370   30.5330  N 0  0  0  1  0  2
   32.9580   23.8970   29.7570  N 0  0  0  1  0  2
   33.4960   23.3110   28.8150  N 0  0  0  1  0  3
   32.6900   22.6760   27.7700  C 0  0  0  2  0  4
   32.7500   21.2560   27.9940  O 0  0  0  1  0  2
   31.7020   20.6010   27.2510  C 0  0  0  2  0  4
   31.6660   19.1380   27.6850  C 0  0  0  3  0  4
   32.7720   18.4660   27.0880  O 0  0  0  2  0  2
   31.9110   20.7800   25.7330  C 0  0  0  2  0  4
   30.7450   20.3190   25.0550  O 0  0  0  2  0  2
   32.1080   22.2630   25.3770  C 0  0  0  2  0  4
   32.5420   22.3870   24.0260  O 0  0  0  2  0  2
   33.1230   22.9260   26.3190  C 0  0  0  2  0  4
   33.1770   24.3240   26.0630  O 0  0  0  2  0  2
   37.2808   22.6706   29.7907  H 0  0  0  1  0  1
   39.4499   23.2460   30.8473  H 0  0  0  1  0  1
   39.6223   25.2243   32.3227  H 0  0  0  1  0  1
   37.6364   26.6339   32.7555  H 0  0  0  1  0  1
   35.4684   26.0723   31.6830  H 0  0  0  1  0  1
   35.5643   22.8764   28.3075  H 0  0  0  1  0  1
   31.6538   23.0285   27.8797  H 0  0  0  1  0  1
   30.7390   21.0634   27.5134  H 0  0  0  1  0  1
   30.7256   18.6744   27.3521  H 0  0  0  1  0  1
   31.7390   19.0733   28.7807  H 0  0  0  1  0  1
   33.5810   18.8719   27.3766  H 0  0  0  1  0  1
   32.7899   20.2017   25.4118  H 0  0  0  1  0  1
   30.8623   20.4244   24.1182  H 0  0  0  1  0  1
   31.1427   22.7790   25.4858  H 0  0  0  1  0  1
   32.6608   23.3058   23.8158  H 0  0  0  1  0  1
   34.1182   22.4879   26.1529  H 0  0  0  1  0  1
   33.4419   24.4699   25.1624  H 0  0  0  1  0  1
  1  2  4  0  0  1
  1  6  4  0  0  1
  2  3  4  0  0  1
  3  4  4  0  0  1
  4  5  4  0  0  1
  5  6  4  0  0  1
  6  7  1  0  0  2
  7  8  2  0  0  1
  7  9  1  0  0  1
  8 11  1  0  0  1
  9 10  2  0  0  1
 10 11  1  0  0  1
 11 12  1  0  0  2
 12 13  1  0  0  1
 12 21  1  0  0  1
 13 14  1  0  0  1
 14 15  1  0  0  2
 14 17  1  0  0  1
 15 16  1  0  0  2
 17 18  1  0  0  2
 17 19  1  0  0  1
 19 20  1  0  0  2
 19 21  1  0  0  1
 21 22  1  0  0  2
  1 23  1  0  0  2
  2 24  1  0  0  2
  3 25  1  0  0  2
  4 26  1  0  0  2
  5 27  1  0  0  2
  8 28  1  0  0  2
 12 29  1  0  0  2
 14 30  1  0  0  2
 15 31  1  0  0  2
 15 32  1  0  0  2
 16 33  1  0  0  2
 17 34  1  0  0  2
 18 35  1  0  0  2
 19 36  1  0  0  2
 20 37  1  0  0  2
 21 38  1  0  0  2
 22 39  1  0  0  2
M  END
> <MOLECULAR_FORMULA>
C14H17N3O5

> <MOLECULAR_WEIGHT>
307.2

> <NUM_HB_ATOMS>
8  

> <NUM_ROTOR>
2  

> <XLOGP2>
-0.51

$$$$
