REMARK  4 active torsions:
REMARK  status: ('A' for Active; 'I' for Inactive)
REMARK    1  A    between atoms: N_1  and  CA_2 
REMARK    2  A    between atoms: CA_2  and  C_3 
REMARK    3  A    between atoms: CA_2  and  CB_5 
REMARK    4  A    between atoms: CB_5  and  CG_6 
ROOT
ATOM      1  CA  ASP d           9.009  34.311  60.880  0.00  0.00     0.293 C 
ENDROOT
BRANCH   1   2
ATOM      2  N   ASP d           8.053  33.380  60.242  0.00  0.00    -0.065 N 
ATOM      3  H1  ASP d           8.561  32.656  59.759  0.00  0.00     0.275 HD
ATOM      4  H2  ASP d           7.481  33.885  59.584  0.00  0.00     0.275 HD
ATOM      5  H3  ASP d           7.466  32.965  60.949  0.00  0.00     0.275 HD
ENDBRANCH   1   2
BRANCH   1   6
ATOM      6  C   ASP d           8.309  35.418  61.619  0.00  0.00     0.205 C 
ATOM      7  O   ASP d           8.981  36.235  62.262  0.00  0.00    -0.646 OA
ATOM      8  OXT ASP d           7.066  35.474  61.596  0.00  0.00    -0.646 OA
ENDBRANCH   1   6
BRANCH   1   9
ATOM      9  CB  ASP d          10.009  34.874  59.849  0.00  0.00     0.157 C 
BRANCH   9  10
ATOM     10  CG  ASP d           9.340  35.610  58.688  0.00  0.00     0.175 C 
ATOM     11  OD1 ASP d           8.129  35.485  58.512  0.00  0.00    -0.648 OA
ATOM     12  OD2 ASP d          10.032  36.326  57.920  0.00  0.00    -0.648 OA
ENDBRANCH   9  10
ENDBRANCH   1   9
TORSDOF 4
