REMARK  5 active torsions:
REMARK  status: ('A' for Active; 'I' for Inactive)
REMARK    1  A    between atoms: CAY_6  and  CAL_7 
REMARK    2  A    between atoms: CAL_7  and  NAZ_8 
REMARK    3  A    between atoms: C6_14  and  NAC_15 
REMARK    4  A    between atoms: CAV_17  and  CAS_18 
REMARK    5  A    between atoms: CAU_22  and  OAQ_23 
ROOT
ATOM      1  NAZ C88 d          26.068  15.171  30.845  0.00  0.00    -0.250 N 
ATOM      2  NAO C88 d          24.890  15.396  31.145  0.00  0.00    -0.169 NA
ATOM      3  C4  C88 d          26.331  13.859  30.849  0.00  0.00     0.163 A 
ATOM      4  N3  C88 d          27.444  13.132  30.617  0.00  0.00    -0.222 NA
ATOM      5  C2  C88 d          27.404  11.808  30.671  0.00  0.00     0.237 A 
ATOM      6  N1  C88 d          26.283  11.154  30.969  0.00  0.00    -0.224 NA
ATOM      7  C6  C88 d          25.143  11.816  31.234  0.00  0.00     0.139 A 
ATOM      8  C5  C88 d          25.140  13.214  31.181  0.00  0.00     0.088 A 
ATOM      9  CAV C88 d          24.219  14.255  31.345  0.00  0.00     0.105 A 
ENDROOT
BRANCH   1  10
ATOM     10  CAL C88 d          27.048  16.267  30.613  0.00  0.00     0.157 C 
BRANCH  10  11
ATOM     11  CAY C88 d          27.681  16.391  29.217  0.00  0.00     0.009 C 
ATOM     12  CAJ C88 d          28.817  17.432  29.305  0.00  0.00     0.034 C 
ATOM     13  CAH C88 d          29.339  17.846  27.922  0.00  0.00     0.232 C 
ATOM     14  NAP C88 d          28.227  18.428  27.163  0.00  0.00    -0.075 N 
ATOM     15  CAI C88 d          27.220  17.386  26.892  0.00  0.00     0.232 C 
ATOM     16  H5  C88 d          28.572  18.797  26.291  0.00  0.00     0.277 HD
ATOM     17  H6  C88 d          27.806  19.171  27.699  0.00  0.00     0.277 HD
ATOM     18  CAK C88 d          26.614  16.870  28.215  0.00  0.00     0.034 C 
ENDBRANCH  10  11
ENDBRANCH   1  10
BRANCH   9  19
ATOM     19  CAS C88 d          22.877  14.198  31.733  0.00  0.00    -0.004 A 
ATOM     20  CAG C88 d          22.512  13.463  32.874  0.00  0.00     0.023 A 
ATOM     21  CAR C88 d          21.189  13.451  33.325  0.00  0.00    -0.028 A 
ATOM     22  CAB C88 d          20.784  12.615  34.533  0.00  0.00     0.051 C 
ATOM     23  CAU C88 d          20.224  14.200  32.657  0.00  0.00     0.074 A 
ATOM     24  CAE C88 d          20.579  14.961  31.531  0.00  0.00     0.038 A 
ATOM     25  CAD C88 d          21.904  14.970  31.089  0.00  0.00     0.017 A 
BRANCH  23  26
ATOM     26  OAQ C88 d          18.957  14.146  33.118  0.00  0.00    -0.355 OA
ATOM     27  CAA C88 d          18.001  15.035  32.503  0.00  0.00     0.210 C 
ENDBRANCH  23  26
ENDBRANCH   9  19
BRANCH   7  28
ATOM     28  NAC C88 d          24.047  11.118  31.528  0.00  0.00    -0.383 N 
ATOM     29  H15 C88 d          23.164  11.607  31.734  0.00  0.00     0.157 HD
ATOM     30  H16 C88 d          24.082  10.089  31.549  0.00  0.00     0.157 HD
ENDBRANCH   7  28
TORSDOF 5
