REMARK  11 active torsions:
REMARK  status: ('A' for Active; 'I' for Inactive)
REMARK    1  A    between atoms: N_1  and  CA_2 
REMARK    2  A    between atoms: CA_2  and  CB_3 
REMARK    3  A    between atoms: CA_2  and  C_6 
REMARK    4  A    between atoms: CB_3  and  CG_4 
REMARK    5  A    between atoms: CG_4  and  SD_5 
REMARK    6  A    between atoms: SD_5  and  C5'_9 
REMARK    7  A    between atoms: C5'_9  and  C4'_10 
REMARK    8  A    between atoms: C3'_12  and  O3'_13 
REMARK    9  A    between atoms: C2'_14  and  O2'_15 
REMARK   10  A    between atoms: C1'_16  and  N9_17 
REMARK   11  A    between atoms: C6_21  and  N6_22 
ROOT
ATOM      1  C4' SAH d         -21.549  36.702  -4.610  0.00  0.00     0.165 C 
ATOM      2  O4' SAH d         -22.861  37.132  -4.313  0.00  0.00    -0.355 OA
ATOM      3  C3' SAH d         -21.163  37.338  -5.939  0.00  0.00     0.180 C 
ATOM      4  C2' SAH d         -22.512  37.373  -6.641  0.00  0.00     0.198 C 
ATOM      5  C1' SAH d         -23.501  37.579  -5.490  0.00  0.00     0.262 C 
ENDROOT
BRANCH   1   6
ATOM      6  C5' SAH d         -20.682  37.029  -3.410  0.00  0.00     0.108 C 
BRANCH   6   7
ATOM      7  SD  SAH d         -21.020  35.791  -2.124  0.00  0.00    -0.166 SA
BRANCH   7   8
ATOM      8  CG  SAH d         -21.844  36.927  -0.969  0.00  0.00     0.076 C 
BRANCH   8   9
ATOM      9  CB  SAH d         -23.324  36.583  -0.819  0.00  0.00     0.054 C 
BRANCH   9  10
ATOM     10  CA  SAH d         -24.145  37.469   0.127  0.00  0.00     0.284 C 
BRANCH  10  11
ATOM     11  N   SAH d         -23.948  37.059   1.544  0.00  0.00    -0.065 N 
ATOM     12  H1  SAH d         -22.970  37.124   1.780  0.00  0.00     0.275 HD
ATOM     13  H2  SAH d         -24.260  36.108   1.665  0.00  0.00     0.275 HD
ATOM     14  H3  SAH d         -24.480  37.667   2.147  0.00  0.00     0.275 HD
ENDBRANCH  10  11
BRANCH  10  15
ATOM     15  C   SAH d         -25.632  37.364  -0.213  0.00  0.00     0.204 C 
ATOM     16  O   SAH d         -26.435  36.913   0.573  0.00  0.00    -0.646 OA
ATOM     17  OXT SAH d         -26.073  37.717  -1.293  0.00  0.00    -0.646 OA
ENDBRANCH  10  15
ENDBRANCH   9  10
ENDBRANCH   8   9
ENDBRANCH   7   8
ENDBRANCH   6   7
ENDBRANCH   1   6
BRANCH   3  18
ATOM     18  O3' SAH d         -20.219  36.570  -6.658  0.00  0.00    -0.390 OA
ATOM     19  H13 SAH d         -20.584  35.712  -6.841  0.00  0.00     0.210 HD
ENDBRANCH   3  18
BRANCH   5  20
ATOM     20  N9  SAH d         -23.904  39.004  -5.288  0.00  0.00    -0.294 N 
ATOM     21  C8  SAH d         -23.789  39.748  -4.138  0.00  0.00     0.214 A 
ATOM     22  N7  SAH d         -24.298  40.989  -4.349  0.00  0.00    -0.236 NA
ATOM     23  C5  SAH d         -24.704  41.051  -5.624  0.00  0.00     0.149 A 
ATOM     24  C6  SAH d         -25.289  42.069  -6.354  0.00  0.00     0.155 A 
ATOM     25  C4  SAH d         -24.482  39.815  -6.227  0.00  0.00     0.167 A 
ATOM     26  N1  SAH d         -25.627  41.814  -7.660  0.00  0.00    -0.222 NA
ATOM     27  C2  SAH d         -25.398  40.597  -8.259  0.00  0.00     0.237 A 
ATOM     28  N3  SAH d         -24.818  39.590  -7.531  0.00  0.00    -0.222 NA
BRANCH  24  29
ATOM     29  N6  SAH d         -25.529  43.251  -5.781  0.00  0.00    -0.382 N 
ATOM     30  H18 SAH d         -25.965  44.008  -6.326  0.00  0.00     0.157 HD
ATOM     31  H19 SAH d         -25.278  43.405  -4.794  0.00  0.00     0.157 HD
ENDBRANCH  24  29
ENDBRANCH   5  20
BRANCH   4  32
ATOM     32  O2' SAH d         -22.805  36.149  -7.320  0.00  0.00    -0.388 OA
ATOM     33  H15 SAH d         -22.137  35.984  -7.975  0.00  0.00     0.210 HD
ENDBRANCH   4  32
TORSDOF 11
