REMARK  1 active torsions:
REMARK  status: ('A' for Active; 'I' for Inactive)
REMARK       I    between atoms: C19_12  and  N1_1 
REMARK    1  A    between atoms: C14_13  and  C19_12 
ROOT
ATOM      1  C4  MOL d           6.250 -11.714 -24.100  0.00  0.00     0.041 A 
ATOM      2  C5  MOL d           7.386 -12.645 -24.307  0.00  0.00     0.162 C 
ATOM      3  C6  MOL d           7.091 -14.077 -24.698  0.00  0.00     0.093 C 
ATOM      4  C7  MOL d           5.813 -14.291 -25.526  0.00  0.00    -0.036 C 
ATOM      5  C8  MOL d           4.651 -13.587 -24.816  0.00  0.00     0.067 C 
ATOM      6  C10 MOL d           5.996 -13.723 -26.936  0.00  0.00     0.015 C 
ATOM      7  C13 MOL d           0.487 -12.155 -24.034  0.00  0.00     0.019 A 
ATOM      8  C15 MOL d           0.711 -10.117 -25.312  0.00  0.00     0.056 A 
ATOM      9  C17 MOL d           3.303  -8.087 -24.621  0.00  0.00     0.181 C 
ATOM     10  C14 MOL d          -0.091 -11.141 -24.804  0.00  0.00     0.034 A 
ATOM     11  C12 MOL d           1.850 -12.168 -23.780  0.00  0.00     0.034 A 
ATOM     12  C16 MOL d           2.074 -10.131 -25.066  0.00  0.00     0.097 A 
ATOM     13  O1  MOL d           2.836  -9.088 -25.565  0.00  0.00    -0.348 OA
ATOM     14  C18 MOL d           4.217  -8.652 -23.551  0.00  0.00     0.085 C 
ATOM     15  C2  MOL d           4.779 -10.030 -23.769  0.00  0.00     0.026 A 
ATOM     16  C11 MOL d           2.657 -11.157 -24.311  0.00  0.00     0.073 A 
ATOM     17  N   MOL d           4.083 -11.183 -24.121  0.00  0.00    -0.315 N 
ATOM     18  C3  MOL d           4.979 -12.208 -24.328  0.00  0.00     0.032 A 
ATOM     19  C9  MOL d           5.507 -15.781 -25.636  0.00  0.00     0.015 C 
ATOM     20  O   MOL d           8.554 -12.273 -24.208  0.00  0.00    -0.292 OA
ATOM     21  C1  MOL d           6.118 -10.316 -23.743  0.00  0.00    -0.023 A 
ATOM     22  C   MOL d           7.272  -9.394 -23.456  0.00  0.00     0.051 C 
ENDROOT
BRANCH  10  23
ATOM     23  C19 MOL d          -1.559 -11.150 -25.135  0.00  0.00     0.249 C 
ATOM     24  N1  MOL d          -2.398 -11.643 -24.236  0.00  0.00    -0.366 N 
ATOM     25  H1  MOL d          -2.050 -11.991 -23.366  0.00  0.00     0.159 HD
ATOM     26  H2  MOL d          -3.379 -11.667 -24.428  0.00  0.00     0.159 HD
ATOM     27  O2  MOL d          -1.933 -10.710 -26.218  0.00  0.00    -0.268 OA
ENDBRANCH  10  23
TORSDOF 1
