REMARK  3 active torsions:
REMARK  status: ('A' for Active; 'I' for Inactive)
REMARK    1  A    between atoms: C3_30  and  N_1 
REMARK    2  A    between atoms: N_1  and  C1_31 
REMARK    3  A    between atoms: C5_20  and  N2_19 
ROOT
ATOM      1  O1  MOL d           9.041 -11.773 -23.875  0.00  0.00    -0.292 OA
ATOM      2  C20 MOL d           7.902 -12.185 -24.001  0.00  0.00     0.162 C 
ATOM      3  C21 MOL d           7.658 -13.618 -24.415  0.00  0.00     0.093 C 
ATOM      4  C22 MOL d           6.421 -13.849 -25.297  0.00  0.00    -0.036 C 
ATOM      5  C25 MOL d           6.163 -15.347 -25.444  0.00  0.00     0.015 C 
ATOM      6  C24 MOL d           6.645 -13.246 -26.689  0.00  0.00     0.015 C 
ATOM      7  C23 MOL d           5.210 -13.190 -24.623  0.00  0.00     0.067 C 
ATOM      8  C12 MOL d           5.482 -11.801 -24.124  0.00  0.00     0.032 A 
ATOM      9  C13 MOL d           6.738 -11.298 -23.838  0.00  0.00     0.041 A 
ATOM     10  C14 MOL d           6.558  -9.921 -23.442  0.00  0.00    -0.016 A 
ATOM     11  C18 MOL d           7.627  -8.927 -23.045  0.00  0.00     0.069 C 
ATOM     12  C17 MOL d           7.022  -7.519 -23.045  0.00  0.00     0.239 C 
ATOM     13  N3  MOL d           5.690  -7.432 -22.449  0.00  0.00    -0.069 N 
ATOM     14  C19 MOL d           5.223  -6.035 -22.400  0.00  0.00     0.270 C 
ATOM     15  C16 MOL d           4.730  -8.268 -23.164  0.00  0.00     0.292 C 
ATOM     16  C15 MOL d           5.215  -9.645 -23.498  0.00  0.00     0.050 A 
ATOM     17  N2  MOL d           4.558 -10.787 -23.919  0.00  0.00    -0.316 N 
ATOM     18  H   MOL d           5.753  -7.773 -21.502  0.00  0.00     0.279 HD
ENDROOT
BRANCH  17  19
ATOM     19  C5  MOL d           3.149 -10.861 -24.201  0.00  0.00     0.042 A 
ATOM     20  C4  MOL d           2.597  -9.959 -25.111  0.00  0.00     0.060 A 
ATOM     21  C3  MOL d           1.243 -10.015 -25.445  0.00  0.00     0.046 A 
ATOM     22  C8  MOL d           0.443 -11.044 -24.858  0.00  0.00     0.064 A 
ATOM     23  C7  MOL d           1.012 -11.952 -23.921  0.00  0.00    -0.036 A 
ATOM     24  C9  MOL d          -0.974 -11.253 -25.268  0.00  0.00     0.254 C 
ATOM     25  C6  MOL d           2.361 -11.842 -23.593  0.00  0.00     0.038 A 
ATOM     26  C11 MOL d           0.189 -13.057 -23.304  0.00  0.00     0.059 C 
ATOM     27  C10 MOL d          -1.272 -12.678 -23.224  0.00  0.00     0.127 C 
ATOM     28  N1  MOL d          -1.726 -12.036 -24.471  0.00  0.00    -0.356 N 
ATOM     29  H   MOL d          -2.673 -12.195 -24.749  0.00  0.00     0.162 HD
ATOM     30  O   MOL d          -1.447 -10.767 -26.290  0.00  0.00    -0.268 OA
BRANCH  21  31
ATOM     31  N   MOL d           0.714  -9.112 -26.369  0.00  0.00    -0.385 N 
ATOM     32  H   MOL d          -0.306  -9.142 -26.506  0.00  0.00     0.160 HD
BRANCH  31  33
ATOM     33  C1  MOL d           1.455  -8.120 -27.170  0.00  0.00     0.073 C 
ATOM     34  C   MOL d           0.808  -7.994 -28.523  0.00  0.00     0.031 C 
ATOM     35  C2  MOL d           1.542  -6.791 -26.463  0.00  0.00     0.031 C 
ENDBRANCH  31  33
ENDBRANCH  21  31
ENDBRANCH  17  19
TORSDOF 3
