REMARK  12 active torsions:
REMARK  status: ('A' for Active; 'I' for Inactive)
REMARK       I    between atoms: C9_14  and  N2_3 
REMARK       I    between atoms: C8_12  and  N1_6 
REMARK    1  A    between atoms: C4_8  and  C9_14 
REMARK    2  A    between atoms: C6_10  and  C8_12 
REMARK    3  A    between atoms: C7_11  and  C12_18 
REMARK    4  A    between atoms: N28_32  and  C7_11 
REMARK    5  A    between atoms: S8_13  and  C26_30 
REMARK    6  A    between atoms: N28_32  and  S8_13 
REMARK    7  A    between atoms: S9_15  and  C27_31 
REMARK    8  A    between atoms: N32_36  and  S9_15 
REMARK    9  A    between atoms: C23_27  and  N28_32 
REMARK   10  A    between atoms: C24_28  and  N32_36 
REMARK   11  A    between atoms: N32_36  and  C33_37 
REMARK   12  A    between atoms: C33_37  and  C34_38 
ROOT
ATOM      1  C21 G4G d         -12.339  17.494 -18.148  0.00  0.00     0.260 C 
ATOM      2  N22 G4G d         -13.734  17.941 -18.425  0.00  0.00    -0.071 N 
ATOM      3  C23 G4G d         -11.716  18.620 -17.310  0.00  0.00     0.147 C 
ATOM      4  C24 G4G d         -12.438  19.922 -17.844  0.00  0.00     0.147 C 
ATOM      5  C25 G4G d         -13.788  19.427 -18.450  0.00  0.00     0.260 C 
ATOM      6  H19 G4G d         -14.346  17.596 -17.703  0.00  0.00     0.277 HD
ATOM      7  H20 G4G d         -14.031  17.580 -19.318  0.00  0.00     0.277 HD
ENDROOT
BRANCH   3   8
ATOM      8  N28 G4G d         -11.968  18.548 -15.834  0.00  0.00    -0.294 N 
BRANCH   8   9
ATOM      9  C7  G4G d         -13.248  18.288 -15.128  0.00  0.00     0.174 C 
BRANCH   9  10
ATOM     10  C12 G4G d         -14.034  19.618 -14.987  0.00  0.00    -0.040 A 
ATOM     11  C13 G4G d         -13.355  20.789 -14.511  0.00  0.00     0.009 A 
ATOM     12  C29 G4G d         -14.125  21.995 -14.416  0.00  0.00     0.001 A 
ATOM     13  C31 G4G d         -15.507  22.049 -14.757  0.00  0.00     0.000 A 
ATOM     14  C30 G4G d         -16.188  20.887 -15.223  0.00  0.00     0.001 A 
ATOM     15  C14 G4G d         -15.424  19.683 -15.313  0.00  0.00     0.009 A 
ENDBRANCH   9  10
ENDBRANCH   8   9
BRANCH   8  16
ATOM     16  S8  G4G d         -10.591  18.898 -14.895  0.00  0.00     0.261 S 
ATOM     17  O10 G4G d         -10.018  20.097 -15.498  0.00  0.00    -0.200 OA
ATOM     18  O41 G4G d         -11.008  18.939 -13.472  0.00  0.00    -0.200 OA
BRANCH  16  19
ATOM     19  C26 G4G d          -9.475  17.547 -14.967  0.00  0.00     0.079 A 
ATOM     20  C17 G4G d          -9.806  16.264 -14.447  0.00  0.00     0.026 A 
ATOM     21  C1  G4G d          -8.856  15.204 -14.519  0.00  0.00     0.018 A 
ATOM     22  C4  G4G d          -7.577  15.433 -15.134  0.00  0.00     0.031 A 
ATOM     23  C3  G4G d          -7.256  16.710 -15.667  0.00  0.00     0.018 A 
ATOM     24  C19 G4G d          -8.203  17.764 -15.577  0.00  0.00     0.026 A 
BRANCH  22  25
ATOM     25  C9  G4G d          -6.600  14.337 -15.208  0.00  0.00     0.249 C 
ATOM     26  N2  G4G d          -5.309  14.622 -15.473  0.00  0.00    -0.366 N 
ATOM     27  H2  G4G d          -5.028  15.569 -15.631  0.00  0.00     0.159 HD
ATOM     28  H3  G4G d          -4.632  13.887 -15.511  0.00  0.00     0.159 HD
ATOM     29  O1  G4G d          -6.984  13.188 -15.008  0.00  0.00    -0.268 OA
ENDBRANCH  22  25
ENDBRANCH  16  19
ENDBRANCH   8  16
ENDBRANCH   3   8
BRANCH   4  30
ATOM     30  N32 G4G d         -11.595  20.611 -18.879  0.00  0.00    -0.294 N 
BRANCH  30  31
ATOM     31  S9  G4G d         -11.300  22.257 -18.532  0.00  0.00     0.261 S 
ATOM     32  O11 G4G d         -11.404  22.555 -17.122  0.00  0.00    -0.200 OA
ATOM     33  O40 G4G d         -10.240  22.705 -19.428  0.00  0.00    -0.200 OA
BRANCH  31  34
ATOM     34  C27 G4G d         -12.773  22.943 -19.264  0.00  0.00     0.079 A 
ATOM     35  C18 G4G d         -12.831  23.205 -20.652  0.00  0.00     0.026 A 
ATOM     36  C2  G4G d         -14.028  23.751 -21.189  0.00  0.00     0.018 A 
ATOM     37  C6  G4G d         -15.098  24.063 -20.334  0.00  0.00     0.031 A 
ATOM     38  C5  G4G d         -15.075  23.759 -18.961  0.00  0.00     0.018 A 
ATOM     39  C20 G4G d         -13.876  23.223 -18.417  0.00  0.00     0.026 A 
BRANCH  37  40
ATOM     40  C8  G4G d         -16.371  24.578 -20.963  0.00  0.00     0.249 C 
ATOM     41  O2  G4G d         -16.675  24.207 -22.081  0.00  0.00    -0.268 OA
ATOM     42  N1  G4G d         -17.132  25.428 -20.276  0.00  0.00    -0.366 N 
ATOM     43  H5  G4G d         -16.857  25.716 -19.359  0.00  0.00     0.159 HD
ATOM     44  H6  G4G d         -17.978  25.778 -20.678  0.00  0.00     0.159 HD
ENDBRANCH  37  40
ENDBRANCH  31  34
ENDBRANCH  30  31
BRANCH  30  45
ATOM     45  C33 G4G d         -11.105  19.990 -20.136  0.00  0.00     0.174 C 
BRANCH  45  46
ATOM     46  C34 G4G d          -9.793  19.225 -20.045  0.00  0.00    -0.040 A 
ATOM     47  C35 G4G d          -8.867  19.525 -19.021  0.00  0.00     0.009 A 
ATOM     48  C36 G4G d          -7.659  18.764 -18.994  0.00  0.00     0.001 A 
ATOM     49  C37 G4G d          -7.407  17.783 -19.992  0.00  0.00     0.000 A 
ATOM     50  C39 G4G d          -8.360  17.465 -20.991  0.00  0.00     0.001 A 
ATOM     51  C38 G4G d          -9.561  18.219 -21.024  0.00  0.00     0.009 A 
ENDBRANCH  45  46
ENDBRANCH  30  45
ENDBRANCH   4  30
TORSDOF 12
