REMARK  4 active torsions:
REMARK  status: ('A' for Active; 'I' for Inactive)
REMARK    1  A    between atoms: OH_1  and  CZ3_2 
REMARK    2  A    between atoms: CG_8  and  CB_11 
REMARK    3  A    between atoms: CB_11  and  CA_12 
REMARK    4  A    between atoms: CA_12  and  NZ_13 
ROOT
ATOM      1  CZ3 SRO d          17.826  64.569  11.019  0.00  0.00     0.066 A 
ATOM      2  CH2 SRO d          16.417  64.531  10.841  0.00  0.00     0.039 A 
ATOM      3  CZ2 SRO d          15.571  64.204  11.916  0.00  0.00     0.033 A 
ATOM      4  CE2 SRO d          16.121  63.909  13.192  0.00  0.00     0.043 A 
ATOM      5  NE1 SRO d          15.569  63.564  14.406  0.00  0.00    -0.365 N 
ATOM      6  CD1 SRO d          16.561  63.384  15.335  0.00  0.00     0.096 A 
ATOM      7  CG  SRO d          17.776  63.598  14.785  0.00  0.00    -0.029 A 
ATOM      8  CD2 SRO d          17.544  63.947  13.375  0.00  0.00     0.001 A 
ATOM      9  CE3 SRO d          18.393  64.280  12.276  0.00  0.00     0.050 A 
ATOM     10  H4  SRO d          14.561  63.457  14.589  0.00  0.00     0.165 HD
ENDROOT
BRANCH   7  11
ATOM     11  CB  SRO d          19.124  63.496  15.481  0.00  0.00     0.068 C 
BRANCH  11  12
ATOM     12  CA  SRO d          19.227  64.511  16.632  0.00  0.00     0.234 C 
BRANCH  12  13
ATOM     13  NZ  SRO d          18.991  63.833  17.914  0.00  0.00    -0.079 N 
ATOM     14  H11 SRO d          19.059  64.502  18.665  0.00  0.00     0.274 HD
ATOM     15  H12 SRO d          19.681  63.110  18.044  0.00  0.00     0.274 HD
ATOM     16  H13 SRO d          18.070  63.422  17.913  0.00  0.00     0.274 HD
ENDBRANCH  12  13
ENDBRANCH  11  12
ENDBRANCH   7  11
BRANCH   1  17
ATOM     17  OH  SRO d          18.631  64.887   9.973  0.00  0.00    -0.361 OA
ATOM     18  H1  SRO d          19.538  64.868  10.256  0.00  0.00     0.217 HD
ENDBRANCH   1  17
TORSDOF 4
