REMARK  8 active torsions:
REMARK  status: ('A' for Active; 'I' for Inactive)
REMARK    1  A    between atoms: C1_1  and  C7_7 
REMARK    2  A    between atoms: C7_7  and  O8_8 
REMARK    3  A    between atoms: O8_8  and  C9_9 
REMARK    4  A    between atoms: N12_12  and  C15_15 
REMARK    5  A    between atoms: C19_19  and  C26_26 
REMARK       I    between atoms: C26_26  and  N28_28 
REMARK    6  A    between atoms: N28_28  and  C29_29 
REMARK    7  A    between atoms: C29_29  and  C30_30 
REMARK    8  A    between atoms: C30_30  and  O31_31 
ROOT
ATOM      1  C9  MOL d          35.437  38.235  21.197  0.00  0.00     0.193 A 
ATOM      2  C10 MOL d          35.197  39.550  21.566  0.00  0.00     0.155 A 
ATOM      3  C11 MOL d          34.812  39.848  23.007  0.00  0.00     0.279 A 
ATOM      4  N12 MOL d          34.728  38.753  23.845  0.00  0.00    -0.271 N 
ATOM      5  C13 MOL d          35.024  37.393  23.271  0.00  0.00     0.221 A 
ATOM      6  N14 MOL d          35.347  37.242  22.029  0.00  0.00    -0.218 NA
ATOM      7 CL23 MOL d          35.318  40.844  20.440  0.00  0.00    -0.074 Cl
ATOM      8  O24 MOL d          34.591  41.035  23.356  0.00  0.00    -0.266 OA
ENDROOT
BRANCH   4   9
ATOM      9  C15 MOL d          34.365  38.834  25.237  0.00  0.00     0.050 A 
ATOM     10  C16 MOL d          33.106  38.373  25.709  0.00  0.00    -0.035 A 
ATOM     11  C17 MOL d          32.808  38.462  27.065  0.00  0.00     0.010 A 
ATOM     12  C25 MOL d          31.947  37.938  24.798  0.00  0.00     0.050 C 
ATOM     13  C18 MOL d          33.731  39.016  27.940  0.00  0.00     0.017 A 
ATOM     14  C19 MOL d          34.986  39.488  27.490  0.00  0.00     0.034 A 
ATOM     15  C20 MOL d          35.277  39.384  26.135  0.00  0.00     0.047 A 
BRANCH  14  16
ATOM     16  C26 MOL d          35.945  40.084  28.496  0.00  0.00     0.251 C 
ATOM     17  O27 MOL d          36.881  40.791  28.107  0.00  0.00    -0.268 OA
ATOM     18  N28 MOL d          35.740  39.854  29.812  0.00  0.00    -0.355 N 
ATOM     19  H13 MOL d          34.938  40.266  30.244  0.00  0.00     0.162 HD
BRANCH  18  20
ATOM     20  C29 MOL d          36.635  39.028  30.649  0.00  0.00     0.148 C 
BRANCH  20  21
ATOM     21  C30 MOL d          36.068  37.610  30.845  0.00  0.00     0.183 C 
BRANCH  21  22
ATOM     22  O31 MOL d          34.642  37.637  30.883  0.00  0.00    -0.399 OA
ATOM     23  H18 MOL d          34.313  36.754  31.004  0.00  0.00     0.209 HD
ENDBRANCH  21  22
ENDBRANCH  20  21
ENDBRANCH  18  20
ENDBRANCH  14  16
ENDBRANCH   4   9
BRANCH   1  24
ATOM     24  O8  MOL d          35.781  37.951  19.907  0.00  0.00    -0.328 OA
BRANCH  24  25
ATOM     25  C7  MOL d          36.281  36.605  19.505  0.00  0.00     0.219 C 
BRANCH  25  26
ATOM     26  C1  MOL d          36.887  36.787  18.131  0.00  0.00     0.005 A 
ATOM     27  C2  MOL d          38.220  37.192  17.986  0.00  0.00     0.127 A 
ATOM     28  C3  MOL d          38.751  37.407  16.726  0.00  0.00     0.085 A 
ATOM     29  F21 MOL d          38.978  37.392  19.081  0.00  0.00    -0.205 F 
ATOM     30  C4  MOL d          37.956  37.211  15.604  0.00  0.00     0.119 A 
ATOM     31  C5  MOL d          36.631  36.787  15.740  0.00  0.00     0.043 A 
ATOM     32  F22 MOL d          38.447  37.437  14.382  0.00  0.00    -0.206 F 
ATOM     33  C6  MOL d          36.101  36.578  17.002  0.00  0.00     0.015 A 
ENDBRANCH  25  26
ENDBRANCH  24  25
ENDBRANCH   1  24
TORSDOF 8
