2pnc_ligand

Created by X-TOOL on Fri Sep 26 17:34:42 2014
 24 25  0  0  0  0  0  0  0  0999 V2000
   37.0790   -8.9240   43.0460 Cl 0  0  0  1  0  1
   33.3700  -10.2680   42.1170  C 0  0  0  1  0  3
   32.8120   -9.1890   41.4380  C 0  0  0  2  0  3
   33.5550   -8.0300   41.2450  C 0  0  0  2  0  3
   34.8510   -7.9540   41.7370  C 0  0  0  2  0  3
   34.6660  -10.1930   42.6000  C 0  0  0  1  0  3
   35.4040   -9.0350   42.4140  C 0  0  0  1  0  3
   32.4050  -11.7610   42.3600 Cl 0  0  0  1  0  1
   35.1980  -11.2170   43.2650  N 0  0  0  2  0  3
   36.0320  -12.2400   42.8240  C 0  3  0  1  0  3
   36.4350  -12.3300   41.5580  N 0  0  0  2  0  3
   37.2420  -13.5250   41.3250  C 0  0  0  3  0  4
   37.7120  -13.8530   42.7540  C 0  0  0  3  0  4
   36.5950  -13.3060   43.5130  N 0  0  0  2  0  3
   31.7981   -9.2523   41.0596  H 0  0  0  1  0  1
   33.1244   -7.1895   40.7128  H 0  0  0  1  0  1
   35.4325   -7.0506   41.5931  H 0  0  0  1  0  1
   34.9532  -11.2583   44.2646  H 0  0  0  1  0  1
   36.2050  -11.6390   40.8296  H 0  0  0  1  0  1
   38.0922  -13.3137   40.6598  H 0  0  0  1  0  1
   36.6393  -14.3420   40.9016  H 0  0  0  1  0  1
   38.6588  -13.3496   42.9991  H 0  0  0  1  0  1
   37.8215  -14.9363   42.9103  H 0  0  0  1  0  1
   36.2711  -13.6578   44.4252  H 0  0  0  1  0  1
  7  1  1  0  0  2
  3  2  4  0  0  1
  2  6  4  0  0  1
  2  8  1  0  0  2
  4  3  4  0  0  1
  5  4  4  0  0  1
  5  7  4  0  0  1
  6  7  4  0  0  1
  6  9  1  0  0  2
  9 10  2  0  0  2
 10 11  4  0  0  1
 10 14  4  0  0  1
 11 12  1  0  0  1
 12 13  1  0  0  1
 13 14  1  0  0  1
  3 15  1  0  0  2
  4 16  1  0  0  2
  5 17  1  0  0  2
  9 18  1  0  0  2
 11 19  1  0  0  2
 12 20  1  0  0  2
 12 21  1  0  0  2
 13 22  1  0  0  2
 13 23  1  0  0  2
 14 24  1  0  0  2
M  END
> <MOLECULAR_FORMULA>
C9H10N3Cl2

> <MOLECULAR_WEIGHT>
231.0

> <NUM_HB_ATOMS>
3  

> <NUM_ROTOR>
0  

> <XLOGP2>
2.19 

$$$$
