REMARK  8 active torsions:
REMARK  status: ('A' for Active; 'I' for Inactive)
REMARK    1  A    between atoms: O3A_8  and  PB_1 
REMARK    2  A    between atoms: PA_5  and  O3A_8 
REMARK    3  A    between atoms: PA_5  and  O5'_9 
REMARK    4  A    between atoms: O5'_9  and  C5'_10 
REMARK    5  A    between atoms: C5'_10  and  C4'_11 
REMARK    6  A    between atoms: C3'_13  and  O3'_14 
REMARK    7  A    between atoms: C2'_15  and  O2'_16 
REMARK    8  A    between atoms: C1'_17  and  N9_18 
ROOT
ATOM      1  C4' ADP d           5.713  -8.875  25.212  0.00  0.00     0.180 C 
ATOM      2  O4' ADP d           6.384  -9.320  24.011  0.00  0.00    -0.353 OA
ATOM      3  C3' ADP d           4.458  -9.775  25.339  0.00  0.00     0.182 C 
ATOM      4  C2' ADP d           4.748 -10.977  24.431  0.00  0.00     0.198 C 
ATOM      5  C1' ADP d           5.834 -10.509  23.476  0.00  0.00     0.262 C 
ENDROOT
BRANCH   5   6
ATOM      6  N9  ADP d           6.877 -11.565  23.229  0.00  0.00    -0.294 N 
ATOM      7  C8  ADP d           7.741 -12.138  24.106  0.00  0.00     0.214 A 
ATOM      8  N7  ADP d           8.536 -13.058  23.523  0.00  0.00    -0.236 NA
ATOM      9  C5  ADP d           8.139 -13.056  22.221  0.00  0.00     0.149 A 
ATOM     10  C6  ADP d           8.599 -13.813  21.066  0.00  0.00     0.155 A 
ATOM     11  C4  ADP d           7.120 -12.129  22.022  0.00  0.00     0.167 A 
ATOM     12  N6  ADP d           9.529 -14.710  21.060  0.00  0.00    -0.382 N 
ATOM     13  N1  ADP d           7.926 -13.510  19.889  0.00  0.00    -0.222 NA
ATOM     14  H10 ADP d           9.778 -15.188  20.182  0.00  0.00     0.157 HD
ATOM     15  H11 ADP d          10.022 -14.947  21.933  0.00  0.00     0.157 HD
ATOM     16  C2  ADP d           6.910 -12.562  19.803  0.00  0.00     0.237 A 
ATOM     17  N3  ADP d           6.481 -11.859  20.855  0.00  0.00    -0.222 NA
ENDBRANCH   5   6
BRANCH   4  18
ATOM     18  O2' ADP d           3.614 -11.430  23.668  0.00  0.00    -0.388 OA
ATOM     19  H7  ADP d           3.308 -10.726  23.109  0.00  0.00     0.210 HD
ENDBRANCH   4  18
BRANCH   1  20
ATOM     20  C5' ADP d           6.675  -8.827  26.390  0.00  0.00     0.216 C 
BRANCH  20  21
ATOM     21  O5' ADP d           7.359  -7.536  26.488  0.00  0.00    -0.287 OA
BRANCH  21  22
ATOM     22  PA  ADP d           8.328  -7.222  27.708  0.00  0.00     0.418 P 
ATOM     23  O1A ADP d           9.291  -6.207  27.131  0.00  0.00    -0.624 OA
ATOM     24  O2A ADP d           8.970  -8.439  28.327  0.00  0.00    -0.624 OA
BRANCH  22  25
ATOM     25  O3A ADP d           7.398  -6.514  28.759  0.00  0.00    -0.173 OA
BRANCH  25  26
ATOM     26  PB  ADP d           6.667  -5.082  28.758  0.00  0.00     0.431 P 
ATOM     27  O1B ADP d           6.830  -4.556  27.379  0.00  0.00    -0.616 OA
ATOM     28  O2B ADP d           7.375  -4.266  29.799  0.00  0.00    -0.616 OA
ATOM     29  O3B ADP d           5.152  -5.324  29.115  0.00  0.00    -0.616 OA
ENDBRANCH  25  26
ENDBRANCH  22  25
ENDBRANCH  21  22
ENDBRANCH  20  21
ENDBRANCH   1  20
BRANCH   3  30
ATOM     30  O3' ADP d           3.324  -8.982  24.946  0.00  0.00    -0.390 OA
ATOM     31  H5  ADP d           2.534  -9.506  25.012  0.00  0.00     0.210 HD
ENDBRANCH   3  30
TORSDOF 8
