REMARK  4 active torsions:
REMARK  status: ('A' for Active; 'I' for Inactive)
REMARK    1  A    between atoms: C2_2  and  O2_7 
REMARK    2  A    between atoms: C3_3  and  O3_8 
REMARK    3  A    between atoms: C4_4  and  O4_9 
REMARK    4  A    between atoms: C6_6  and  O6_10 
ROOT
ATOM      1  C1  CTS d          20.958 -20.216  23.360  0.00  0.00     0.269 C 
ATOM      2  C2  CTS d          22.103 -19.686  24.213  0.00  0.00     0.175 C 
ATOM      3  C3  CTS d          21.633 -18.770  25.324  0.00  0.00     0.179 C 
ATOM      4  C4  CTS d          20.729 -17.674  24.762  0.00  0.00     0.182 C 
ATOM      5  C5  CTS d          19.583 -18.422  24.043  0.00  0.00     0.247 C 
ATOM      6  C6  CTS d          18.603 -17.536  23.348  0.00  0.00     0.153 C 
ATOM      7  N   CTS d          20.190 -19.087  22.877  0.00  0.00    -0.059 N 
ATOM      8  C7  CTS d          17.938 -18.531  22.387  0.00  0.00     0.061 C 
ATOM      9  C8  CTS d          19.050 -19.543  22.051  0.00  0.00     0.238 C 
ATOM     10  H12 CTS d          20.781 -18.456  22.358  0.00  0.00     0.280 HD
ENDROOT
BRANCH   2  11
ATOM     11  O2  CTS d          22.746 -20.762  24.861  0.00  0.00    -0.391 OA
ATOM     12  H8  CTS d          23.476 -20.432  25.372  0.00  0.00     0.210 HD
ENDBRANCH   2  11
BRANCH   3  13
ATOM     13  O3  CTS d          22.791 -18.269  25.940  0.00  0.00    -0.390 OA
ATOM     14  H9  CTS d          23.312 -18.992  26.269  0.00  0.00     0.210 HD
ENDBRANCH   3  13
BRANCH   4  15
ATOM     15  O4  CTS d          20.242 -16.798  25.781  0.00  0.00    -0.391 OA
ATOM     16  H10 CTS d          20.975 -16.359  26.197  0.00  0.00     0.210 HD
ENDBRANCH   4  15
BRANCH   6  17
ATOM     17  O6  CTS d          19.337 -16.546  22.598  0.00  0.00    -0.393 OA
ATOM     18  H11 CTS d          18.726 -15.973  22.149  0.00  0.00     0.210 HD
ENDBRANCH   6  17
TORSDOF 4
