REMARK  15 active torsions:
REMARK  status: ('A' for Active; 'I' for Inactive)
REMARK    1  A    between atoms: N11_1  and  C1_6 
REMARK    2  A    between atoms: C4_9  and  O4_2 
REMARK    3  A    between atoms: C5_10  and  O5_3 
REMARK    4  A    between atoms: N7_4  and  C7_12 
REMARK    5  A    between atoms: N2_5  and  C2_7 
REMARK    6  A    between atoms: C2_7  and  C20_13 
REMARK    7  A    between atoms: C3_8  and  C31_19 
REMARK    8  A    between atoms: C6_11  and  C61_26 
REMARK    9  A    between atoms: C7_12  and  C70_33 
REMARK   10  A    between atoms: C23_16  and  C26_42 
REMARK   11  A    between atoms: C31_19  and  C32_20 
REMARK   12  A    between atoms: C61_26  and  C62_27 
REMARK   13  A    between atoms: C73_36  and  C76_41 
REMARK   14  A    between atoms: C76_41  and  O76_43 
REMARK   15  A    between atoms: C26_42  and  O26_44 
ROOT
ATOM      1  N11 Q82 d          -7.733  14.499  28.218  0.00  0.00    -0.126 N 
ATOM      2  C12 Q82 d          -7.145  13.959  27.200  0.00  0.00     0.196 C 
ATOM      3  N13 Q82 d          -6.626  13.456  26.281  0.00  0.00    -0.171 NA
ATOM      4  H1  Q82 d          -7.426  14.247  29.169  0.00  0.00     0.197 HD
ENDROOT
BRANCH   1   5
ATOM      5  C1  Q82 d          -8.690  15.342  28.070  0.00  0.00     0.688 C 
ATOM      6  N7  Q82 d          -8.893  15.970  26.900  0.00  0.00    -0.205 N 
ATOM      7  C6  Q82 d          -8.607  17.390  26.821  0.00  0.00     0.138 C 
ATOM      8  C5  Q82 d          -9.794  18.220  27.260  0.00  0.00     0.172 C 
ATOM      9  C4  Q82 d         -10.174  17.987  28.712  0.00  0.00     0.172 C 
ATOM     10  C3  Q82 d         -10.591  16.549  29.045  0.00  0.00     0.138 C 
ATOM     11  N2  Q82 d          -9.502  15.575  29.117  0.00  0.00    -0.205 N 
BRANCH   6  12
ATOM     12  C7  Q82 d          -9.346  15.293  25.675  0.00  0.00     0.180 C 
BRANCH  12  13
ATOM     13  C70 Q82 d          -8.773  15.814  24.355  0.00  0.00    -0.040 A 
ATOM     14  C75 Q82 d          -9.646  15.948  23.268  0.00  0.00     0.009 A 
ATOM     15  C74 Q82 d          -9.213  16.415  22.024  0.00  0.00     0.010 A 
ATOM     16  C73 Q82 d          -7.884  16.753  21.811  0.00  0.00    -0.035 A 
ATOM     17  C72 Q82 d          -6.991  16.600  22.974  0.00  0.00     0.010 A 
ATOM     18  C71 Q82 d          -7.524  16.130  24.172  0.00  0.00     0.009 A 
BRANCH  16  19
ATOM     19  C76 Q82 d          -7.398  17.257  20.484  0.00  0.00     0.202 C 
BRANCH  19  20
ATOM     20  O76 Q82 d          -5.989  17.172  20.332  0.00  0.00    -0.396 OA
ATOM     21  H38 Q82 d          -5.743  17.504  19.477  0.00  0.00     0.209 HD
ENDBRANCH  19  20
ENDBRANCH  16  19
ENDBRANCH  12  13
ENDBRANCH   6  12
BRANCH   7  22
ATOM     22  C61 Q82 d          -7.365  17.634  27.683  0.00  0.00     0.067 C 
BRANCH  22  23
ATOM     23  C62 Q82 d          -6.191  18.103  26.858  0.00  0.00    -0.056 A 
ATOM     24  C67 Q82 d          -5.059  17.289  26.807  0.00  0.00     0.007 A 
ATOM     25  C66 Q82 d          -4.124  17.453  25.789  0.00  0.00     0.001 A 
ATOM     26  C65 Q82 d          -4.321  18.438  24.828  0.00  0.00     0.000 A 
ATOM     27  C64 Q82 d          -5.450  19.249  24.874  0.00  0.00     0.001 A 
ATOM     28  C63 Q82 d          -6.383  19.085  25.894  0.00  0.00     0.007 A 
ENDBRANCH  22  23
ENDBRANCH   7  22
BRANCH   8  29
ATOM     29  O5  Q82 d          -9.379  19.557  27.138  0.00  0.00    -0.391 OA
ATOM     30  H3  Q82 d         -10.091  20.133  27.391  0.00  0.00     0.210 HD
ENDBRANCH   8  29
BRANCH   9  31
ATOM     31  O4  Q82 d         -11.240  18.855  29.011  0.00  0.00    -0.391 OA
ATOM     32  H2  Q82 d         -10.987  19.748  28.806  0.00  0.00     0.210 HD
ENDBRANCH   9  31
BRANCH  10  33
ATOM     33  C31 Q82 d         -11.647  15.910  28.129  0.00  0.00     0.067 C 
BRANCH  33  34
ATOM     34  C32 Q82 d         -12.298  14.700  28.769  0.00  0.00    -0.056 A 
ATOM     35  C37 Q82 d         -13.286  14.848  29.747  0.00  0.00     0.007 A 
ATOM     36  C36 Q82 d         -13.949  13.729  30.265  0.00  0.00     0.001 A 
ATOM     37  C35 Q82 d         -13.666  12.432  29.847  0.00  0.00     0.000 A 
ATOM     38  C34 Q82 d         -12.689  12.255  28.883  0.00  0.00     0.001 A 
ATOM     39  C33 Q82 d         -12.053  13.385  28.383  0.00  0.00     0.007 A 
ENDBRANCH  33  34
ENDBRANCH  10  33
BRANCH  11  40
ATOM     40  C2  Q82 d          -9.432  14.721  30.312  0.00  0.00     0.180 C 
BRANCH  40  41
ATOM     41  C20 Q82 d          -9.707  15.436  31.619  0.00  0.00    -0.040 A 
ATOM     42  C25 Q82 d         -10.726  14.966  32.449  0.00  0.00     0.009 A 
ATOM     43  C24 Q82 d         -10.921  15.460  33.728  0.00  0.00     0.010 A 
ATOM     44  C23 Q82 d         -10.062  16.430  34.230  0.00  0.00    -0.035 A 
ATOM     45  C22 Q82 d          -8.971  16.929  33.362  0.00  0.00     0.010 A 
ATOM     46  C21 Q82 d          -8.825  16.408  32.080  0.00  0.00     0.009 A 
BRANCH  44  47
ATOM     47  C26 Q82 d         -10.249  16.968  35.620  0.00  0.00     0.202 C 
BRANCH  47  48
ATOM     48  O26 Q82 d         -11.268  16.295  36.351  0.00  0.00    -0.396 OA
ATOM     49  H39 Q82 d         -11.339  16.677  37.218  0.00  0.00     0.209 HD
ENDBRANCH  47  48
ENDBRANCH  44  47
ENDBRANCH  40  41
ENDBRANCH  11  40
ENDBRANCH   1   5
TORSDOF 15
