REMARK  4 active torsions:
REMARK  status: ('A' for Active; 'I' for Inactive)
REMARK    1  A    between atoms: C3_2  and  O3_3 
REMARK    2  A    between atoms: C4_4  and  O4_5 
REMARK    3  A    between atoms: C_8  and  C1_12 
REMARK    4  A    between atoms: C1_12  and  O30_10 
ROOT
ATOM      1  C2  FA1 d          44.193   7.498  26.940  0.00  0.00     0.082 C 
ATOM      2  C3  FA1 d          43.135   7.795  25.890  0.00  0.00     0.154 C 
ATOM      3  C4  FA1 d          43.718   7.528  24.500  0.00  0.00     0.169 C 
ATOM      4  C5  FA1 d          44.345   6.147  24.445  0.00  0.00     0.006 C 
ATOM      5  C6  FA1 d          44.757   5.497  25.602  0.00  0.00     0.015 C 
ATOM      6  C1  FA1 d          44.609   6.004  26.917  0.00  0.00     0.145 C 
ENDROOT
BRANCH   6   7
ATOM      7  C   FA1 d          45.997   5.786  27.549  0.00  0.00     0.327 C 
ATOM      8  O1  FA1 d          46.453   6.812  28.425  0.00  0.00    -0.184 OA
ATOM      9  O2  FA1 d          46.106   4.479  28.057  0.00  0.00    -0.184 OA
ENDBRANCH   6   7
BRANCH   6  10
ATOM     10  O30 FA1 d          43.603   5.138  27.558  0.00  0.00    -0.380 OA
ATOM     11  H9  FA1 d          43.916   4.241  27.563  0.00  0.00     0.211 HD
ENDBRANCH   6  10
BRANCH   2  12
ATOM     12  O3  FA1 d          42.686   9.173  26.002  0.00  0.00    -0.393 OA
ATOM     13  H4  FA1 d          42.026   9.345  25.341  0.00  0.00     0.210 HD
ENDBRANCH   2  12
BRANCH   3  14
ATOM     14  O4  FA1 d          42.652   7.623  23.587  0.00  0.00    -0.389 OA
ATOM     15  H6  FA1 d          42.274   8.493  23.633  0.00  0.00     0.210 HD
ENDBRANCH   3  14
TORSDOF 4
