REMARK  13 active torsions:
REMARK  status: ('A' for Active; 'I' for Inactive)
REMARK    1  A    between atoms: C2_10  and  N1_6 
REMARK    2  A    between atoms: N1_6  and  C4_12 
REMARK       I    between atoms: C1_9  and  N2_7 
REMARK    3  A    between atoms: C13_21  and  N3_8 
REMARK    4  A    between atoms: C2_10  and  C1_9 
REMARK    5  A    between atoms: C10_18  and  C2_10 
REMARK    6  A    between atoms: C4_12  and  C3_11 
REMARK    7  A    between atoms: C4_12  and  C14_22 
REMARK    8  A    between atoms: C5_13  and  C9_17 
REMARK    9  A    between atoms: C11_19  and  C10_18 
REMARK   10  A    between atoms: C12_20  and  C11_19 
REMARK   11  A    between atoms: C12_20  and  C13_21 
REMARK   12  A    between atoms: C14_22  and  C15_23 
REMARK   13  A    between atoms: C15_23  and  C16_24 
ROOT
ATOM      1  C2  LPR d          27.432  -3.634  43.929  0.00  0.00     0.278 C 
ENDROOT
BRANCH   1   2
ATOM      2  N1  LPR d          27.226  -2.205  43.502  0.00  0.00    -0.048 N 
ATOM      3  H1  LPR d          26.245  -2.099  43.295  0.00  0.00     0.279 HD
ATOM      4  H2  LPR d          27.763  -2.071  42.660  0.00  0.00     0.279 HD
BRANCH   2   5
ATOM      5  C4  LPR d          27.603  -1.072  44.455  0.00  0.00     0.287 C 
BRANCH   5   6
ATOM      6  C3  LPR d          26.953  -1.368  45.811  0.00  0.00     0.204 C 
ATOM      7  O2  LPR d          27.647  -1.401  46.838  0.00  0.00    -0.646 OA
ATOM      8  O3  LPR d          25.708  -1.569  45.830  0.00  0.00    -0.646 OA
ENDBRANCH   5   6
BRANCH   5   9
ATOM      9  C14 LPR d          27.203   0.317  43.864  0.00  0.00     0.049 C 
BRANCH   9  10
ATOM     10  C15 LPR d          27.887   1.446  44.621  0.00  0.00     0.041 C 
BRANCH  10  11
ATOM     11  C16 LPR d          27.599   2.867  44.228  0.00  0.00    -0.058 A 
ATOM     12  C17 LPR d          28.175   3.928  44.992  0.00  0.00     0.007 A 
ATOM     13  C18 LPR d          27.926   5.286  44.648  0.00  0.00     0.001 A 
ATOM     14  C19 LPR d          27.084   5.593  43.528  0.00  0.00     0.000 A 
ATOM     15  C20 LPR d          26.499   4.538  42.760  0.00  0.00     0.001 A 
ATOM     16  C21 LPR d          26.758   3.180  43.108  0.00  0.00     0.007 A 
ENDBRANCH  10  11
ENDBRANCH   9  10
ENDBRANCH   5   9
ENDBRANCH   2   5
ENDBRANCH   1   2
BRANCH   1  17
ATOM     17  C1  LPR d          28.988  -3.817  43.985  0.00  0.00     0.251 C 
ATOM     18  O1  LPR d          29.717  -3.059  43.266  0.00  0.00    -0.271 OA
ATOM     19  N2  LPR d          29.576  -4.752  44.762  0.00  0.00    -0.336 N 
ATOM     20  C5  LPR d          31.083  -4.893  44.743  0.00  0.00     0.188 C 
ATOM     21  C8  LPR d          28.968  -5.755  45.681  0.00  0.00     0.127 C 
ATOM     22  C6  LPR d          31.284  -6.118  45.650  0.00  0.00     0.038 C 
ATOM     23  C7  LPR d          30.155  -6.262  46.407  0.00  0.00     0.022 C 
BRANCH  20  24
ATOM     24  C9  LPR d          31.574  -5.170  43.308  0.00  0.00     0.196 C 
ATOM     25  O4  LPR d          30.937  -5.812  42.530  0.00  0.00    -0.646 OA
ATOM     26  O5  LPR d          32.695  -4.603  43.057  0.00  0.00    -0.646 OA
ENDBRANCH  20  24
ENDBRANCH   1  17
BRANCH   1  27
ATOM     27  C10 LPR d          26.906  -4.677  42.977  0.00  0.00     0.043 C 
BRANCH  27  28
ATOM     28  C11 LPR d          27.512  -4.799  41.661  0.00  0.00     0.004 C 
BRANCH  28  29
ATOM     29  C12 LPR d          26.947  -5.939  40.673  0.00  0.00     0.027 C 
BRANCH  29  30
ATOM     30  C13 LPR d          28.000  -6.389  39.795  0.00  0.00     0.229 C 
BRANCH  30  31
ATOM     31  N3  LPR d          27.551  -7.462  38.835  0.00  0.00    -0.079 N 
ATOM     32  H3  LPR d          28.325  -7.735  38.250  0.00  0.00     0.274 HD
ATOM     33  H4  LPR d          26.804  -7.106  38.259  0.00  0.00     0.274 HD
ATOM     34  H5  LPR d          27.224  -8.262  39.354  0.00  0.00     0.274 HD
ENDBRANCH  30  31
ENDBRANCH  29  30
ENDBRANCH  28  29
ENDBRANCH  27  28
ENDBRANCH   1  27
TORSDOF 13
