REMARK  2 active torsions:
REMARK  status: ('A' for Active; 'I' for Inactive)
REMARK    1  A    between atoms: N_1  and  CA_2 
REMARK    2  A    between atoms: CA_2  and  C_3 
ROOT
ATOM      1  N   BET d          10.221  10.670  16.632  0.00  0.00    -0.069 N 
ATOM      2  C1  BET d          11.551  10.655  15.967  0.00  0.00     0.272 C 
ATOM      3  C2  BET d           9.180  10.052  15.781  0.00  0.00     0.272 C 
ATOM      4  C3  BET d           9.873  12.091  16.883  0.00  0.00     0.272 C 
ENDROOT
BRANCH   1   5
ATOM      5  CA  BET d          10.259  10.002  17.951  0.00  0.00     0.348 C 
BRANCH   5   6
ATOM      6  C   BET d          10.770   8.584  17.979  0.00  0.00     0.199 C 
ATOM      7  O1  BET d          10.956   8.082  19.107  0.00  0.00    -0.647 OA
ATOM      8  O2  BET d          10.973   7.947  16.921  0.00  0.00    -0.647 OA
ENDBRANCH   5   6
ENDBRANCH   1   5
TORSDOF 2
