REMARK  6 active torsions:
REMARK  status: ('A' for Active; 'I' for Inactive)
REMARK    1  A    between atoms: CAL_12  and  CAM_13 
REMARK    2  A    between atoms: OAN_14  and  CAL_12 
REMARK    3  A    between atoms: CAM_13  and  SAP_16 
REMARK    4  A    between atoms: CAQ_17  and  OAN_14 
REMARK    5  A    between atoms: OAO_15  and  CAR_18 
REMARK    6  A    between atoms: OAO_15  and  CAS_19 
ROOT
ATOM      1  NAA RWY d          22.409 -10.152   8.892  0.00  0.00    -0.184 NA
ATOM      2  CAB RWY d          22.625 -10.612   7.874  0.00  0.00     0.133 C 
ATOM      3  SAP RWY d          22.935 -11.273   6.407  0.00  0.00    -0.049 SA
ENDROOT
BRANCH   3   4
ATOM      4  CAM RWY d          23.831 -12.786   6.912  0.00  0.00     0.117 C 
BRANCH   4   5
ATOM      5  CAL RWY d          25.156 -12.967   6.171  0.00  0.00     0.186 C 
BRANCH   5   6
ATOM      6  OAN RWY d          25.955 -13.938   6.858  0.00  0.00    -0.350 OA
BRANCH   6   7
ATOM      7  CAQ RWY d          25.152 -14.952   7.270  0.00  0.00     0.069 A 
ATOM      8  CAH RWY d          24.796 -15.051   8.608  0.00  0.00     0.039 A 
ATOM      9  CAJ RWY d          23.973 -16.087   9.031  0.00  0.00     0.040 A 
ATOM     10  CAS RWY d          23.508 -17.022   8.116  0.00  0.00     0.076 A 
ATOM     11  CAK RWY d          23.864 -16.922   6.778  0.00  0.00     0.040 A 
ATOM     12  CAI RWY d          24.686 -15.886   6.355  0.00  0.00     0.039 A 
BRANCH  10  13
ATOM     13  OAO RWY d          22.701 -18.031   8.535  0.00  0.00    -0.311 OA
BRANCH  13  14
ATOM     14  CAR RWY d          23.059 -19.203   7.953  0.00  0.00     0.076 A 
ATOM     15  CAF RWY d          22.857 -20.399   8.632  0.00  0.00     0.037 A 
ATOM     16  CAD RWY d          23.219 -21.603   8.044  0.00  0.00     0.003 A 
ATOM     17  CAC RWY d          23.784 -21.609   6.775  0.00  0.00     0.000 A 
ATOM     18  CAE RWY d          23.984 -20.413   6.096  0.00  0.00     0.003 A 
ATOM     19  CAG RWY d          23.623 -19.208   6.685  0.00  0.00     0.037 A 
ENDBRANCH  13  14
ENDBRANCH  10  13
ENDBRANCH   6   7
ENDBRANCH   5   6
ENDBRANCH   4   5
ENDBRANCH   3   4
TORSDOF 6
