REMARK  5 active torsions:
REMARK  status: ('A' for Active; 'I' for Inactive)
REMARK    1  A    between atoms: C3_3  and  O3_10 
REMARK    2  A    between atoms: C4_4  and  O4_12 
REMARK    3  A    between atoms: C5_5  and  C6_6 
REMARK    4  A    between atoms: C6_6  and  O6_14 
REMARK    5  A    between atoms: C2_13  and  O2_11 
ROOT
ATOM      1  C1  MVL d          30.934  65.660  10.227  0.00  0.00     0.138 A 
ATOM      2  N10 MVL d          29.831  65.968   9.422  0.00  0.00    -0.332 N 
ATOM      3  C3  MVL d          32.549  66.009   8.286  0.00  0.00     0.185 C 
ATOM      4  C4  MVL d          31.298  65.813   7.415  0.00  0.00     0.175 C 
ATOM      5  C5  MVL d          29.951  66.259   7.988  0.00  0.00     0.145 C 
ATOM      6  C7  MVL d          29.161  65.797  11.500  0.00  0.00     0.136 A 
ATOM      7  C8  MVL d          28.757  66.070  10.240  0.00  0.00     0.112 A 
ATOM      8  N1  MVL d          30.473  65.563  11.494  0.00  0.00    -0.243 NA
ATOM      9  C2  MVL d          32.396  65.556   9.690  0.00  0.00     0.219 C 
ENDROOT
BRANCH   5  10
ATOM     10  C6  MVL d          28.831  65.651   7.185  0.00  0.00     0.192 C 
BRANCH  10  11
ATOM     11  O6  MVL d          27.581  66.101   7.676  0.00  0.00    -0.399 OA
ATOM     12  H12 MVL d          27.488  65.844   8.586  0.00  0.00     0.209 HD
ENDBRANCH  10  11
ENDBRANCH   5  10
BRANCH   4  13
ATOM     13  O4  MVL d          31.458  66.691   6.294  0.00  0.00    -0.391 OA
ATOM     14  H10 MVL d          32.279  66.498   5.856  0.00  0.00     0.210 HD
ENDBRANCH   4  13
BRANCH   3  15
ATOM     15  O3  MVL d          33.667  65.460   7.632  0.00  0.00    -0.390 OA
ATOM     16  H8  MVL d          33.524  64.532   7.487  0.00  0.00     0.210 HD
ENDBRANCH   3  15
BRANCH   9  17
ATOM     17  O2  MVL d          33.147  64.374   9.906  0.00  0.00    -0.385 OA
ATOM     18  H9  MVL d          34.065  64.547   9.732  0.00  0.00     0.210 HD
ENDBRANCH   9  17
TORSDOF 5
