REMARK  4 active torsions:
REMARK  status: ('A' for Active; 'I' for Inactive)
REMARK    1  A    between atoms: C1_1  and  O1_7 
REMARK    2  A    between atoms: C2_2  and  O2_8 
REMARK    3  A    between atoms: C3_3  and  O3_9 
REMARK    4  A    between atoms: C4_4  and  O4_10 
ROOT
ATOM      1  C1  MFB d         -44.204  16.297  -9.250  0.00  0.00     0.290 C 
ATOM      2  C2  MFB d         -42.748  16.646  -8.922  0.00  0.00     0.204 C 
ATOM      3  C3  MFB d         -42.134  15.818  -7.802  0.00  0.00     0.183 C 
ATOM      4  C4  MFB d         -42.412  14.337  -8.010  0.00  0.00     0.178 C 
ATOM      5  C5  MFB d         -43.929  14.149  -8.217  0.00  0.00     0.152 C 
ATOM      6  C6  MFB d         -44.340  12.698  -8.361  0.00  0.00     0.042 C 
ATOM      7  O5  MFB d         -44.353  14.870  -9.389  0.00  0.00    -0.351 OA
ENDROOT
BRANCH   1   8
ATOM      8  O1  MFB d         -44.538  16.979 -10.473  0.00  0.00    -0.363 OA
ATOM      9  CM  MFB d         -45.962  17.079 -10.670  0.00  0.00     0.204 C 
ENDBRANCH   1   8
BRANCH   2  10
ATOM     10  O2  MFB d         -42.658  18.035  -8.552  0.00  0.00    -0.388 OA
ATOM     11  H9  MFB d         -41.746  18.271  -8.432  0.00  0.00     0.210 HD
ENDBRANCH   2  10
BRANCH   3  12
ATOM     12  O3  MFB d         -40.734  16.114  -7.808  0.00  0.00    -0.390 OA
ATOM     13  H10 MFB d         -40.361  15.859  -8.644  0.00  0.00     0.210 HD
ENDBRANCH   3  12
BRANCH   4  14
ATOM     14  O4  MFB d         -41.710  13.904  -9.173  0.00  0.00    -0.390 OA
ATOM     15  H11 MFB d         -40.777  14.022  -9.040  0.00  0.00     0.210 HD
ENDBRANCH   4  14
TORSDOF 4
