REMARK  0 active torsions:
REMARK  status: ('A' for Active; 'I' for Inactive)
ROOT
ATOM      1  N1  TDR d          26.944  45.823 -10.879  0.00  0.00    -0.210 NA
ATOM      2  C2  TDR d          27.145  44.874 -11.815  0.00  0.00     0.348 A 
ATOM      3  O2  TDR d          28.223  44.754 -12.442  0.00  0.00    -0.245 OA
ATOM      4  N3  TDR d          26.214  43.955 -12.100  0.00  0.00    -0.277 N 
ATOM      5  C4  TDR d          25.017  43.948 -11.489  0.00  0.00     0.234 A 
ATOM      6  O4  TDR d          24.222  43.067 -11.877  0.00  0.00    -0.272 OA
ATOM      7  C5  TDR d          24.738  44.988 -10.457  0.00  0.00     0.115 A 
ATOM      8  CM5 TDR d          23.432  45.058  -9.695  0.00  0.00     0.025 C 
ATOM      9  C6  TDR d          25.765  45.918 -10.204  0.00  0.00     0.109 A 
ATOM     10  H   TDR d          26.415  43.255 -12.786  0.00  0.00     0.173 HD
ENDROOT
TORSDOF 0
