REMARK  2 active torsions:
REMARK  status: ('A' for Active; 'I' for Inactive)
REMARK    1  A    between atoms: C9_14  and  N3_2 
REMARK    2  A    between atoms: C6_11  and  C9_14 
ROOT
ATOM      1  N2  N2Y d         -18.816  -0.107  25.315  0.00  0.00    -0.369 N 
ATOM      2  N3  N2Y d         -21.014   0.055  24.414  0.00  0.00    -0.322 N 
ATOM      3  C1  N2Y d         -20.028   0.297  25.406  0.00  0.00     0.201 A 
ATOM      4  N4  N2Y d         -20.568   1.035  26.480  0.00  0.00    -0.226 NA
ATOM      5  C2  N2Y d         -21.978   1.312  26.223  0.00  0.00     0.137 A 
ATOM      6  C3  N2Y d         -22.276   0.665  24.853  0.00  0.00     0.113 A 
ATOM      7  H1  N2Y d         -18.146   0.100  26.069  0.00  0.00     0.159 HD
ATOM      8  H2  N2Y d         -18.511  -0.639  24.488  0.00  0.00     0.159 HD
ENDROOT
BRANCH   2   9
ATOM      9  C9  N2Y d         -20.857  -0.668  23.123  0.00  0.00     0.171 C 
BRANCH   9  10
ATOM     10  C6  N2Y d         -21.354  -2.114  22.914  0.00  0.00    -0.022 A 
ATOM     11  C5  N2Y d         -21.447  -2.602  21.580  0.00  0.00     0.127 A 
ATOM     12  N6  N2Y d         -21.855  -3.840  21.303  0.00  0.00    -0.248 NA
ATOM     13  C4  N2Y d         -22.202  -4.704  22.247  0.00  0.00     0.125 A 
ATOM     14 CL1  N2Y d         -22.714  -6.291  21.728  0.00  0.00    -0.062 Cl
ATOM     15  C8  N2Y d         -22.157  -4.338  23.637  0.00  0.00     0.045 A 
ATOM     16  C7  N2Y d         -21.723  -3.015  23.965  0.00  0.00     0.013 A 
ENDBRANCH   9  10
ENDBRANCH   2   9
TORSDOF 2
