REMARK  22 active torsions:
REMARK  status: ('A' for Active; 'I' for Inactive)
REMARK    1  A    between atoms: PA_1  and  O3A_4 
REMARK    2  A    between atoms: PA_1  and  O5F_20 
REMARK    3  A    between atoms: O3A_4  and  PB_5 
REMARK    4  A    between atoms: PB_5  and  O3B_8 
REMARK    5  A    between atoms: O3B_8  and  PG_9 
REMARK    6  A    between atoms: PG_9  and  O3G_12 
REMARK    7  A    between atoms: O3G_12  and  PD_13 
REMARK    8  A    between atoms: PD_13  and  O3D_16 
REMARK    9  A    between atoms: O3D_16  and  PE_17 
REMARK   10  A    between atoms: PE_17  and  O5J_39 
REMARK   11  A    between atoms: O5F_20  and  C5F_21 
REMARK   12  A    between atoms: C5F_21  and  C4F_22 
REMARK   13  A    between atoms: C3F_24  and  O3F_25 
REMARK   14  A    between atoms: C2F_26  and  O2F_27 
REMARK   15  A    between atoms: C1F_28  and  N9A_29 
REMARK   16  A    between atoms: C6A_33  and  N6A_34 
REMARK   17  A    between atoms: O5J_39  and  C5J_40 
REMARK   18  A    between atoms: C5J_40  and  C4J_41 
REMARK   19  A    between atoms: C3J_43  and  O3J_44 
REMARK   20  A    between atoms: C2J_45  and  O2J_46 
REMARK   21  A    between atoms: C1J_47  and  N9B_48 
REMARK   22  A    between atoms: C6B_52  and  N6B_53 
ROOT
ATOM      1  PG  AP5 d         -19.805  17.821 -36.210  0.00  0.00     0.427 P 
ATOM      2  O1G AP5 d         -18.475  18.475 -36.627  0.00  0.00    -0.624 OA
ATOM      3  O2G AP5 d         -20.280  18.416 -34.868  0.00  0.00    -0.624 OA
ENDROOT
BRANCH   1   4
ATOM      4  O3B AP5 d         -19.610  16.236 -36.048  0.00  0.00    -0.180 OA
BRANCH   4   5
ATOM      5  PB  AP5 d         -18.266  15.550 -35.694  0.00  0.00     0.427 P 
ATOM      6  O1B AP5 d         -17.423  15.367 -36.947  0.00  0.00    -0.624 OA
ATOM      7  O2B AP5 d         -17.518  16.375 -34.670  0.00  0.00    -0.624 OA
BRANCH   5   8
ATOM      8  O3A AP5 d         -18.603  14.072 -35.105  0.00  0.00    -0.180 OA
BRANCH   8   9
ATOM      9  PA  AP5 d         -18.768  13.685 -33.592  0.00  0.00     0.417 P 
ATOM     10  O1A AP5 d         -17.440  13.623 -32.904  0.00  0.00    -0.624 OA
ATOM     11  O2A AP5 d         -19.664  14.656 -32.887  0.00  0.00    -0.624 OA
BRANCH   9  12
ATOM     12  O5F AP5 d         -19.430  12.211 -33.600  0.00  0.00    -0.287 OA
BRANCH  12  13
ATOM     13  C5F AP5 d         -20.745  12.049 -34.102  0.00  0.00     0.216 C 
BRANCH  13  14
ATOM     14  C4F AP5 d         -21.482  10.980 -33.253  0.00  0.00     0.180 C 
ATOM     15  O4F AP5 d         -21.016   9.808 -33.520  0.00  0.00    -0.353 OA
ATOM     16  C1F AP5 d         -20.173   9.281 -32.230  0.00  0.00     0.262 C 
ATOM     17  C2F AP5 d         -20.061  10.260 -31.405  0.00  0.00     0.198 C 
ATOM     18  C3F AP5 d         -21.218  11.221 -31.760  0.00  0.00     0.182 C 
BRANCH  16  19
ATOM     19  N9A AP5 d         -18.908   8.828 -32.684  0.00  0.00    -0.294 N 
ATOM     20  C8A AP5 d         -17.778   9.564 -32.835  0.00  0.00     0.214 A 
ATOM     21  N7A AP5 d         -16.801   8.742 -33.299  0.00  0.00    -0.236 NA
ATOM     22  C5A AP5 d         -17.331   7.491 -33.440  0.00  0.00     0.149 A 
ATOM     23  C6A AP5 d         -16.787   6.299 -33.869  0.00  0.00     0.155 A 
ATOM     24  C4A AP5 d         -18.628   7.541 -33.066  0.00  0.00     0.167 A 
ATOM     25  N1A AP5 d         -17.555   5.180 -33.913  0.00  0.00    -0.222 NA
ATOM     26  C2A AP5 d         -18.865   5.226 -33.536  0.00  0.00     0.237 A 
ATOM     27  N3A AP5 d         -19.405   6.399 -33.113  0.00  0.00    -0.222 NA
BRANCH  23  28
ATOM     28  N6A AP5 d         -15.425   5.965 -34.327  0.00  0.00    -0.382 N 
ATOM     29  H10 AP5 d         -15.200   5.002 -34.614  0.00  0.00     0.157 HD
ATOM     30  H11 AP5 d         -14.699   6.695 -34.360  0.00  0.00     0.157 HD
ENDBRANCH  23  28
ENDBRANCH  16  19
BRANCH  17  31
ATOM     31  O2F AP5 d         -20.179   9.806 -29.996  0.00  0.00    -0.388 OA
ATOM     32  H7  AP5 d         -20.145  10.559 -29.418  0.00  0.00     0.210 HD
ENDBRANCH  17  31
BRANCH  18  33
ATOM     33  O3F AP5 d         -22.336  10.943 -31.025  0.00  0.00    -0.390 OA
ATOM     34  H5  AP5 d         -22.155  11.097 -30.105  0.00  0.00     0.210 HD
ENDBRANCH  18  33
ENDBRANCH  13  14
ENDBRANCH  12  13
ENDBRANCH   9  12
ENDBRANCH   8   9
ENDBRANCH   5   8
ENDBRANCH   4   5
ENDBRANCH   1   4
BRANCH   1  35
ATOM     35  O3G AP5 d         -20.895  18.048 -37.396  0.00  0.00    -0.180 OA
BRANCH  35  36
ATOM     36  PD  AP5 d         -22.225  18.949 -37.275  0.00  0.00     0.427 P 
ATOM     37  O1D AP5 d         -23.362  18.059 -36.890  0.00  0.00    -0.624 OA
ATOM     38  O2D AP5 d         -22.504  19.583 -38.627  0.00  0.00    -0.624 OA
BRANCH  36  39
ATOM     39  O3D AP5 d         -22.060  20.031 -36.157  0.00  0.00    -0.180 OA
BRANCH  39  40
ATOM     40  PE  AP5 d         -21.300  21.422 -36.242  0.00  0.00     0.417 P 
ATOM     41  O1E AP5 d         -19.928  21.260 -36.859  0.00  0.00    -0.624 OA
ATOM     42  O2E AP5 d         -21.157  21.973 -34.838  0.00  0.00    -0.624 OA
BRANCH  40  43
ATOM     43  O5J AP5 d         -22.162  22.450 -37.096  0.00  0.00    -0.287 OA
BRANCH  43  44
ATOM     44  C5J AP5 d         -23.415  22.858 -36.554  0.00  0.00     0.216 C 
BRANCH  44  45
ATOM     45  C4J AP5 d         -23.805  24.266 -37.151  0.00  0.00     0.180 C 
ATOM     46  O4J AP5 d         -23.013  25.189 -36.699  0.00  0.00    -0.353 OA
ATOM     47  C1J AP5 d         -22.698  26.201 -37.923  0.00  0.00     0.262 C 
ATOM     48  C2J AP5 d         -23.349  25.754 -38.959  0.00  0.00     0.198 C 
ATOM     49  C3J AP5 d         -23.592  24.264 -38.671  0.00  0.00     0.182 C 
BRANCH  47  50
ATOM     50  N9B AP5 d         -21.305  26.220 -38.110  0.00  0.00    -0.294 N 
ATOM     51  C8B AP5 d         -20.389  25.594 -37.355  0.00  0.00     0.214 A 
ATOM     52  N7B AP5 d         -19.150  25.870 -37.865  0.00  0.00    -0.236 NA
ATOM     53  C5B AP5 d         -19.316  26.675 -38.946  0.00  0.00     0.149 A 
ATOM     54  C6B AP5 d         -18.404  27.244 -39.814  0.00  0.00     0.155 A 
ATOM     55  C4B AP5 d         -20.643  26.902 -39.107  0.00  0.00     0.167 A 
ATOM     56  N1B AP5 d         -18.836  28.028 -40.834  0.00  0.00    -0.222 NA
ATOM     57  C2B AP5 d         -20.166  28.254 -40.996  0.00  0.00     0.237 A 
ATOM     58  N3B AP5 d         -21.069  27.692 -40.132  0.00  0.00    -0.222 NA
BRANCH  54  59
ATOM     59  N6B AP5 d         -16.977  27.247 -39.979  0.00  0.00    -0.382 N 
ATOM     60  H22 AP5 d         -16.549  27.782 -40.748  0.00  0.00     0.157 HD
ATOM     61  H23 AP5 d         -16.382  26.714 -39.329  0.00  0.00     0.157 HD
ENDBRANCH  54  59
ENDBRANCH  47  50
BRANCH  48  62
ATOM     62  O2J AP5 d         -24.683  26.462 -39.052  0.00  0.00    -0.388 OA
ATOM     63  H19 AP5 d         -25.195  26.079 -39.754  0.00  0.00     0.210 HD
ENDBRANCH  48  62
BRANCH  49  64
ATOM     64  O3J AP5 d         -24.692  23.813 -39.290  0.00  0.00    -0.390 OA
ATOM     65  H17 AP5 d         -24.549  23.816 -40.229  0.00  0.00     0.210 HD
ENDBRANCH  49  64
ENDBRANCH  44  45
ENDBRANCH  43  44
ENDBRANCH  40  43
ENDBRANCH  39  40
ENDBRANCH  36  39
ENDBRANCH  35  36
ENDBRANCH   1  35
TORSDOF 22
