REMARK  2 active torsions:
REMARK  status: ('A' for Active; 'I' for Inactive)
REMARK    1  A    between atoms: N1_1  and  C2_2 
REMARK    2  A    between atoms: C4_4  and  S5_5 
ROOT
ATOM      1  C2  MOL d           3.424  14.061  42.652  0.00  0.00     0.139 A 
ATOM      2  N3  MOL d           3.525  14.112  44.012  0.00  0.00    -0.205 NA
ATOM      3  C4  MOL d           4.117  13.117  44.742  0.00  0.00     0.189 A 
ATOM      4  N6  MOL d           4.656  12.013  44.154  0.00  0.00    -0.203 NA
ATOM      5  C7  MOL d           4.575  11.927  42.803  0.00  0.00     0.162 A 
ATOM      6  N8  MOL d           4.990  10.981  41.938  0.00  0.00    -0.261 N 
ATOM      7  N9  MOL d           4.672  11.350  40.697  0.00  0.00    -0.184 NA
ATOM      8  C10 MOL d           4.042  12.548  40.713  0.00  0.00     0.158 A 
ATOM      9  C11 MOL d           3.968  12.936  42.043  0.00  0.00     0.076 A 
ATOM     10  H   MOL d           5.476  10.110  42.195  0.00  0.00     0.191 HD
ENDROOT
BRANCH   1  11
ATOM     11  N1  MOL d           2.833  15.038  41.940  0.00  0.00    -0.383 N 
ATOM     12  H   MOL d           2.775  14.965  40.914  0.00  0.00     0.157 HD
ATOM     13  H   MOL d           2.438  15.859  42.421  0.00  0.00     0.157 HD
ENDBRANCH   1  11
BRANCH   3  14
ATOM     14  S5  MOL d           4.221  13.216  46.514  0.00  0.00    -0.103 SA
ATOM     15  H   MOL d           4.687  12.396  46.868  0.00  0.00     0.110 HD
ENDBRANCH   3  14
TORSDOF 2
