REMARK  4 active torsions:
REMARK  status: ('A' for Active; 'I' for Inactive)
REMARK    1  A    between atoms: O4_1  and  C4_2 
REMARK    2  A    between atoms: C3_3  and  O3_4 
REMARK    3  A    between atoms: C5_7  and  C6_8 
REMARK    4  A    between atoms: C6_8  and  O6_9 
ROOT
ATOM      1  C4  MOL d          32.508  21.343  25.738  0.00  0.00     0.181 C 
ATOM      2  C3  MOL d          32.770  22.776  25.279  0.00  0.00     0.174 C 
ATOM      3  C2  MOL d          33.950  23.226  26.161  0.00  0.00     0.267 C 
ATOM      4  N1  MOL d          34.093  22.165  27.197  0.00  0.00    -0.064 N 
ATOM      5  C5  MOL d          32.766  21.511  27.246  0.00  0.00     0.240 C 
ATOM      6  H7  MOL d          34.324  22.569  28.091  0.00  0.00     0.277 HD
ATOM      7  H8  MOL d          34.806  21.503  26.933  0.00  0.00     0.277 HD
ENDROOT
BRANCH   5   8
ATOM      8  C6  MOL d          32.811  20.194  28.039  0.00  0.00     0.199 C 
BRANCH   8   9
ATOM      9  O6  MOL d          33.758  19.294  27.442  0.00  0.00    -0.399 OA
ATOM     10  H12 MOL d          33.779  18.484  27.938  0.00  0.00     0.209 HD
ENDBRANCH   8   9
ENDBRANCH   5   8
BRANCH   1  11
ATOM     11  O4  MOL d          31.145  20.955  25.489  0.00  0.00    -0.391 OA
ATOM     12  H1  MOL d          31.012  20.062  25.784  0.00  0.00     0.210 HD
ENDBRANCH   1  11
BRANCH   2  13
ATOM     13  O3  MOL d          33.152  22.792  23.918  0.00  0.00    -0.391 OA
ATOM     14  H4  MOL d          33.312  23.688  23.646  0.00  0.00     0.210 HD
ENDBRANCH   2  13
TORSDOF 4
