REMARK  6 active torsions:
REMARK  status: ('A' for Active; 'I' for Inactive)
REMARK    1  A    between atoms: C'_1  and  O1'_2 
REMARK    2  A    between atoms: C'_1  and  C1_3 
REMARK    3  A    between atoms: C3_5  and  N3_6 
REMARK    4  A    between atoms: C4_7  and  N4_8 
REMARK       I    between atoms: N4_8  and  C4'_9 
REMARK    5  A    between atoms: C5_12  and  O5_13 
REMARK    6  A    between atoms: C6_14  and  O4_15 
ROOT
ATOM      1  C1  BEU d           5.204 -11.856   2.278  0.00  0.00    -0.027 C 
ATOM      2  C2  BEU d           5.236 -12.556   3.427  0.00  0.00     0.015 C 
ATOM      3  C3  BEU d           6.542 -12.922   4.086  0.00  0.00     0.231 C 
ATOM      4  C4  BEU d           7.623 -11.817   3.944  0.00  0.00     0.150 C 
ATOM      5  C5  BEU d           7.321 -10.748   2.883  0.00  0.00     0.176 C 
ATOM      6  C6  BEU d           6.506 -11.334   1.714  0.00  0.00     0.179 C 
ENDROOT
BRANCH   4   7
ATOM      7  N4  BEU d           7.953 -11.188   5.227  0.00  0.00    -0.352 N 
ATOM      8  C4' BEU d           7.051 -10.595   6.019  0.00  0.00     0.214 C 
ATOM      9  O4' BEU d           5.882 -10.534   5.728  0.00  0.00    -0.274 OA
ATOM     10  CM4 BEU d           7.541 -10.014   7.302  0.00  0.00     0.117 C 
ATOM     11  H10 BEU d           8.907 -11.203   5.528  0.00  0.00     0.163 HD
ENDBRANCH   4   7
BRANCH   3  12
ATOM     12  N3  BEU d           6.988 -14.213   3.542  0.00  0.00    -0.070 N 
ATOM     13  H6  BEU d           6.256 -14.897   3.656  0.00  0.00     0.275 HD
ATOM     14  H7  BEU d           7.813 -14.518   4.035  0.00  0.00     0.275 HD
ATOM     15  H8  BEU d           7.201 -14.109   2.562  0.00  0.00     0.275 HD
ENDBRANCH   3  12
BRANCH   5  16
ATOM     16  O5  BEU d           8.553 -10.195   2.407  0.00  0.00    -0.391 OA
ATOM     17  H15 BEU d           8.369  -9.533   1.750  0.00  0.00     0.210 HD
ENDBRANCH   5  16
BRANCH   6  18
ATOM     18  O4  BEU d           6.280 -10.308   0.743  0.00  0.00    -0.388 OA
ATOM     19  H17 BEU d           7.115  -9.987   0.423  0.00  0.00     0.210 HD
ENDBRANCH   6  18
BRANCH   1  20
ATOM     20  C'  BEU d           3.856 -11.601   1.632  0.00  0.00     0.201 C 
BRANCH  20  21
ATOM     21  O1' BEU d           3.678 -12.489   0.536  0.00  0.00    -0.397 OA
ATOM     22  H3  BEU d           2.833 -12.327   0.133  0.00  0.00     0.209 HD
ENDBRANCH  20  21
ENDBRANCH   1  20
TORSDOF 6
