REMARK  6 active torsions:
REMARK  status: ('A' for Active; 'I' for Inactive)
REMARK    1  A    between atoms: C1_1  and  O34_21 
REMARK    2  A    between atoms: C6_6  and  O33_20 
REMARK    3  A    between atoms: O11_11  and  C10_10 
REMARK    4  A    between atoms: C12_12  and  O11_11 
REMARK    5  A    between atoms: N28_19  and  C15_14 
REMARK       I    between atoms: C35_22  and  N28_19 
REMARK       I    between atoms: N37_24  and  C35_22 
REMARK    6  A    between atoms: C38_25  and  N37_24 
ROOT
ATOM      1  C12 AV9 d         -22.729  -0.567 -13.281  0.00  0.00     0.077 A 
ATOM      2  C13 AV9 d         -24.017  -0.644 -13.930  0.00  0.00     0.063 A 
ATOM      3  C15 AV9 d         -24.919  -1.703 -11.899  0.00  0.00     0.058 A 
ATOM      4  C16 AV9 d         -23.620  -1.613 -11.292  0.00  0.00     0.034 A 
ATOM      5  C17 AV9 d         -22.535  -1.049 -11.975  0.00  0.00     0.039 A 
ATOM      6  C11 AV9 d         -25.112  -1.214 -13.228  0.00  0.00     0.063 A 
ATOM      7 CL4  AV9 d         -26.660  -1.299 -14.003  0.00  0.00    -0.082 Cl
ENDROOT
BRANCH   1   8
ATOM      8  O11 AV9 d         -21.643  -0.017 -13.910  0.00  0.00    -0.310 OA
BRANCH   8   9
ATOM      9  C10 AV9 d         -21.493   1.384 -14.043  0.00  0.00     0.090 A 
ATOM     10  C4  AV9 d         -20.190   1.809 -14.475  0.00  0.00     0.029 A 
ATOM     11  C3  AV9 d         -19.979   3.235 -14.638  0.00  0.00     0.072 A 
ATOM     12  C5  AV9 d         -19.114   0.904 -14.744  0.00  0.00     0.056 A 
ATOM     13  C2  AV9 d         -18.714   3.685 -15.063  0.00  0.00     0.072 A 
ATOM     14  N7  AV9 d         -20.964   4.145 -14.390  0.00  0.00    -0.260 NA
ATOM     15  C1  AV9 d         -17.630   2.779 -15.334  0.00  0.00     0.103 A 
ATOM     16  C6  AV9 d         -17.832   1.368 -15.169  0.00  0.00     0.102 A 
ATOM     17  C8  AV9 d         -22.189   3.707 -13.977  0.00  0.00     0.120 A 
ATOM     18  C9  AV9 d         -22.509   2.363 -13.789  0.00  0.00     0.057 A 
BRANCH  15  19
ATOM     19  O34 AV9 d         -16.362   3.156 -15.751  0.00  0.00    -0.353 OA
ATOM     20  C53 AV9 d         -16.074   4.553 -15.939  0.00  0.00     0.210 C 
ENDBRANCH  15  19
BRANCH  16  21
ATOM     21  O33 AV9 d         -16.735   0.553 -15.441  0.00  0.00    -0.353 OA
ATOM     22  C49 AV9 d         -16.861  -0.868 -15.291  0.00  0.00     0.210 C 
ENDBRANCH  16  21
ENDBRANCH   8   9
ENDBRANCH   1   8
BRANCH   3  23
ATOM     23  N28 AV9 d         -26.006  -2.272 -11.188  0.00  0.00    -0.307 N 
ATOM     24  C35 AV9 d         -26.277  -1.953  -9.848  0.00  0.00     0.326 C 
ATOM     25  O36 AV9 d         -25.607  -1.162  -9.185  0.00  0.00    -0.247 OA
ATOM     26  N37 AV9 d         -27.393  -2.663  -9.384  0.00  0.00    -0.291 N 
ATOM     27  H9  AV9 d         -27.848  -3.281 -10.025  0.00  0.00     0.172 HD
ATOM     28  H8  AV9 d         -26.601  -2.924 -11.658  0.00  0.00     0.170 HD
BRANCH  26  29
ATOM     29  C38 AV9 d         -27.919  -2.571  -8.088  0.00  0.00     0.161 A 
ATOM     30  C43 AV9 d         -27.470  -1.767  -6.995  0.00  0.00     0.087 A 
ATOM     31  C30 AV9 d         -28.317  -2.051  -5.975  0.00  0.00     0.078 A 
ATOM     32  O25 AV9 d         -29.229  -2.965  -6.398  0.00  0.00    -0.216 OA
ATOM     33  C40 AV9 d         -28.419  -1.580  -4.583  0.00  0.00     0.079 C 
ATOM     34  N21 AV9 d         -28.985  -3.295  -7.725  0.00  0.00    -0.110 NA
ENDBRANCH  26  29
ENDBRANCH   3  23
TORSDOF 6
