REMARK  8 active torsions:
REMARK  status: ('A' for Active; 'I' for Inactive)
REMARK    1  A    between atoms: CAF_2  and  CAG_4 
REMARK    2  A    between atoms: CAG_4  and  CAH_5 
REMARK    3  A    between atoms: CAH_5  and  OAB_6 
REMARK    4  A    between atoms: CAH_5  and  CAI_7 
REMARK    5  A    between atoms: CAJ_9  and  OAC_10 
REMARK    6  A    between atoms: CAQ_13  and  OAR_14 
REMARK    7  A    between atoms: CAP_15  and  CAT_16 
REMARK    8  A    between atoms: CAS_17  and  CAN_18 
ROOT
ATOM      1  CAI TE1 d          -6.338   6.772  10.538  0.00  0.00     0.004 A 
ATOM      2  CAO TE1 d          -6.135   7.485   9.379  0.00  0.00     0.022 A 
ATOM      3  CAJ TE1 d          -6.634   7.468  11.707  0.00  0.00     0.079 A 
ATOM      4  CAK TE1 d          -6.706   8.820  11.642  0.00  0.00     0.074 A 
ATOM      5  CAQ TE1 d          -6.482   9.483  10.467  0.00  0.00     0.074 A 
ATOM      6  CAP TE1 d          -6.186   8.852   9.320  0.00  0.00    -0.024 A 
ENDROOT
BRANCH   1   7
ATOM      7  CAH TE1 d          -6.214   5.255  10.398  0.00  0.00     0.154 C 
BRANCH   7   8
ATOM      8  CAG TE1 d          -5.070   4.454  11.196  0.00  0.00     0.040 C 
BRANCH   8   9
ATOM      9  CAF TE1 d          -4.143   3.480  10.394  0.00  0.00    -0.020 C 
ATOM     10  CAA TE1 d          -2.655   3.503  10.914  0.00  0.00     0.009 C 
ATOM     11  CAE TE1 d          -4.642   2.021  10.428  0.00  0.00     0.009 C 
ENDBRANCH   8   9
ENDBRANCH   7   8
BRANCH   7  12
ATOM     12  OAB TE1 d          -5.978   5.210   9.084  0.00  0.00    -0.391 OA
ATOM     13  H11 TE1 d          -5.135   5.607   8.901  0.00  0.00     0.210 HD
ENDBRANCH   7  12
ENDBRANCH   1   7
BRANCH   3  14
ATOM     14  OAC TE1 d          -6.802   6.820  12.868  0.00  0.00    -0.355 OA
ATOM     15  CAD TE1 d          -7.536   7.398  13.805  0.00  0.00     0.210 C 
ENDBRANCH   3  14
BRANCH   6  16
ATOM     16  CAT TE1 d          -6.006   9.586   8.124  0.00  0.00     0.052 C 
ATOM     17  CAS TE1 d          -5.502   9.152   6.855  0.00  0.00     0.118 C 
BRANCH  17  18
ATOM     18  CAN TE1 d          -5.261   7.910   6.209  0.00  0.00     0.172 C 
ATOM     19  OAL TE1 d          -5.141   6.811   6.752  0.00  0.00    -0.648 OA
ATOM     20  OAM TE1 d          -4.977   7.951   5.048  0.00  0.00    -0.648 OA
ENDBRANCH  17  18
ENDBRANCH   6  16
BRANCH   5  21
ATOM     21  OAR TE1 d          -6.519  10.806  10.409  0.00  0.00    -0.360 OA
ATOM     22  H17 TE1 d          -6.341  11.088   9.519  0.00  0.00     0.217 HD
ENDBRANCH   5  21
TORSDOF 8
