REMARK  12 active torsions:
REMARK  status: ('A' for Active; 'I' for Inactive)
REMARK    1  A    between atoms: C24_2  and  C23_4 
REMARK    2  A    between atoms: C23_4  and  C25_5 
REMARK    3  A    between atoms: C23_4  and  N2_15 
REMARK    4  A    between atoms: C25_5  and  C26_6 
REMARK       I    between atoms: N2_15  and  C19_16 
REMARK    5  A    between atoms: C19_16  and  C18_18 
REMARK    6  A    between atoms: C17_22  and  P1_23 
REMARK    7  A    between atoms: P1_23  and  C9_26 
REMARK    8  A    between atoms: C9_26  and  C10_27 
REMARK    9  A    between atoms: C10_27  and  C11_28 
REMARK       I    between atoms: N1_34  and  C1_35 
REMARK   10  A    between atoms: C1_35  and  O1_37 
REMARK   11  A    between atoms: O1_37  and  C2_38 
REMARK   12  A    between atoms: C2_38  and  C3_39 
ROOT
ATOM      1  C18 RX3 d          42.557  34.671  45.465  0.00  0.00     0.092 C 
ATOM      2  C20 RX3 d          43.323  33.378  45.202  0.00  0.00     0.015 C 
ATOM      3  C21 RX3 d          43.246  32.527  46.471  0.00  0.00     0.002 C 
ATOM      4  C22 RX3 d          42.601  33.353  47.587  0.00  0.00     0.016 C 
ATOM      5  C17 RX3 d          42.455  34.711  46.962  0.00  0.00     0.092 C 
ENDROOT
BRANCH   5   6
ATOM      6  P1  RX3 d          42.353  36.188  47.836  0.00  0.00     0.135 P 
ATOM      7  O3  RX3 d          42.002  37.280  46.842  0.00  0.00    -0.666 OA
ATOM      8  O4  RX3 d          43.722  36.349  48.429  0.00  0.00    -0.666 OA
BRANCH   6   9
ATOM      9  C9  RX3 d          41.144  36.380  49.067  0.00  0.00     0.183 C 
ATOM     10  N1  RX3 d          41.276  37.444  49.865  0.00  0.00    -0.322 N 
ATOM     11  C1  RX3 d          42.182  37.673  50.817  0.00  0.00     0.361 C 
ATOM     12  H27 RX3 d          40.602  38.170  49.730  0.00  0.00     0.165 HD
ATOM     13  O2  RX3 d          43.056  36.897  51.157  0.00  0.00    -0.238 OA
BRANCH   9  14
ATOM     14  C10 RX3 d          39.885  35.528  49.181  0.00  0.00     0.074 C 
BRANCH  14  15
ATOM     15  C11 RX3 d          38.957  35.869  50.343  0.00  0.00    -0.056 A 
ATOM     16  C13 RX3 d          38.677  34.897  51.311  0.00  0.00     0.007 A 
ATOM     17  C15 RX3 d          37.831  35.182  52.391  0.00  0.00     0.001 A 
ATOM     18  C16 RX3 d          37.248  36.449  52.512  0.00  0.00     0.000 A 
ATOM     19  C14 RX3 d          37.520  37.427  51.551  0.00  0.00     0.001 A 
ATOM     20  C12 RX3 d          38.361  37.132  50.472  0.00  0.00     0.007 A 
ENDBRANCH  14  15
ENDBRANCH   9  14
BRANCH  11  21
ATOM     21  O1  RX3 d          42.113  38.941  51.509  0.00  0.00    -0.299 OA
BRANCH  21  22
ATOM     22  C2  RX3 d          43.288  39.680  51.835  0.00  0.00     0.219 C 
BRANCH  22  23
ATOM     23  C3  RX3 d          42.922  41.112  52.177  0.00  0.00    -0.034 A 
ATOM     24  C4  RX3 d          42.859  42.081  51.176  0.00  0.00     0.009 A 
ATOM     25  C6  RX3 d          42.527  43.398  51.504  0.00  0.00     0.001 A 
ATOM     26  C8  RX3 d          42.251  43.754  52.830  0.00  0.00     0.000 A 
ATOM     27  C7  RX3 d          42.313  42.788  53.830  0.00  0.00     0.001 A 
ATOM     28  C5  RX3 d          42.646  41.470  53.503  0.00  0.00     0.009 A 
ENDBRANCH  22  23
ENDBRANCH  21  22
ENDBRANCH  11  21
ENDBRANCH   6   9
ENDBRANCH   5   6
BRANCH   1  29
ATOM     29  C19 RX3 d          41.240  34.676  44.729  0.00  0.00     0.223 C 
ATOM     30  N2  RX3 d          41.374  34.765  43.405  0.00  0.00    -0.346 N 
ATOM     31  H10 RX3 d          42.298  34.838  43.031  0.00  0.00     0.163 HD
ATOM     32  O5  RX3 d          40.157  34.602  45.317  0.00  0.00    -0.273 OA
BRANCH  30  33
ATOM     33  C23 RX3 d          40.256  34.763  42.470  0.00  0.00     0.189 C 
BRANCH  33  34
ATOM     34  C24 RX3 d          39.555  33.421  42.390  0.00  0.00     0.197 C 
ATOM     35  OXT RX3 d          40.074  32.424  42.935  0.00  0.00    -0.646 OA
ATOM     36  O6  RX3 d          38.463  33.336  41.784  0.00  0.00    -0.646 OA
ENDBRANCH  33  34
BRANCH  33  37
ATOM     37  C25 RX3 d          40.831  35.196  41.111  0.00  0.00     0.077 C 
BRANCH  37  38
ATOM     38  C26 RX3 d          41.969  34.346  40.583  0.00  0.00    -0.028 A 
ATOM     39  C28 RX3 d          43.330  34.510  40.824  0.00  0.00    -0.002 A 
ATOM     40  C30 RX3 d          44.011  35.451  41.605  0.00  0.00     0.014 A 
ATOM     41  C29 RX3 d          44.018  33.514  40.124  0.00  0.00     0.042 A 
ATOM     42  C32 RX3 d          45.405  35.383  41.683  0.00  0.00     0.001 A 
ATOM     43  C33 RX3 d          46.108  34.393  40.993  0.00  0.00     0.002 A 
ATOM     44  C31 RX3 d          45.422  33.454  40.213  0.00  0.00     0.030 A 
ATOM     45  N3  RX3 d          43.097  32.765  39.465  0.00  0.00    -0.365 N 
ATOM     46  C27 RX3 d          41.857  33.256  39.727  0.00  0.00     0.096 A 
ATOM     47  H8  RX3 d          43.305  31.955  38.863  0.00  0.00     0.165 HD
ENDBRANCH  37  38
ENDBRANCH  33  37
ENDBRANCH  30  33
ENDBRANCH   1  29
TORSDOF 12
