REMARK  7 active torsions:
REMARK  status: ('A' for Active; 'I' for Inactive)
REMARK    1  A    between atoms: C1_1  and  C7_7 
REMARK    2  A    between atoms: C7_7  and  N1_8 
REMARK    3  A    between atoms: C7_7  and  N2_9 
REMARK    4  A    between atoms: C9_24  and  C8_12 
REMARK    5  A    between atoms: C1'_13  and  C7'_19 
REMARK    6  A    between atoms: C7'_19  and  N1'_20 
REMARK    7  A    between atoms: C9_24  and  C8'_23 
ROOT
ATOM      1  C9  BAB d          41.683  -1.713  32.009  0.00  0.00     0.157 C 
ENDROOT
BRANCH   1   2
ATOM      2  C8  BAB d          42.282  -1.939  30.524  0.00  0.00     0.112 A 
ATOM      3  N3  BAB d          43.025  -1.063  29.925  0.00  0.00    -0.233 NA
ATOM      4  C4  BAB d          43.359  -1.486  28.751  0.00  0.00     0.085 A 
ATOM      5  C3  BAB d          44.133  -0.857  27.813  0.00  0.00     0.035 A 
ATOM      6  C5  BAB d          42.804  -2.687  28.592  0.00  0.00     0.063 A 
ATOM      7  C2  BAB d          44.331  -1.561  26.612  0.00  0.00     0.017 A 
ATOM      8  C1  BAB d          43.757  -2.858  26.391  0.00  0.00     0.009 A 
ATOM      9  C6  BAB d          42.968  -3.419  27.435  0.00  0.00     0.047 A 
ATOM     10  N4  BAB d          42.141  -2.956  29.696  0.00  0.00    -0.342 N 
ATOM     11  H8  BAB d          41.603  -3.815  29.882  0.00  0.00     0.167 HD
BRANCH   8  12
ATOM     12  C7  BAB d          43.963  -3.539  25.189  0.00  0.00     0.102 C 
BRANCH  12  13
ATOM     13  N1  BAB d          43.714  -4.823  25.128  0.00  0.00    -0.385 N 
ATOM     14  H4  BAB d          43.862  -5.335  24.247  0.00  0.00     0.157 HD
ATOM     15  H5  BAB d          43.370  -5.321  25.961  0.00  0.00     0.157 HD
ENDBRANCH  12  13
BRANCH  12  16
ATOM     16  N2  BAB d          44.390  -2.879  24.136  0.00  0.00    -0.385 N 
ATOM     17  H6  BAB d          44.581  -1.869  24.204  0.00  0.00     0.157 HD
ATOM     18  H7  BAB d          44.534  -3.372  23.243  0.00  0.00     0.157 HD
ENDBRANCH  12  16
ENDBRANCH   8  12
ENDBRANCH   1   2
BRANCH   1  19
ATOM     19  C8' BAB d          42.628  -1.108  33.134  0.00  0.00     0.112 A 
ATOM     20  N3' BAB d          43.417  -0.102  32.910  0.00  0.00    -0.233 NA
ATOM     21  C4' BAB d          44.059   0.171  33.999  0.00  0.00     0.085 A 
ATOM     22  C3' BAB d          44.999   1.155  34.202  0.00  0.00     0.035 A 
ATOM     23  C5' BAB d          43.658  -0.698  34.950  0.00  0.00     0.063 A 
ATOM     24  C2' BAB d          45.552   1.228  35.488  0.00  0.00     0.017 A 
ATOM     25  C1' BAB d          45.171   0.335  36.542  0.00  0.00     0.009 A 
ATOM     26  C6' BAB d          44.183  -0.659  36.242  0.00  0.00     0.047 A 
ATOM     27  N4' BAB d          42.763  -1.490  34.390  0.00  0.00    -0.342 N 
ATOM     28  H14 BAB d          42.262  -2.264  34.849  0.00  0.00     0.167 HD
BRANCH  25  29
ATOM     29  C7' BAB d          45.778   0.450  37.810  0.00  0.00     0.102 C 
ATOM     30  N2' BAB d          46.980   0.982  37.857  0.00  0.00    -0.385 N 
ATOM     31  H17 BAB d          47.435   1.304  36.991  0.00  0.00     0.157 HD
ATOM     32  H18 BAB d          47.467   1.076  38.760  0.00  0.00     0.157 HD
BRANCH  29  33
ATOM     33  N1' BAB d          45.176   0.031  38.902  0.00  0.00    -0.385 N 
ATOM     34  H12 BAB d          45.642   0.127  39.816  0.00  0.00     0.157 HD
ATOM     35  H13 BAB d          44.239  -0.393  38.843  0.00  0.00     0.157 HD
ENDBRANCH  29  33
ENDBRANCH  25  29
ENDBRANCH   1  19
TORSDOF 7
