REMARK  2 active torsions:
REMARK  status: ('A' for Active; 'I' for Inactive)
REMARK    1  A    between atoms: CA3_6  and  S1_3 
REMARK    2  A    between atoms: CC5_20  and  CB4_13 
ROOT
ATOM      1  CA1 SB2 d          -2.457   5.380  22.995  0.00  0.00     0.017 A 
ATOM      2  CA2 SB2 d          -2.038   6.673  23.485  0.00  0.00     0.022 A 
ATOM      3  CA3 SB2 d          -2.204   7.844  22.625  0.00  0.00     0.031 A 
ATOM      4  CA4 SB2 d          -2.788   7.750  21.282  0.00  0.00     0.022 A 
ATOM      5  CA5 SB2 d          -3.206   6.446  20.802  0.00  0.00     0.017 A 
ATOM      6  CA6 SB2 d          -3.053   5.214  21.642  0.00  0.00     0.010 A 
ATOM      7  NC1 SB2 d          -3.278   2.793  21.987  0.00  0.00    -0.227 NA
ATOM      8  CC2 SB2 d          -3.449   3.912  21.177  0.00  0.00     0.139 A 
ATOM      9  NC3 SB2 d          -4.012   3.694  19.922  0.00  0.00    -0.338 N 
ATOM     10  CC4 SB2 d          -4.227   2.295  19.907  0.00  0.00     0.074 A 
ATOM     11  CC5 SB2 d          -3.757   1.724  21.220  0.00  0.00     0.097 A 
ATOM     12  CD1 SB2 d          -4.123   1.792  17.469  0.00  0.00     0.017 A 
ATOM     13  CD2 SB2 d          -4.641   1.172  16.276  0.00  0.00     0.043 A 
ATOM     14  CD3 SB2 d          -5.855   0.382  16.330  0.00  0.00     0.116 A 
ATOM     15  CD4 SB2 d          -6.579   0.200  17.601  0.00  0.00     0.043 A 
ATOM     16  CD5 SB2 d          -6.061   0.824  18.811  0.00  0.00     0.017 A 
ATOM     17  CD6 SB2 d          -4.805   1.642  18.762  0.00  0.00    -0.007 A 
ATOM     18  FD3 SB2 d          -6.298  -0.180  15.172  0.00  0.00    -0.206 F 
ATOM     19  H12 SB2 d          -4.221   4.383  19.185  0.00  0.00     0.167 HD
ENDROOT
BRANCH  11  20
ATOM     20  CB4 SB2 d          -3.721   0.353  21.769  0.00  0.00    -0.002 A 
ATOM     21  CB3 SB2 d          -4.170   0.044  23.163  0.00  0.00     0.033 A 
ATOM     22  CB2 SB2 d          -4.095  -1.345  23.627  0.00  0.00     0.117 A 
ATOM     23  NB1 SB2 d          -3.612  -2.339  22.772  0.00  0.00    -0.273 NA
ATOM     24  CB6 SB2 d          -3.179  -2.119  21.467  0.00  0.00     0.117 A 
ATOM     25  CB5 SB2 d          -3.211  -0.784  20.912  0.00  0.00     0.033 A 
ENDBRANCH  11  20
BRANCH   3  26
ATOM     26  S1  SB2 d          -1.673   9.411  23.244  0.00  0.00     0.045 S 
ATOM     27  O2  SB2 d          -0.330   9.260  24.128  0.00  0.00    -0.253 OA
ATOM     28  C1  SB2 d          -1.423  10.541  21.821  0.00  0.00     0.133 C 
ENDBRANCH   3  26
TORSDOF 2
