3w5n_ligand

Created by X-TOOL on Fri Sep 26 17:34:58 2014
 23 23  0  0  0  0  0  0  0  0999 V2000
   25.4300    2.7100   28.9030  C 0  0  0  2  0  4
   25.1360    3.9610   28.0560  C 0  0  0  2  0  4
   25.2620    5.2630   28.8810  C 0  0  0  2  0  4
   24.9700    5.1290   30.3860  C 0  0  0  2  0  4
   24.1040    3.9190   30.5960  C 0  0  0  2  0  4
   23.7670    3.8290   32.0890  C 0  0  0  4  0  4
   24.8900    1.5310   28.2960  O 0  0  0  2  0  2
   25.9900    3.9280   26.8820  O 0  0  0  2  0  2
   26.5950    5.7530   28.8540  O 0  0  0  2  0  2
   24.2930    6.2800   30.9380  O 0  0  0  2  0  2
   24.8520    2.7710   30.2000  O 0  0  0  1  0  2
   26.5213    2.6092   28.9969  H 0  0  0  1  0  1
   24.0932    3.9003   27.7113  H 0  0  0  1  0  1
   24.5762    6.0038   28.4440  H 0  0  0  1  0  1
   25.9236    4.9952   30.9177  H 0  0  0  1  0  1
   23.1813    3.9956   30.0020  H 0  0  0  1  0  1
   23.1321    2.9490   32.2691  H 0  0  0  1  0  1
   23.2305    4.7378   32.3993  H 0  0  0  1  0  1
   24.6965    3.7356   32.6697  H 0  0  0  1  0  1
   23.9439    1.6043   28.2509  H 0  0  0  1  0  1
   26.8981    4.0066   27.1500  H 0  0  0  1  0  1
   26.8700    5.8700   27.9522  H 0  0  0  1  0  1
   24.8306    7.0529   30.8117  H 0  0  0  1  0  1
  1  2  1  0  0  1
  1  7  1  0  0  2
  1 11  1  0  0  1
  2  3  1  0  0  1
  2  8  1  0  0  2
  3  4  1  0  0  1
  3  9  1  0  0  2
  4  5  1  0  0  1
  4 10  1  0  0  2
  5  6  1  0  0  2
  5 11  1  0  0  1
  1 12  1  0  0  2
  2 13  1  0  0  2
  3 14  1  0  0  2
  4 15  1  0  0  2
  5 16  1  0  0  2
  6 17  1  0  0  2
  6 18  1  0  0  2
  6 19  1  0  0  2
  7 20  1  0  0  2
  8 21  1  0  0  2
  9 22  1  0  0  2
 10 23  1  0  0  2
M  END
> <MOLECULAR_FORMULA>
C6H12O5

> <MOLECULAR_WEIGHT>
164.1

> <NUM_HB_ATOMS>
5  

> <NUM_ROTOR>
0  

> <XLOGP2>
-1.61

$$$$
