REMARK  4 active torsions:
REMARK  status: ('A' for Active; 'I' for Inactive)
REMARK    1  A    between atoms: C1_1  and  O1_7 
REMARK    2  A    between atoms: C2_2  and  O2_8 
REMARK    3  A    between atoms: C3_3  and  O3_9 
REMARK    4  A    between atoms: C4_4  and  O4_10 
ROOT
ATOM      1  C1  RAM d          25.430   2.710  28.903  0.00  0.00     0.288 C 
ATOM      2  C2  RAM d          25.136   3.961  28.056  0.00  0.00     0.204 C 
ATOM      3  C3  RAM d          25.262   5.263  28.881  0.00  0.00     0.182 C 
ATOM      4  C4  RAM d          24.970   5.129  30.386  0.00  0.00     0.178 C 
ATOM      5  C5  RAM d          24.104   3.919  30.596  0.00  0.00     0.152 C 
ATOM      6  C6  RAM d          23.767   3.829  32.089  0.00  0.00     0.042 C 
ATOM      7  O5  RAM d          24.852   2.771  30.200  0.00  0.00    -0.351 OA
ENDROOT
BRANCH   1   8
ATOM      8  O1  RAM d          24.890   1.531  28.296  0.00  0.00    -0.369 OA
ATOM      9  H9  RAM d          23.944   1.604  28.251  0.00  0.00     0.212 HD
ENDBRANCH   1   8
BRANCH   2  10
ATOM     10  O2  RAM d          25.990   3.928  26.882  0.00  0.00    -0.388 OA
ATOM     11  H10 RAM d          26.898   4.007  27.150  0.00  0.00     0.210 HD
ENDBRANCH   2  10
BRANCH   3  12
ATOM     12  O3  RAM d          26.595   5.753  28.854  0.00  0.00    -0.390 OA
ATOM     13  H11 RAM d          26.870   5.870  27.952  0.00  0.00     0.210 HD
ENDBRANCH   3  12
BRANCH   4  14
ATOM     14  O4  RAM d          24.293   6.280  30.938  0.00  0.00    -0.390 OA
ATOM     15  H12 RAM d          24.831   7.053  30.812  0.00  0.00     0.210 HD
ENDBRANCH   4  14
TORSDOF 4
