REMARK  9 active torsions:
REMARK  status: ('A' for Active; 'I' for Inactive)
REMARK    1  A    between atoms: C01_1  and  C17_20 
REMARK    2  A    between atoms: C2_6  and  C1_2 
REMARK    3  A    between atoms: N1_3  and  C2_6 
REMARK    4  A    between atoms: C7_11  and  O1_4 
REMARK    5  A    between atoms: C10_13  and  N2_7 
REMARK    6  A    between atoms: N2_7  and  C11_14 
REMARK    7  A    between atoms: N2_7  and  C13_16 
REMARK    8  A    between atoms: C18_21  and  C19_22 
REMARK    9  A    between atoms: C19_22  and  O2_23 
ROOT
ATOM      1  C01 NXG d          91.434  93.534 -45.257  0.00  0.00     0.019 A 
ATOM      2  C1  NXG d          90.766  95.831 -44.854  0.00  0.00     0.003 A 
ATOM      3  C02 NXG d          91.808  93.405 -43.909  0.00  0.00     0.041 A 
ATOM      4  C3  NXG d          90.908  94.752 -45.728  0.00  0.00     0.032 A 
ATOM      5  C4  NXG d          91.650  94.514 -43.055  0.00  0.00     0.041 A 
ATOM      6  C7  NXG d          91.129  95.740 -43.487  0.00  0.00     0.090 A 
ATOM      7  I2  NXG d          92.175  94.325 -41.000  0.00  0.00    -0.042 I 
ENDROOT
BRANCH   2   8
ATOM      8  C2  NXG d          90.170  97.108 -45.381  0.00  0.00     0.276 C 
BRANCH   8   9
ATOM      9  N1  NXG d          90.702  98.290 -44.661  0.00  0.00    -0.067 N 
ATOM     10  C03 NXG d          89.710  99.424 -44.719  0.00  0.00     0.237 C 
ATOM     11  C8  NXG d          90.263 100.625 -43.972  0.00  0.00     0.061 C 
ATOM     12  C10 NXG d          91.523 101.019 -44.737  0.00  0.00     0.191 C 
ATOM     13  C15 NXG d          92.592  99.927 -44.560  0.00  0.00     0.061 C 
ATOM     14  C16 NXG d          92.045  98.662 -45.212  0.00  0.00     0.237 C 
ATOM     15  H1  NXG d          90.826  98.041 -43.692  0.00  0.00     0.280 HD
BRANCH  12  16
ATOM     16  N2  NXG d          92.085 102.403 -44.339  0.00  0.00    -0.067 N 
ATOM     17  H6  NXG d          92.514 102.770 -45.174  0.00  0.00     0.280 HD
BRANCH  16  18
ATOM     18  C11 NXG d          93.181 102.422 -43.280  0.00  0.00     0.231 C 
ATOM     19  C12 NXG d          94.145 103.581 -43.482  0.00  0.00     0.034 C 
ENDBRANCH  16  18
BRANCH  16  20
ATOM     20  C13 NXG d          90.937 103.367 -43.974  0.00  0.00     0.231 C 
ATOM     21  C14 NXG d          90.968 103.676 -42.487  0.00  0.00     0.034 C 
ENDBRANCH  16  20
ENDBRANCH  12  16
ENDBRANCH   8   9
ENDBRANCH   2   8
BRANCH   6  22
ATOM     22  O1  NXG d          90.990  96.824 -42.671  0.00  0.00    -0.359 OA
ATOM     23  H2  NXG d          91.276  96.597 -41.794  0.00  0.00     0.217 HD
ENDBRANCH   6  22
BRANCH   1  24
ATOM     24  C17 NXG d          91.574  92.464 -46.194  0.00  0.00    -0.065 C 
ATOM     25  C18 NXG d          91.702  91.568 -46.981  0.00  0.00    -0.075 C 
BRANCH  25  26
ATOM     26  C19 NXG d          91.860  90.473 -47.939  0.00  0.00     0.258 C 
BRANCH  26  27
ATOM     27  O2  NXG d          91.917  90.984 -49.266  0.00  0.00    -0.389 OA
ATOM     28  H29 NXG d          92.019  90.264 -49.877  0.00  0.00     0.210 HD
ENDBRANCH  26  27
ENDBRANCH  25  26
ENDBRANCH   1  24
TORSDOF 9
