REMARK  4 active torsions:
REMARK  status: ('A' for Active; 'I' for Inactive)
REMARK       I    between atoms: C18_21  and  N1_1 
REMARK    1  A    between atoms: C4_2  and  C5_3 
REMARK    2  A    between atoms: C15_9  and  O2_20 
REMARK    3  A    between atoms: C17_10  and  O1_19 
REMARK    4  A    between atoms: C12_16  and  C18_21 
ROOT
ATOM      1  N1  MOL d          67.465  78.967  22.812  0.00  0.00    -0.339 N 
ATOM      2  C4  MOL d          67.982  79.893  23.865  0.00  0.00     0.121 C 
ATOM      3  C1  MOL d          67.823  81.283  23.221  0.00  0.00     0.032 C 
ATOM      4  C2  MOL d          67.944  81.046  21.717  0.00  0.00     0.022 C 
ATOM      5  C3  MOL d          67.377  79.648  21.512  0.00  0.00     0.127 C 
ATOM      6  C18 MOL d          67.005  77.631  22.925  0.00  0.00     0.257 C 
ATOM      7  O3  MOL d          66.521  77.000  21.984  0.00  0.00    -0.267 OA
ENDROOT
BRANCH   6   8
ATOM      8  C12 MOL d          67.068  76.908  24.240  0.00  0.00     0.067 A 
ATOM      9  C13 MOL d          68.324  76.447  24.747  0.00  0.00     0.046 A 
ATOM     10  C14 MOL d          68.388  75.771  25.998  0.00  0.00     0.068 A 
ATOM     11  C15 MOL d          67.197  75.553  26.745  0.00  0.00     0.090 A 
ATOM     12 CL1  MOL d          69.924  75.235  26.569  0.00  0.00    -0.081 Cl
ATOM     13  C16 MOL d          65.947  76.001  26.244  0.00  0.00     0.075 A 
ATOM     14  C17 MOL d          65.886  76.674  24.994  0.00  0.00     0.084 A 
BRANCH  11  15
ATOM     15  O2  MOL d          67.248  74.913  27.951  0.00  0.00    -0.359 OA
ATOM     16  H18 MOL d          68.148  74.678  28.146  0.00  0.00     0.217 HD
ENDBRANCH  11  15
BRANCH  14  17
ATOM     17  O1  MOL d          64.661  77.072  24.579  0.00  0.00    -0.360 OA
ATOM     18  H17 MOL d          64.739  77.507  23.738  0.00  0.00     0.217 HD
ENDBRANCH  14  17
ENDBRANCH   6   8
BRANCH   2  19
ATOM     19  C5  MOL d          69.461  79.654  24.300  0.00  0.00    -0.029 A 
ATOM     20  C6  MOL d          70.420  79.041  23.404  0.00  0.00     0.010 A 
ATOM     21  C7  MOL d          71.762  78.818  23.799  0.00  0.00     0.001 A 
ATOM     22  C8  MOL d          72.193  79.195  25.089  0.00  0.00     0.001 A 
ATOM     23  C9  MOL d          71.285  79.796  25.992  0.00  0.00     0.007 A 
ATOM     24  C10 MOL d          69.923  80.035  25.624  0.00  0.00    -0.054 A 
ATOM     25  C11 MOL d          69.028  80.681  26.657  0.00  0.00     0.049 C 
ENDBRANCH   2  19
TORSDOF 4
