REMARK  1 active torsions:
REMARK  status: ('A' for Active; 'I' for Inactive)
REMARK    1  A    between atoms: C29_28  and  N30_29 
ROOT
ATOM      1  C1  VHC d          10.551  -3.084  15.317  0.00  0.00     0.049 C 
ATOM      2  C2  VHC d          10.354  -1.624  14.867  0.00  0.00    -0.046 A 
ATOM      3  C3  VHC d           9.456  -1.400  13.825  0.00  0.00     0.015 A 
ATOM      4  C4  VHC d           9.231  -0.103  13.332  0.00  0.00    -0.049 A 
ATOM      5  C5  VHC d           8.235   0.067  12.179  0.00  0.00     0.049 C 
ATOM      6  C6  VHC d           9.951   0.978  13.867  0.00  0.00     0.000 A 
ATOM      7  C7  VHC d          10.867   0.744  14.910  0.00  0.00     0.032 A 
ATOM      8  C8  VHC d          11.066  -0.552  15.439  0.00  0.00     0.038 A 
ATOM      9  C9  VHC d          12.014  -0.708  16.632  0.00  0.00     0.252 C 
ATOM     10  O10 VHC d          11.703  -1.430  17.596  0.00  0.00    -0.268 OA
ATOM     11  N11 VHC d          13.077   0.087  16.608  0.00  0.00    -0.357 N 
ATOM     12  C13 VHC d          14.107   0.096  17.673  0.00  0.00     0.125 C 
ATOM     13  C14 VHC d          14.659   1.501  17.962  0.00  0.00     0.046 C 
ATOM     14  C15 VHC d          15.481   2.047  16.782  0.00  0.00     0.177 C 
ATOM     15  O16 VHC d          14.428   2.516  15.924  0.00  0.00    -0.351 OA
ATOM     16  C17 VHC d          14.691   3.136  14.745  0.00  0.00     0.070 A 
ATOM     17  C18 VHC d          13.601   3.791  14.178  0.00  0.00     0.055 A 
ATOM     18  C19 VHC d          15.911   3.088  14.045  0.00  0.00     0.037 A 
ATOM     19  C20 VHC d          15.995   3.709  12.801  0.00  0.00     0.004 A 
ATOM     20  C21 VHC d          14.920   4.406  12.257  0.00  0.00     0.019 A 
ATOM     21  C22 VHC d          13.698   4.396  12.933  0.00  0.00     0.009 A 
ATOM     22  S23 VHC d          12.332   5.291  12.221  0.00  0.00    -0.070 SA
ATOM     23  C24 VHC d          10.941   4.311  12.662  0.00  0.00     0.119 A 
ATOM     24  N25 VHC d           9.771   4.951  12.644  0.00  0.00    -0.056 NA
ATOM     25  C26 VHC d          11.026   2.948  12.978  0.00  0.00     0.073 A 
ATOM     26  C27 VHC d           9.865   2.307  13.405  0.00  0.00     0.089 A 
ATOM     27  N28 VHC d           8.701   2.990  13.412  0.00  0.00    -0.062 NA
ATOM     28  C29 VHC d           8.639   4.289  13.015  0.00  0.00     0.721 A 
ATOM     29  H9  VHC d          13.188   0.710  15.834  0.00  0.00     0.162 HD
ENDROOT
BRANCH  28  30
ATOM     30  N30 VHC d           7.443   4.895  12.967  0.00  0.00    -0.231 N 
ATOM     31  H21 VHC d           7.376   5.879  12.669  0.00  0.00     0.174 HD
ATOM     32  H22 VHC d           6.592   4.377  13.228  0.00  0.00     0.174 HD
ENDBRANCH  28  30
TORSDOF 1
