REMARK  9 active torsions:
REMARK  status: ('A' for Active; 'I' for Inactive)
REMARK    1  A    between atoms: PB_1  and  O3A_5 
REMARK    2  A    between atoms: O3A_5  and  PA_6 
REMARK    3  A    between atoms: PA_6  and  O5'_9 
REMARK    4  A    between atoms: O5'_9  and  C5'_10 
REMARK    5  A    between atoms: C5'_10  and  C4'_11 
REMARK    6  A    between atoms: C3'_13  and  O3'_14 
REMARK    7  A    between atoms: C2'_15  and  O2'_16 
REMARK    8  A    between atoms: C1'_17  and  N9_18 
REMARK    9  A    between atoms: C2_25  and  N2_26 
ROOT
ATOM      1  C4' GDP d          -3.654  24.975 -23.281  0.00  0.00     0.180 C 
ATOM      2  O4' GDP d          -4.245  23.881 -23.993  0.00  0.00    -0.353 OA
ATOM      3  C3' GDP d          -3.581  26.139 -24.249  0.00  0.00     0.182 C 
ATOM      4  C2' GDP d          -4.535  25.758 -25.358  0.00  0.00     0.198 C 
ATOM      5  C1' GDP d          -4.393  24.257 -25.358  0.00  0.00     0.262 C 
ENDROOT
BRANCH   5   6
ATOM      6  N9  GDP d          -5.604  23.647 -25.917  0.00  0.00    -0.295 N 
ATOM      7  C8  GDP d          -6.876  23.966 -25.640  0.00  0.00     0.214 A 
ATOM      8  N7  GDP d          -7.722  23.174 -26.345  0.00  0.00    -0.234 NA
ATOM      9  C5  GDP d          -6.974  22.325 -27.084  0.00  0.00     0.171 A 
ATOM     10  C6  GDP d          -7.230  21.232 -28.060  0.00  0.00     0.292 A 
ATOM     11  C4  GDP d          -5.578  22.648 -26.784  0.00  0.00     0.161 A 
ATOM     12  O6  GDP d          -8.412  20.894 -28.362  0.00  0.00    -0.265 OA
ATOM     13  N1  GDP d          -6.156  20.620 -28.596  0.00  0.00    -0.154 N 
ATOM     14  C2  GDP d          -4.890  20.976 -28.273  0.00  0.00     0.680 A 
ATOM     15  H10 GDP d          -6.298  19.880 -29.253  0.00  0.00     0.187 HD
ATOM     16  N3  GDP d          -4.584  21.971 -27.399  0.00  0.00    -0.174 N 
ATOM     17  H13 GDP d          -3.600  22.207 -27.207  0.00  0.00     0.186 HD
BRANCH  14  18
ATOM     18  N2  GDP d          -3.857  20.321 -28.834  0.00  0.00    -0.234 N 
ATOM     19  H11 GDP d          -2.890  20.584 -28.595  0.00  0.00     0.174 HD
ATOM     20  H12 GDP d          -4.033  19.557 -29.502  0.00  0.00     0.174 HD
ENDBRANCH  14  18
ENDBRANCH   5   6
BRANCH   4  21
ATOM     21  O2' GDP d          -4.171  26.273 -26.641  0.00  0.00    -0.388 OA
ATOM     22  H7  GDP d          -3.314  25.942 -26.882  0.00  0.00     0.210 HD
ENDBRANCH   4  21
BRANCH   1  23
ATOM     23  C5' GDP d          -4.532  25.364 -22.104  0.00  0.00     0.216 C 
BRANCH  23  24
ATOM     24  O5' GDP d          -5.806  25.775 -22.604  0.00  0.00    -0.287 OA
BRANCH  24  25
ATOM     25  PA  GDP d          -6.723  26.688 -21.638  0.00  0.00     0.418 P 
ATOM     26  O1A GDP d          -5.968  27.935 -21.268  0.00  0.00    -0.624 OA
ATOM     27  O2A GDP d          -8.069  27.033 -22.239  0.00  0.00    -0.624 OA
BRANCH  25  28
ATOM     28  O3A GDP d          -6.922  25.613 -20.457  0.00  0.00    -0.173 OA
BRANCH  28  29
ATOM     29  PB  GDP d          -7.563  25.910 -19.017  0.00  0.00     0.431 P 
ATOM     30  O1B GDP d          -8.476  27.121 -18.960  0.00  0.00    -0.616 OA
ATOM     31  O2B GDP d          -8.369  24.679 -18.665  0.00  0.00    -0.616 OA
ATOM     32  O3B GDP d          -6.433  26.108 -18.020  0.00  0.00    -0.616 OA
ENDBRANCH  28  29
ENDBRANCH  25  28
ENDBRANCH  24  25
ENDBRANCH  23  24
ENDBRANCH   1  23
BRANCH   3  33
ATOM     33  O3' GDP d          -2.235  26.176 -24.727  0.00  0.00    -0.390 OA
ATOM     34  H5  GDP d          -2.138  26.894 -25.341  0.00  0.00     0.210 HD
ENDBRANCH   3  33
TORSDOF 9
