REMARK  3 active torsions:
REMARK  status: ('A' for Active; 'I' for Inactive)
REMARK    1  A    between atoms: C1_1  and  S1_12 
REMARK    2  A    between atoms: C2_2  and  N4_8 
REMARK       I    between atoms: N4_8  and  C3_3 
REMARK    3  A    between atoms: S1_12  and  N1_5 
ROOT
ATOM      1  C1  AZM d          -5.193   2.456  16.152  0.00  0.00     0.237 A 
ATOM      2  C2  AZM d          -4.639   4.357  15.041  0.00  0.00     0.197 A 
ATOM      3  N2  AZM d          -3.578   3.838  15.552  0.00  0.00    -0.122 NA
ATOM      4  N3  AZM d          -3.915   2.689  16.215  0.00  0.00    -0.126 NA
ATOM      5  S2  AZM d          -6.138   3.587  15.327  0.00  0.00    -0.015 SA
ENDROOT
BRANCH   1   6
ATOM      6  S1  AZM d          -5.812   0.961  16.882  0.00  0.00     0.282 S 
ATOM      7  O1  AZM d          -5.872   1.376  18.283  0.00  0.00    -0.199 OA
ATOM      8  O2  AZM d          -7.233   0.516  16.802  0.00  0.00    -0.199 OA
BRANCH   6   9
ATOM      9  N1  AZM d          -4.635  -0.133  16.847  0.00  0.00    -0.323 N 
ATOM     10  H4  AZM d          -4.792  -1.049  17.217  0.00  0.00     0.169 HD
ATOM     11  H5  AZM d          -3.745   0.102  16.456  0.00  0.00     0.169 HD
ENDBRANCH   6   9
ENDBRANCH   1   6
BRANCH   2  12
ATOM     12  N4  AZM d          -4.421   5.394  14.273  0.00  0.00    -0.305 N 
ATOM     13  C3  AZM d          -5.452   6.000  13.643  0.00  0.00     0.219 C 
ATOM     14  O3  AZM d          -6.627   5.647  13.746  0.00  0.00    -0.274 OA
ATOM     15  C4  AZM d          -5.142   7.188  12.735  0.00  0.00     0.117 C 
ATOM     16  H6  AZM d          -3.490   5.739  14.152  0.00  0.00     0.171 HD
ENDBRANCH   2  12
TORSDOF 3
