REMARK  12 active torsions:
REMARK  status: ('A' for Active; 'I' for Inactive)
REMARK       I    between atoms: C9_14  and  N2_3 
REMARK       I    between atoms: C8_12  and  N1_6 
REMARK    1  A    between atoms: C4_8  and  C9_14 
REMARK    2  A    between atoms: C6_10  and  C8_12 
REMARK    3  A    between atoms: C7_11  and  C12_18 
REMARK    4  A    between atoms: N28_32  and  C7_11 
REMARK    5  A    between atoms: S8_13  and  C26_30 
REMARK    6  A    between atoms: N28_32  and  S8_13 
REMARK    7  A    between atoms: S9_15  and  C27_31 
REMARK    8  A    between atoms: N32_36  and  S9_15 
REMARK    9  A    between atoms: C23_27  and  N28_32 
REMARK   10  A    between atoms: C24_28  and  N32_36 
REMARK   11  A    between atoms: N32_36  and  C33_37 
REMARK   12  A    between atoms: C33_37  and  C34_38 
ROOT
ATOM      1  C21 G4G d          12.548 -17.744 -18.134  0.00  0.00     0.260 C 
ATOM      2  N22 G4G d          13.908 -18.187 -18.563  0.00  0.00    -0.071 N 
ATOM      3  C23 G4G d          11.917 -18.964 -17.431  0.00  0.00     0.147 C 
ATOM      4  C24 G4G d          12.671 -20.221 -18.033  0.00  0.00     0.147 C 
ATOM      5  C25 G4G d          13.984 -19.656 -18.638  0.00  0.00     0.260 C 
ATOM      6  H19 G4G d          14.588 -17.855 -17.897  0.00  0.00     0.277 HD
ATOM      7  H20 G4G d          14.110 -17.799 -19.471  0.00  0.00     0.277 HD
ENDROOT
BRANCH   3   8
ATOM      8  N28 G4G d          12.190 -18.950 -15.949  0.00  0.00    -0.294 N 
BRANCH   8   9
ATOM      9  C7  G4G d          13.465 -18.713 -15.248  0.00  0.00     0.174 C 
BRANCH   9  10
ATOM     10  C12 G4G d          14.337 -19.970 -15.196  0.00  0.00    -0.040 A 
ATOM     11  C13 G4G d          13.775 -21.236 -14.829  0.00  0.00     0.009 A 
ATOM     12  C29 G4G d          14.628 -22.383 -14.801  0.00  0.00     0.001 A 
ATOM     13  C31 G4G d          16.020 -22.298 -15.098  0.00  0.00     0.000 A 
ATOM     14  C30 G4G d          16.583 -21.040 -15.464  0.00  0.00     0.001 A 
ATOM     15  C14 G4G d          15.729 -19.898 -15.527  0.00  0.00     0.009 A 
ENDBRANCH   9  10
ENDBRANCH   8   9
BRANCH   8  16
ATOM     16  S8  G4G d          10.840 -19.314 -14.999  0.00  0.00     0.261 S 
ATOM     17  O10 G4G d          10.244 -20.508 -15.581  0.00  0.00    -0.200 OA
ATOM     18  O41 G4G d          11.296 -19.434 -13.589  0.00  0.00    -0.200 OA
BRANCH  16  19
ATOM     19  C26 G4G d           9.720 -17.972 -15.036  0.00  0.00     0.079 A 
ATOM     20  C17 G4G d          10.024 -16.716 -14.442  0.00  0.00     0.026 A 
ATOM     21  C1  G4G d           9.091 -15.638 -14.470  0.00  0.00     0.018 A 
ATOM     22  C4  G4G d           7.834 -15.833 -15.147  0.00  0.00     0.031 A 
ATOM     23  C3  G4G d           7.523 -17.075 -15.759  0.00  0.00     0.018 A 
ATOM     24  C19 G4G d           8.459 -18.150 -15.696  0.00  0.00     0.026 A 
BRANCH  22  25
ATOM     25  C9  G4G d           6.888 -14.708 -15.135  0.00  0.00     0.249 C 
ATOM     26  N2  G4G d           5.591 -14.937 -15.375  0.00  0.00    -0.366 N 
ATOM     27  H2  G4G d           5.276 -15.864 -15.578  0.00  0.00     0.159 HD
ATOM     28  H3  G4G d           4.937 -14.181 -15.351  0.00  0.00     0.159 HD
ATOM     29  O1  G4G d           7.304 -13.591 -14.885  0.00  0.00    -0.268 OA
ENDBRANCH  22  25
ENDBRANCH  16  19
ENDBRANCH   8  16
ENDBRANCH   3   8
BRANCH   4  30
ATOM     30  N32 G4G d          11.807 -20.890 -19.073  0.00  0.00    -0.294 N 
BRANCH  30  31
ATOM     31  S9  G4G d          11.455 -22.544 -18.773  0.00  0.00     0.261 S 
ATOM     32  O11 G4G d          11.453 -22.795 -17.349  0.00  0.00    -0.200 OA
ATOM     33  O40 G4G d          10.479 -22.979 -19.757  0.00  0.00    -0.200 OA
BRANCH  31  34
ATOM     34  C27 G4G d          12.993 -23.210 -19.405  0.00  0.00     0.079 A 
ATOM     35  C18 G4G d          13.256 -23.227 -20.800  0.00  0.00     0.026 A 
ATOM     36  C2  G4G d          14.490 -23.745 -21.258  0.00  0.00     0.018 A 
ATOM     37  C6  G4G d          15.429 -24.264 -20.352  0.00  0.00     0.031 A 
ATOM     38  C5  G4G d          15.183 -24.272 -18.959  0.00  0.00     0.018 A 
ATOM     39  C20 G4G d          13.941 -23.745 -18.502  0.00  0.00     0.026 A 
BRANCH  37  40
ATOM     40  C8  G4G d          16.733 -24.799 -20.898  0.00  0.00     0.249 C 
ATOM     41  O2  G4G d          17.088 -24.464 -22.015  0.00  0.00    -0.268 OA
ATOM     42  N1  G4G d          17.482 -25.623 -20.146  0.00  0.00    -0.366 N 
ATOM     43  H5  G4G d          17.172 -25.886 -19.232  0.00  0.00     0.159 HD
ATOM     44  H6  G4G d          18.349 -25.974 -20.500  0.00  0.00     0.159 HD
ENDBRANCH  37  40
ENDBRANCH  31  34
ENDBRANCH  30  31
BRANCH  30  45
ATOM     45  C33 G4G d          11.278 -20.279 -20.323  0.00  0.00     0.174 C 
BRANCH  45  46
ATOM     46  C34 G4G d           9.994 -19.476 -20.159  0.00  0.00    -0.040 A 
ATOM     47  C35 G4G d           9.051 -19.862 -19.185  0.00  0.00     0.009 A 
ATOM     48  C36 G4G d           7.868 -19.078 -19.080  0.00  0.00     0.001 A 
ATOM     49  C37 G4G d           7.665 -17.945 -19.923  0.00  0.00     0.000 A 
ATOM     50  C39 G4G d           8.619 -17.562 -20.902  0.00  0.00     0.001 A 
ATOM     51  C38 G4G d           9.785 -18.362 -21.018  0.00  0.00     0.009 A 
ENDBRANCH  45  46
ENDBRANCH  30  45
ENDBRANCH   4  30
TORSDOF 12
