REMARK  6 active torsions:
REMARK  status: ('A' for Active; 'I' for Inactive)
REMARK    1  A    between atoms: P_1  and  C1P_5 
REMARK    2  A    between atoms: C1P_5  and  C1_6 
REMARK       I    between atoms: C1_6  and  N2_8 
REMARK    3  A    between atoms: N2_8  and  C2_9 
REMARK    4  A    between atoms: C2_9  and  C3_13 
REMARK    5  A    between atoms: C2_9  and  C4_10 
REMARK    6  A    between atoms: C3_13  and  C5_14 
ROOT
ATOM      1  C1  PAL d          43.248  29.956  15.913  0.00  0.00     0.231 C 
ATOM      2  O1  PAL d          43.007  31.015  15.289  0.00  0.00    -0.273 OA
ATOM      3  N2  PAL d          42.607  29.592  17.036  0.00  0.00    -0.345 N 
ATOM      4  H3  PAL d          42.906  28.760  17.504  0.00  0.00     0.163 HD
ENDROOT
BRANCH   3   5
ATOM      5  C2  PAL d          41.503  30.342  17.606  0.00  0.00     0.195 C 
BRANCH   5   6
ATOM      6  C3  PAL d          40.717  29.448  18.601  0.00  0.00     0.149 C 
BRANCH   6   7
ATOM      7  C5  PAL d          41.499  29.132  19.864  0.00  0.00     0.175 C 
ATOM      8  O5  PAL d          40.998  28.294  20.658  0.00  0.00    -0.648 OA
ATOM      9  O4  PAL d          42.570  29.754  20.076  0.00  0.00    -0.648 OA
ENDBRANCH   6   7
ENDBRANCH   5   6
BRANCH   5  10
ATOM     10  C4  PAL d          41.822  31.697  18.195  0.00  0.00     0.197 C 
ATOM     11  O3  PAL d          43.040  31.980  18.231  0.00  0.00    -0.646 OA
ATOM     12  O2  PAL d          40.869  32.427  18.650  0.00  0.00    -0.646 OA
ENDBRANCH   5  10
ENDBRANCH   3   5
BRANCH   1  13
ATOM     13  C1P PAL d          44.364  29.028  15.454  0.00  0.00     0.248 C 
BRANCH  13  14
ATOM     14  P   PAL d          46.007  29.584  15.946  0.00  0.00     0.268 P 
ATOM     15  O3P PAL d          46.396  30.603  14.747  0.00  0.00    -0.639 OA
ATOM     16  O2P PAL d          47.069  28.559  15.951  0.00  0.00    -0.639 OA
ATOM     17  O1P PAL d          45.966  30.512  17.178  0.00  0.00    -0.639 OA
ENDBRANCH  13  14
ENDBRANCH   1  13
TORSDOF 6
