REMARK  4 active torsions:
REMARK  status: ('A' for Active; 'I' for Inactive)
REMARK    1  A    between atoms: N9_5  and  C1'_11 
REMARK    2  A    between atoms: C6_9  and  N6_10 
REMARK    3  A    between atoms: C2'_12  and  O2'_16 
REMARK    4  A    between atoms: C3'_13  and  O3'_17 
ROOT
ATOM      1  N1  CC5 d          19.779   4.280   7.801  0.00  0.00    -0.222 NA
ATOM      2  C2  CC5 d          20.098   5.393   8.451  0.00  0.00     0.237 A 
ATOM      3  N3  CC5 d          19.220   6.355   8.668  0.00  0.00    -0.222 NA
ATOM      4  C4  CC5 d          17.965   6.234   8.211  0.00  0.00     0.167 A 
ATOM      5  N9  CC5 d          16.905   7.030   8.279  0.00  0.00    -0.294 N 
ATOM      6  C8  CC5 d          15.890   6.413   7.656  0.00  0.00     0.214 A 
ATOM      7  N7  CC5 d          16.305   5.230   7.193  0.00  0.00    -0.236 NA
ATOM      8  C5  CC5 d          17.586   5.088   7.527  0.00  0.00     0.149 A 
ATOM      9  C6  CC5 d          18.536   4.089   7.329  0.00  0.00     0.155 A 
ENDROOT
BRANCH   5  10
ATOM     10  C1' CC5 d          16.884   8.377   8.940  0.00  0.00     0.261 C 
ATOM     11  C2' CC5 d          16.734   9.489   7.885  0.00  0.00     0.198 C 
ATOM     12  C3' CC5 d          15.520  10.303   8.365  0.00  0.00     0.175 C 
ATOM     13  C4' CC5 d          15.400   9.912   9.845  0.00  0.00     0.205 C 
ATOM     14  O4' CC5 d          15.772   8.521   9.863  0.00  0.00    -0.361 OA
BRANCH  11  15
ATOM     15  O2' CC5 d          17.923  10.299   7.882  0.00  0.00    -0.389 OA
ATOM     16  H10 CC5 d          17.799  11.039   7.299  0.00  0.00     0.210 HD
ENDBRANCH  11  15
BRANCH  12  17
ATOM     17  O3' CC5 d          15.765  11.721   8.242  0.00  0.00    -0.391 OA
ATOM     18  H11 CC5 d          16.574  11.941   8.689  0.00  0.00     0.210 HD
ENDBRANCH  12  17
ENDBRANCH   5  10
BRANCH   9  19
ATOM     19  N6  CC5 d          18.241   2.966   6.678  0.00  0.00    -0.382 N 
ATOM     20  H3  CC5 d          17.289   2.816   6.315  0.00  0.00     0.157 HD
ATOM     21  H4  CC5 d          18.965   2.247   6.537  0.00  0.00     0.157 HD
ENDBRANCH   9  19
TORSDOF 4
