REMARK  8 active torsions:
REMARK  status: ('A' for Active; 'I' for Inactive)
REMARK    1  A    between atoms: C6_6  and  C5_5 
REMARK    2  A    between atoms: C7_7  and  C6_6 
REMARK    3  A    between atoms: C24_24  and  C7_7 
REMARK    4  A    between atoms: C10_11  and  N11_12 
REMARK    5  A    between atoms: C17_17  and  N18_18 
REMARK    6  A    between atoms: C20_20  and  O21_21 
REMARK    7  A    between atoms: C25_25  and  O26_26 
REMARK    8  A    between atoms: C27_27  and  O28_28 
ROOT
ATOM      1  C1  MOL d           9.632  17.566  91.671  0.00  0.00     0.063 A 
ATOM      2  C2  MOL d          10.650  17.936  90.811  0.00  0.00     0.054 A 
ATOM      3  C3  MOL d          10.364  17.829  89.459  0.00  0.00     0.104 A 
ATOM      4  C4  MOL d           9.162  17.322  88.971  0.00  0.00     0.087 A 
ATOM      5  C5  MOL d           8.124  16.859  89.819  0.00  0.00    -0.000 A 
ATOM      6  C8  MOL d           8.406  17.032  91.216  0.00  0.00     0.073 A 
ATOM      7  C13 MOL d           9.889  17.731  93.139  0.00  0.00     0.272 A 
ATOM      8  N9  MOL d           7.441  16.687  92.150  0.00  0.00    -0.190 N 
ATOM      9  C10 MOL d           7.657  16.893  93.447  0.00  0.00     0.679 A 
ATOM     10  N12 MOL d           8.815  17.400  93.920  0.00  0.00    -0.156 N 
ATOM     11  O14 MOL d          10.905  18.137  93.594  0.00  0.00    -0.267 OA
ATOM     12  N15 MOL d          11.069  18.194  88.324  0.00  0.00    -0.063 NA
ATOM     13  N16 MOL d           9.140  17.393  87.594  0.00  0.00    -0.187 N 
ATOM     14  C17 MOL d          10.282  17.908  87.243  0.00  0.00     0.701 A 
ATOM     15  H   MOL d           6.553  16.269  91.838  0.00  0.00     0.184 HD
ATOM     16  H   MOL d           8.893  17.543  94.907  0.00  0.00     0.187 HD
ATOM     17  H   MOL d           8.375  17.098  86.970  0.00  0.00     0.184 HD
ENDROOT
BRANCH   5  18
ATOM     18  C6  MOL d           6.834  16.251  89.243  0.00  0.00     0.046 C 
BRANCH  18  19
ATOM     19  C7  MOL d           5.817  17.182  88.743  0.00  0.00     0.039 C 
BRANCH  19  20
ATOM     20  C24 MOL d           4.495  16.523  88.421  0.00  0.00     0.156 C 
ATOM     21  O23 MOL d           3.587  17.590  88.076  0.00  0.00    -0.351 OA
ATOM     22  C20 MOL d           2.851  17.222  86.898  0.00  0.00     0.291 C 
ATOM     23  C27 MOL d           2.954  15.709  86.829  0.00  0.00     0.207 C 
ATOM     24  C25 MOL d           4.421  15.553  87.263  0.00  0.00     0.180 C 
BRANCH  22  25
ATOM     25  O21 MOL d           3.462  17.821  85.770  0.00  0.00    -0.363 OA
ATOM     26  C22 MOL d           3.437  19.250  85.765  0.00  0.00     0.204 C 
ENDBRANCH  22  25
BRANCH  23  27
ATOM     27  O28 MOL d           2.025  15.154  87.760  0.00  0.00    -0.383 OA
ATOM     28  C   MOL d           1.609  13.818  87.493  0.00  0.00     0.202 C 
ENDBRANCH  23  27
BRANCH  24  29
ATOM     29  O26 MOL d           4.733  14.224  87.582  0.00  0.00    -0.390 OA
ATOM     30  H   MOL d           4.662  13.687  86.802  0.00  0.00     0.210 HD
ENDBRANCH  24  29
ENDBRANCH  19  20
ENDBRANCH  18  19
ENDBRANCH   5  18
BRANCH  14  31
ATOM     31  N18 MOL d          10.708  18.208  85.971  0.00  0.00    -0.229 N 
ATOM     32  C19 MOL d           9.718  18.310  84.897  0.00  0.00     0.165 C 
ATOM     33  H   MOL d          11.708  18.359  85.776  0.00  0.00     0.177 HD
ENDBRANCH  14  31
BRANCH   9  34
ATOM     34  N11 MOL d           6.694  16.582  94.327  0.00  0.00    -0.234 N 
ATOM     35  H   MOL d           6.847  16.736  95.334  0.00  0.00     0.174 HD
ATOM     36  H   MOL d           5.801  16.189  93.996  0.00  0.00     0.174 HD
ENDBRANCH   9  34
TORSDOF 8
