REMARK  12 active torsions:
REMARK  status: ('A' for Active; 'I' for Inactive)
REMARK    1  A    between atoms: N3_3  and  S9_9 
REMARK    2  A    between atoms: C4_4  and  C6_6 
REMARK       I    between atoms: C6_6  and  N8_8 
REMARK    3  A    between atoms: N8_8  and  C30_30 
REMARK    4  A    between atoms: S9_9  and  C10_10 
REMARK    5  A    between atoms: C15_15  and  C18_18 
REMARK       I    between atoms: C18_18  and  N19_19 
REMARK    6  A    between atoms: N19_19  and  C20_20 
REMARK    7  A    between atoms: C20_20  and  C25_25 
REMARK    8  A    between atoms: C20_20  and  C21_21 
REMARK    9  A    between atoms: C21_21  and  C22_22 
REMARK   10  A    between atoms: C22_22  and  C23_23 
REMARK   11  A    between atoms: C30_30  and  C31_31 
REMARK   12  A    between atoms: C31_31  and  C32_32 
ROOT
ATOM      1  C10 TP4 d          16.053  15.027  34.330  0.00  0.00     0.079 A 
ATOM      2  C13 TP4 d          14.699  15.139  34.075  0.00  0.00     0.026 A 
ATOM      3  C14 TP4 d          13.823  14.548  34.970  0.00  0.00     0.018 A 
ATOM      4  C15 TP4 d          14.338  13.884  36.104  0.00  0.00     0.032 A 
ATOM      5  C16 TP4 d          15.717  13.799  36.329  0.00  0.00     0.018 A 
ATOM      6  C17 TP4 d          16.605  14.386  35.431  0.00  0.00     0.026 A 
ENDROOT
BRANCH   1   7
ATOM      7  S9  TP4 d          17.096  15.863  33.193  0.00  0.00     0.261 S 
ATOM      8  O12 TP4 d          16.669  17.375  33.268  0.00  0.00    -0.200 OA
ATOM      9  O11 TP4 d          18.605  15.642  33.564  0.00  0.00    -0.200 OA
BRANCH   7  10
ATOM     10  N3  TP4 d          16.837  15.384  31.564  0.00  0.00    -0.293 N 
ATOM     11  C2  TP4 d          16.992  13.970  31.185  0.00  0.00     0.136 C 
ATOM     12  C1  TP4 d          15.862  13.779  30.158  0.00  0.00     0.023 C 
ATOM     13  C5  TP4 d          15.759  15.163  29.493  0.00  0.00     0.037 C 
ATOM     14  C4  TP4 d          15.829  16.088  30.734  0.00  0.00     0.188 C 
BRANCH  14  15
ATOM     15  C6  TP4 d          16.161  17.586  30.422  0.00  0.00     0.241 C 
ATOM     16  N8  TP4 d          15.201  18.494  30.184  0.00  0.00    -0.359 N 
ATOM     17  H8  TP4 d          14.282  18.111  30.091  0.00  0.00     0.162 HD
ATOM     18  O7  TP4 d          17.360  17.892  30.370  0.00  0.00    -0.271 OA
BRANCH  16  19
ATOM     19  C30 TP4 d          15.270  19.948  30.037  0.00  0.00     0.133 C 
BRANCH  19  20
ATOM     20  C31 TP4 d          15.090  20.627  31.412  0.00  0.00     0.133 C 
BRANCH  20  21
ATOM     21  C32 TP4 d          15.430  22.125  31.254  0.00  0.00     0.174 C 
ATOM     22  O34 TP4 d          16.581  22.408  30.877  0.00  0.00    -0.648 OA
ATOM     23  O33 TP4 d          14.532  22.956  31.502  0.00  0.00    -0.648 OA
ENDBRANCH  20  21
ENDBRANCH  19  20
ENDBRANCH  16  19
ENDBRANCH  14  15
ENDBRANCH   7  10
ENDBRANCH   1   7
BRANCH   4  24
ATOM     24  C18 TP4 d          13.349  13.227  37.048  0.00  0.00     0.252 C 
ATOM     25  O24 TP4 d          12.181  13.039  36.677  0.00  0.00    -0.268 OA
ATOM     26  N19 TP4 d          13.821  12.721  38.201  0.00  0.00    -0.342 N 
ATOM     27  H13 TP4 d          14.790  12.798  38.437  0.00  0.00     0.163 HD
BRANCH  26  28
ATOM     28  C20 TP4 d          12.847  12.033  39.131  0.00  0.00     0.186 C 
BRANCH  28  29
ATOM     29  C25 TP4 d          13.043  12.798  40.488  0.00  0.00     0.196 C 
ATOM     30  O27 TP4 d          14.140  13.379  40.625  0.00  0.00    -0.646 OA
ATOM     31  O26 TP4 d          12.132  12.746  41.315  0.00  0.00    -0.646 OA
ENDBRANCH  28  29
BRANCH  28  32
ATOM     32  C21 TP4 d          13.106  10.513  39.251  0.00  0.00     0.046 C 
BRANCH  32  33
ATOM     33  C22 TP4 d          14.019   9.895  38.172  0.00  0.00     0.116 C 
BRANCH  33  34
ATOM     34  C23 TP4 d          14.672   8.631  38.746  0.00  0.00     0.172 C 
ATOM     35  O29 TP4 d          14.683   7.593  38.058  0.00  0.00    -0.648 OA
ATOM     36  O28 TP4 d          15.184   8.640  39.887  0.00  0.00    -0.648 OA
ENDBRANCH  33  34
ENDBRANCH  32  33
ENDBRANCH  28  32
ENDBRANCH  26  28
ENDBRANCH   4  24
TORSDOF 12
