REMARK  7 active torsions:
REMARK  status: ('A' for Active; 'I' for Inactive)
REMARK       I    between atoms: C10_2  and  N4_4 
REMARK    1  A    between atoms: N4_4  and  C2_5 
REMARK    2  A    between atoms: C3_6  and  O3_7 
REMARK    3  A    between atoms: C4_8  and  O4_9 
REMARK    4  A    between atoms: C5_10  and  C6_11 
REMARK    5  A    between atoms: C6_11  and  O5_12 
REMARK    6  A    between atoms: C8_16  and  C9_18 
REMARK       I    between atoms: C9_18  and  N3_20 
REMARK    7  A    between atoms: N3_20  and  C11_21 
ROOT
ATOM      1  C2  GDV d           1.883  -8.675  32.827  0.00  0.00     0.185 C 
ATOM      2  C3  GDV d           2.734  -8.322  31.595  0.00  0.00     0.179 C 
ATOM      3  C4  GDV d           1.961  -7.337  30.665  0.00  0.00     0.174 C 
ATOM      4  C5  GDV d           1.636  -6.005  31.451  0.00  0.00     0.145 C 
ATOM      5  C1  GDV d           0.677  -7.748  32.917  0.00  0.00     0.133 A 
ATOM      6  N1  GDV d           0.629  -6.529  32.346  0.00  0.00    -0.332 N 
ATOM      7  C7  GDV d          -0.628  -6.048  32.632  0.00  0.00     0.130 A 
ATOM      8  C8  GDV d          -1.264  -6.987  33.431  0.00  0.00     0.142 A 
ATOM      9  N2  GDV d          -0.431  -8.032  33.602  0.00  0.00    -0.226 NA
ENDROOT
BRANCH   8  10
ATOM     10  C9  GDV d          -2.544  -6.917  33.983  0.00  0.00     0.276 C 
ATOM     11  O2  GDV d          -3.238  -5.944  33.779  0.00  0.00    -0.266 OA
ATOM     12  N3  GDV d          -2.962  -8.002  34.685  0.00  0.00    -0.322 N 
ATOM     13  H15 GDV d          -2.335  -8.777  34.763  0.00  0.00     0.169 HD
BRANCH  12  14
ATOM     14  C11 GDV d          -4.207  -8.107  35.304  0.00  0.00     0.035 A 
ATOM     15  C17 GDV d          -4.902  -9.319  35.425  0.00  0.00     0.029 A 
ATOM     16  C16 GDV d          -6.122  -9.403  36.122  0.00  0.00     0.002 A 
ATOM     17  C15 GDV d          -6.661  -8.264  36.718  0.00  0.00     0.000 A 
ATOM     18  C14 GDV d          -5.987  -7.053  36.610  0.00  0.00     0.002 A 
ATOM     19  C13 GDV d          -4.757  -6.975  35.921  0.00  0.00     0.029 A 
ENDBRANCH  12  14
ENDBRANCH   8  10
BRANCH   4  20
ATOM     20  C6  GDV d           1.076  -4.932  30.498  0.00  0.00     0.192 C 
BRANCH  20  21
ATOM     21  O5  GDV d          -0.040  -5.397  29.737  0.00  0.00    -0.399 OA
ATOM     22  H13 GDV d          -0.738  -5.656  30.327  0.00  0.00     0.209 HD
ENDBRANCH  20  21
ENDBRANCH   4  20
BRANCH   1  23
ATOM     23  N4  GDV d           2.723  -8.707  34.016  0.00  0.00    -0.347 N 
ATOM     24  C10 GDV d           3.214  -7.607  34.627  0.00  0.00     0.214 C 
ATOM     25  O1  GDV d           3.010  -6.448  34.300  0.00  0.00    -0.274 OA
ATOM     26  C12 GDV d           4.059  -7.939  35.840  0.00  0.00     0.117 C 
ATOM     27  H4  GDV d           2.951  -9.600  34.405  0.00  0.00     0.163 HD
ENDBRANCH   1  23
BRANCH   3  28
ATOM     28  O4  GDV d           2.791  -7.059  29.550  0.00  0.00    -0.391 OA
ATOM     29  H9  GDV d           2.983  -7.868  29.090  0.00  0.00     0.210 HD
ENDBRANCH   3  28
BRANCH   2  30
ATOM     30  O3  GDV d           3.157  -9.541  30.962  0.00  0.00    -0.390 OA
ATOM     31  H7  GDV d           3.684  -9.334  30.199  0.00  0.00     0.210 HD
ENDBRANCH   2  30
TORSDOF 7
