REMARK  24 active torsions:
REMARK  status: ('A' for Active; 'I' for Inactive)
REMARK    1  A    between atoms: CA_1  and  CB_2 
REMARK    2  A    between atoms: C_5  and  CA_1 
REMARK       I    between atoms: N_7  and  C_5 
REMARK    3  A    between atoms: CA_8  and  N_7 
REMARK    4  A    between atoms: CA_8  and  CB_11 
REMARK    5  A    between atoms: C_9  and  CA_8 
REMARK       I    between atoms: N_14  and  C_9 
REMARK    6  A    between atoms: CA_15  and  N_14 
REMARK    7  A    between atoms: CA_15  and  CB_18 
REMARK    8  A    between atoms: C_16  and  CA_15 
REMARK       I    between atoms: N_21  and  C_16 
REMARK    9  A    between atoms: CA_22  and  N_21 
REMARK   10  A    between atoms: CA_22  and  CB_23 
REMARK   11  A    between atoms: CH_27  and  CA_22 
REMARK   12  A    between atoms: CB_23  and  CG_24 
REMARK   13  A    between atoms: CH_27  and  OH_28 
REMARK   14  A    between atoms: CM_29  and  CH_27 
REMARK   15  A    between atoms: C_30  and  CM_29 
REMARK       I    between atoms: N_32  and  C_30 
REMARK   16  A    between atoms: N_32  and  CA_33 
REMARK   17  A    between atoms: CA_33  and  C_34 
REMARK       I    between atoms: C_34  and  N_37 
REMARK   18  A    between atoms: N_37  and  CA_38 
REMARK   19  A    between atoms: CA_38  and  CB_39 
REMARK   20  A    between atoms: CA_38  and  CH_43 
REMARK   21  A    between atoms: CB_39  and  CG_40 
REMARK   22  A    between atoms: CH_43  and  OH_44 
REMARK   23  A    between atoms: CH_43  and  CM_45 
REMARK   24  A    between atoms: CM_45  and  C_46 
ROOT
ATOM      1  CA  MOL d           5.125  33.313  14.652  0.00  0.00     0.114 C 
ENDROOT
BRANCH   1   2
ATOM      2  N   MOL d           4.255  32.095  14.820  0.00  0.00    -0.352 N 
ATOM      3  C   MOL d           3.256  32.125  15.704  0.00  0.00     0.241 C 
ATOM      4  O   MOL d           2.926  33.072  16.457  0.00  0.00    -0.271 OA
ATOM      5  H28 MOL d           4.424  31.273  14.275  0.00  0.00     0.163 HD
BRANCH   3   6
ATOM      6  CA  MOL d           2.481  30.853  15.921  0.00  0.00     0.180 C 
BRANCH   6   7
ATOM      7  N   MOL d           2.942  30.174  17.136  0.00  0.00    -0.346 N 
ATOM      8  C   MOL d           3.462  28.964  17.234  0.00  0.00     0.241 C 
ATOM      9  O   MOL d           3.430  28.084  16.352  0.00  0.00    -0.271 OA
ATOM     10  H19 MOL d           2.852  30.687  17.990  0.00  0.00     0.163 HD
BRANCH   8  11
ATOM     11  CA  MOL d           3.896  28.553  18.647  0.00  0.00     0.180 C 
BRANCH  11  12
ATOM     12  N   MOL d           3.391  27.213  18.964  0.00  0.00    -0.347 N 
ATOM     13  C   MOL d           3.027  26.836  20.171  0.00  0.00     0.218 C 
ATOM     14  O   MOL d           2.898  27.536  21.154  0.00  0.00    -0.274 OA
ATOM     15  H10 MOL d           3.319  26.548  18.221  0.00  0.00     0.163 HD
BRANCH  13  16
ATOM     16  CA  MOL d           2.860  25.327  20.093  0.00  0.00     0.106 C 
BRANCH  16  17
ATOM     17  CB  MOL d           1.484  24.889  20.583  0.00  0.00    -0.014 C 
ATOM     18  CG1 MOL d           0.402  25.470  19.674  0.00  0.00     0.010 C 
ATOM     19  CG2 MOL d           1.251  23.388  20.754  0.00  0.00     0.010 C 
ENDBRANCH  16  17
ENDBRANCH  13  16
ENDBRANCH  11  12
BRANCH  11  20
ATOM     20  CB  MOL d           5.381  28.599  18.935  0.00  0.00     0.009 C 
ATOM     21  CG2 MOL d           5.885  29.065  20.308  0.00  0.00     0.012 C 
ATOM     22  CG1 MOL d           6.287  28.946  17.813  0.00  0.00     0.012 C 
ENDBRANCH  11  20
ENDBRANCH   8  11
ENDBRANCH   6   7
BRANCH   6  23
ATOM     23  CB  MOL d           0.960  31.060  15.949  0.00  0.00     0.009 C 
ATOM     24  CG2 MOL d           0.176  29.794  16.325  0.00  0.00     0.012 C 
ATOM     25  CG1 MOL d           0.503  31.663  14.607  0.00  0.00     0.012 C 
ENDBRANCH   6  23
ENDBRANCH   3   6
ENDBRANCH   1   2
BRANCH   1  26
ATOM     26  CB  MOL d           6.548  33.003  15.126  0.00  0.00     0.031 C 
BRANCH  26  27
ATOM     27  CG  MOL d           6.625  32.421  16.511  0.00  0.00    -0.021 C 
ATOM     28  CD1 MOL d           8.008  31.947  16.933  0.00  0.00     0.009 C 
ATOM     29  CD2 MOL d           6.284  33.564  17.669  0.00  0.00     0.009 C 
ENDBRANCH  26  27
ENDBRANCH   1  26
BRANCH   1  30
ATOM     30  CH  MOL d           5.142  33.802  13.220  0.00  0.00     0.149 C 
BRANCH  30  31
ATOM     31  OH  MOL d           5.607  32.744  12.363  0.00  0.00    -0.393 OA
ATOM     32  H40 MOL d           5.619  33.049  11.463  0.00  0.00     0.210 HD
ENDBRANCH  30  31
BRANCH  30  33
ATOM     33  CM  MOL d           3.737  34.178  12.708  0.00  0.00     0.136 C 
BRANCH  33  34
ATOM     34  C   MOL d           3.414  35.630  13.099  0.00  0.00     0.220 C 
ATOM     35  O   MOL d           2.825  35.709  14.154  0.00  0.00    -0.274 OA
ATOM     36  N   MOL d           3.763  36.675  12.430  0.00  0.00    -0.348 N 
ATOM     37  H43 MOL d           4.344  36.532  11.628  0.00  0.00     0.163 HD
BRANCH  36  38
ATOM     38  CA  MOL d           3.379  38.064  12.746  0.00  0.00     0.172 C 
ATOM     39  CB  MOL d           4.226  38.965  11.866  0.00  0.00     0.042 C 
BRANCH  38  40
ATOM     40  C   MOL d           1.925  38.323  12.391  0.00  0.00     0.240 C 
ATOM     41  O   MOL d           1.758  38.923  11.356  0.00  0.00    -0.271 OA
ATOM     42  N   MOL d           0.942  37.862  13.091  0.00  0.00    -0.352 N 
ATOM     43  H48 MOL d           1.249  37.265  13.832  0.00  0.00     0.163 HD
BRANCH  42  44
ATOM     44  CA  MOL d          -0.505  38.004  13.058  0.00  0.00     0.114 C 
BRANCH  44  45
ATOM     45  CB  MOL d          -1.226  36.687  13.080  0.00  0.00     0.031 C 
BRANCH  45  46
ATOM     46  CG  MOL d          -0.515  35.565  12.340  0.00  0.00    -0.021 C 
ATOM     47  CD1 MOL d          -1.166  34.227  12.596  0.00  0.00     0.009 C 
ATOM     48  CD2 MOL d          -0.558  35.846  10.773  0.00  0.00     0.009 C 
ENDBRANCH  45  46
ENDBRANCH  44  45
BRANCH  44  49
ATOM     49  CH  MOL d          -1.040  38.933  14.164  0.00  0.00     0.150 C 
BRANCH  49  50
ATOM     50  OH  MOL d          -0.803  38.355  15.441  0.00  0.00    -0.393 OA
ATOM     51  H60 MOL d          -1.136  38.934  16.116  0.00  0.00     0.210 HD
ENDBRANCH  49  50
BRANCH  49  52
ATOM     52  CM  MOL d          -0.412  40.305  14.093  0.00  0.00     0.146 C 
BRANCH  52  53
ATOM     53  C   MOL d          -0.900  41.252  15.168  0.00  0.00     0.175 C 
ATOM     54  O   MOL d          -0.708  41.062  16.377  0.00  0.00    -0.648 OA
ATOM     55  OXT MOL d          -1.507  42.340  14.719  0.00  0.00    -0.648 OA
ENDBRANCH  52  53
ENDBRANCH  49  52
ENDBRANCH  44  49
ENDBRANCH  42  44
ENDBRANCH  38  40
ENDBRANCH  36  38
ENDBRANCH  33  34
ENDBRANCH  30  33
ENDBRANCH   1  30
TORSDOF 24
