REMARK  18 active torsions:
REMARK  status: ('A' for Active; 'I' for Inactive)
REMARK    1  A    between atoms: CAL_12  and  OAA_1 
REMARK    2  A    between atoms: CAM_13  and  OAB_2 
REMARK    3  A    between atoms: CAQ_17  and  OAC_3 
REMARK    4  A    between atoms: CAR_18  and  OAD_4 
REMARK    5  A    between atoms: CAS_19  and  OAE_5 
REMARK    6  A    between atoms: CAT_20  and  OAF_6 
REMARK    7  A    between atoms: CAU_21  and  OAG_7 
REMARK    8  A    between atoms: CAV_22  and  OAH_8 
REMARK    9  A    between atoms: CAQ_17  and  CAL_12 
REMARK   10  A    between atoms: CAW_23  and  CAM_13 
REMARK   11  A    between atoms: CAS_19  and  CAO_15 
REMARK   12  A    between atoms: CAO_15  and  SAY_25 
REMARK   13  A    between atoms: CAX_24  and  OAP_16 
REMARK   14  A    between atoms: OAP_16  and  SAZ_26 
REMARK   15  A    between atoms: CAT_20  and  CAQ_17 
REMARK   16  A    between atoms: CAX_24  and  CAS_19 
REMARK   17  A    between atoms: CAV_22  and  CAT_20 
REMARK   18  A    between atoms: CAV_22  and  CAX_24 
ROOT
ATOM      1  CAX KTL d          39.588  58.984  77.619  0.00  0.00     0.205 C 
ENDROOT
BRANCH   1   2
ATOM      2  OAP KTL d          41.003  59.056  77.661  0.00  0.00    -0.246 OA
BRANCH   2   3
ATOM      3  SAZ KTL d          41.760  60.442  78.057  0.00  0.00     0.252 S 
ATOM      4  OAI KTL d          41.645  61.423  76.967  0.00  0.00    -0.572 OA
ATOM      5  OAJ KTL d          41.140  61.020  79.273  0.00  0.00    -0.572 OA
ATOM      6  OAK KTL d          43.183  60.108  78.300  0.00  0.00    -0.572 OA
ENDBRANCH   2   3
ENDBRANCH   1   2
BRANCH   1   7
ATOM      7  CAS KTL d          39.080  58.057  78.740  0.00  0.00     0.159 C 
BRANCH   7   8
ATOM      8  OAE KTL d          37.651  58.058  78.707  0.00  0.00    -0.392 OA
ATOM      9  H5  KTL d          37.355  57.830  77.834  0.00  0.00     0.210 HD
ENDBRANCH   7   8
BRANCH   7  10
ATOM     10  CAO KTL d          39.571  58.424  80.145  0.00  0.00     0.098 C 
BRANCH  10  11
ATOM     11  SAY KTL d          38.944  57.487  81.376  0.00  0.00    -0.206 SA
ATOM     12  CAN KTL d          37.415  58.028  81.785  0.00  0.00     0.098 C 
ATOM     13  CAR KTL d          37.670  58.882  83.035  0.00  0.00     0.156 C 
ATOM     14  CAU KTL d          38.724  58.113  83.803  0.00  0.00     0.162 C 
ATOM     15  CAW KTL d          39.811  57.808  82.777  0.00  0.00     0.092 C 
BRANCH  13  16
ATOM     16  OAD KTL d          36.515  59.109  83.850  0.00  0.00    -0.392 OA
ATOM     17  H4  KTL d          36.757  59.642  84.598  0.00  0.00     0.210 HD
ENDBRANCH  13  16
BRANCH  14  18
ATOM     18  OAG KTL d          39.176  58.896  84.888  0.00  0.00    -0.392 OA
ATOM     19  H7  KTL d          38.445  59.093  85.461  0.00  0.00     0.210 HD
ENDBRANCH  14  18
BRANCH  15  20
ATOM     20  CAM KTL d          40.750  56.676  83.194  0.00  0.00     0.181 C 
BRANCH  20  21
ATOM     21  OAB KTL d          40.072  55.735  84.027  0.00  0.00    -0.400 OA
ATOM     22  H2  KTL d          40.673  55.042  84.274  0.00  0.00     0.209 HD
ENDBRANCH  20  21
ENDBRANCH  15  20
ENDBRANCH  10  11
ENDBRANCH   7  10
ENDBRANCH   1   7
BRANCH   1  23
ATOM     23  CAV KTL d          39.164  58.514  76.217  0.00  0.00     0.182 C 
BRANCH  23  24
ATOM     24  OAH KTL d          39.616  57.164  75.963  0.00  0.00    -0.390 OA
ATOM     25  H8  KTL d          40.565  57.152  75.921  0.00  0.00     0.210 HD
ENDBRANCH  23  24
BRANCH  23  26
ATOM     26  CAT KTL d          39.629  59.452  75.093  0.00  0.00     0.180 C 
BRANCH  26  27
ATOM     27  OAF KTL d          38.703  59.391  73.983  0.00  0.00    -0.390 OA
ATOM     28  H6  KTL d          37.823  59.564  74.296  0.00  0.00     0.210 HD
ENDBRANCH  26  27
BRANCH  26  29
ATOM     29  CAQ KTL d          41.063  59.177  74.621  0.00  0.00     0.173 C 
BRANCH  29  30
ATOM     30  OAC KTL d          41.256  57.778  74.325  0.00  0.00    -0.391 OA
ATOM     31  H3  KTL d          41.015  57.259  75.083  0.00  0.00     0.210 HD
ENDBRANCH  29  30
BRANCH  29  32
ATOM     32  CAL KTL d          41.441  60.052  73.421  0.00  0.00     0.198 C 
BRANCH  32  33
ATOM     33  OAA KTL d          42.647  59.555  72.824  0.00  0.00    -0.398 OA
ATOM     34  H1  KTL d          42.510  58.661  72.533  0.00  0.00     0.209 HD
ENDBRANCH  32  33
ENDBRANCH  29  32
ENDBRANCH  26  29
ENDBRANCH  23  26
ENDBRANCH   1  23
TORSDOF 18
