REMARK  5 active torsions:
REMARK  status: ('A' for Active; 'I' for Inactive)
REMARK    1  A    between atoms: C1_1  and  N1_2 
REMARK    2  A    between atoms: C10_8  and  C1_1 
REMARK    3  A    between atoms: N1_2  and  C1'_6 
REMARK    4  A    between atoms: C2'_11  and  N2'_12 
REMARK    5  A    between atoms: C4'_15  and  N4'_16 
ROOT
ATOM      1  C9  OAG d          -2.847 -17.116  -0.086  0.00  0.00     0.029 A 
ATOM      2  N1' OAG d          -3.310 -17.521   3.498  0.00  0.00    -0.043 NA
ATOM      3  C10 OAG d          -3.089 -15.744  -0.203  0.00  0.00    -0.022 A 
ATOM      4  C2' OAG d          -3.077 -18.835   3.626  0.00  0.00     0.724 C 
ATOM      5  N3' OAG d          -2.760 -19.583   2.546  0.00  0.00    -0.045 NA
ATOM      6  C4' OAG d          -2.747 -19.125   1.310  0.00  0.00     0.154 C 
ATOM      7  C4A OAG d          -2.925 -17.734   1.167  0.00  0.00     0.059 A 
ATOM      8  C7' OAG d          -3.385 -15.014   0.967  0.00  0.00     0.128 A 
ATOM      9  N8' OAG d          -3.464 -15.584   2.179  0.00  0.00    -0.239 NA
ATOM     10  C8A OAG d          -3.218 -16.929   2.290  0.00  0.00     0.182 A 
ENDROOT
BRANCH   3  11
ATOM     11  C1  OAG d          -2.969 -15.106  -1.629  0.00  0.00     0.160 C 
BRANCH  11  12
ATOM     12  N1  OAG d          -2.378 -13.710  -1.636  0.00  0.00    -0.384 N 
ATOM     13  H3  OAG d          -1.386 -13.464  -1.510  0.00  0.00     0.160 HD
BRANCH  12  14
ATOM     14  C1' OAG d          -3.387 -12.859  -1.837  0.00  0.00     0.051 A 
ATOM     15  C11 OAG d          -3.520 -11.487  -1.493  0.00  0.00     0.060 A 
ATOM     16 CL2  OAG d          -2.254 -10.605  -0.692  0.00  0.00    -0.082 Cl
ATOM     17  C3' OAG d          -4.708 -10.803  -1.792  0.00  0.00     0.028 A 
ATOM     18  C12 OAG d          -5.764 -11.450  -2.446  0.00  0.00     0.026 A 
ATOM     19  C5' OAG d          -5.598 -12.799  -2.789  0.00  0.00     0.036 A 
ATOM     20 CL5  OAG d          -6.763 -13.780  -3.580  0.00  0.00    -0.084 Cl
ATOM     21  C6' OAG d          -4.438 -13.479  -2.475  0.00  0.00     0.054 A 
ENDBRANCH  12  14
ENDBRANCH  11  12
ENDBRANCH   3  11
BRANCH   6  22
ATOM     22  N4' OAG d          -2.460 -19.941   0.306  0.00  0.00    -0.383 N 
ATOM     23  H9  OAG d          -2.449 -19.585  -0.660  0.00  0.00     0.157 HD
ATOM     24  H10 OAG d          -2.248 -20.931   0.492  0.00  0.00     0.157 HD
ENDBRANCH   6  22
BRANCH   4  25
ATOM     25  N2' OAG d          -3.071 -19.402   4.880  0.00  0.00    -0.231 N 
ATOM     26  H6  OAG d          -3.312 -18.833   5.704  0.00  0.00     0.174 HD
ATOM     27  H7  OAG d          -2.825 -20.396   4.995  0.00  0.00     0.174 HD
ENDBRANCH   4  25
TORSDOF 5
