REMARK  5 active torsions:
REMARK  status: ('A' for Active; 'I' for Inactive)
REMARK    1  A    between atoms: C6_6  and  N12_11 
REMARK    2  A    between atoms: C8_8  and  O26_19 
REMARK    3  A    between atoms: C9_9  and  O31_21 
REMARK    4  A    between atoms: N12_11  and  C14_12 
REMARK    5  A    between atoms: C16_14  and  O21_18 
ROOT
ATOM      1  N1  DTQ d          64.906  19.227  25.525  0.00  0.00    -0.224 NA
ATOM      2  C2  DTQ d          66.205  19.156  25.228  0.00  0.00     0.236 A 
ATOM      3  N3  DTQ d          66.908  19.988  24.460  0.00  0.00    -0.241 NA
ATOM      4  C4  DTQ d          66.241  21.006  23.920  0.00  0.00     0.075 A 
ATOM      5  C5  DTQ d          64.890  21.187  24.181  0.00  0.00     0.042 A 
ATOM      6  C6  DTQ d          64.245  20.259  24.987  0.00  0.00     0.142 A 
ATOM      7  C7  DTQ d          66.901  21.902  23.105  0.00  0.00     0.072 A 
ATOM      8  C8  DTQ d          66.258  22.988  22.548  0.00  0.00     0.103 A 
ATOM      9  C9  DTQ d          64.907  23.151  22.809  0.00  0.00     0.102 A 
ATOM     10  C10 DTQ d          64.220  22.252  23.610  0.00  0.00     0.057 A 
ENDROOT
BRANCH   6  11
ATOM     11  N12 DTQ d          62.868  20.417  25.258  0.00  0.00    -0.340 N 
ATOM     12  H4  DTQ d          62.392  21.235  24.851  0.00  0.00     0.167 HD
BRANCH  11  13
ATOM     13  C14 DTQ d          62.097  19.537  26.045  0.00  0.00     0.036 A 
ATOM     14  C15 DTQ d          61.073  20.089  26.779  0.00  0.00     0.066 A 
ATOM     15  C16 DTQ d          60.282  19.282  27.562  0.00  0.00     0.067 A 
ATOM     16  C17 DTQ d          60.459  17.915  27.633  0.00  0.00     0.036 A 
ATOM     17  C18 DTQ d          61.485  17.359  26.891  0.00  0.00     0.005 A 
ATOM     18  C19 DTQ d          62.284  18.166  26.104  0.00  0.00     0.029 A 
BRANCH  15  19
ATOM     19  O21 DTQ d          59.270  19.887  28.249  0.00  0.00    -0.361 OA
ATOM     20  H9  DTQ d          59.295  20.823  28.088  0.00  0.00     0.217 HD
ENDBRANCH  15  19
ENDBRANCH  11  13
ENDBRANCH   6  11
BRANCH   9  21
ATOM     21  O31 DTQ d          64.226  24.201  22.203  0.00  0.00    -0.353 OA
ATOM     22  C32 DTQ d          63.482  24.922  23.196  0.00  0.00     0.210 C 
ENDBRANCH   9  21
BRANCH   8  23
ATOM     23  O26 DTQ d          66.903  23.928  21.719  0.00  0.00    -0.353 OA
ATOM     24  C27 DTQ d          68.322  23.816  21.677  0.00  0.00     0.210 C 
ENDBRANCH   8  23
TORSDOF 5
