REMARK  6 active torsions:
REMARK  status: ('A' for Active; 'I' for Inactive)
REMARK    1  A    between atoms: C6_17  and  O2_2 
REMARK    2  A    between atoms: C7_18  and  O3_3 
REMARK    3  A    between atoms: O3_3  and  C24_35 
REMARK    4  A    between atoms: C11_22  and  O5_5 
REMARK    5  A    between atoms: C12_23  and  O6_6 
REMARK    6  A    between atoms: C17_28  and  O7_7 
REMARK       I    between atoms: C24_35  and  N2_11 
ROOT
ATOM      1  O1  GDM d          38.435 -50.989  68.147  0.00  0.00    -0.268 OA
ATOM      2  O8  GDM d          40.642 -44.516  69.253  0.00  0.00    -0.285 OA
ATOM      3  O9  GDM d          42.112 -49.448  68.120  0.00  0.00    -0.285 OA
ATOM      4  N1  GDM d          39.589 -49.161  68.817  0.00  0.00    -0.320 N 
ATOM      5  C1  GDM d          39.217 -50.118  67.848  0.00  0.00     0.251 C 
ATOM      6  C2  GDM d          39.878 -50.073  66.504  0.00  0.00     0.006 C 
ATOM      7  C3  GDM d          39.713 -48.980  65.714  0.00  0.00     0.012 C 
ATOM      8  C4  GDM d          40.293 -48.799  64.387  0.00  0.00    -0.001 C 
ATOM      9  C5  GDM d          39.856 -47.939  63.444  0.00  0.00     0.008 C 
ATOM     10  C6  GDM d          38.709 -46.995  63.529  0.00  0.00     0.177 C 
ATOM     11  C7  GDM d          39.111 -45.501  63.147  0.00  0.00     0.194 C 
ATOM     12  C8  GDM d          40.274 -44.880  64.112  0.00  0.00    -0.055 C 
ATOM     13  C9  GDM d          41.406 -44.432  63.592  0.00  0.00    -0.015 C 
ATOM     14  C10 GDM d          42.567 -43.787  64.288  0.00  0.00     0.035 C 
ATOM     15  C11 GDM d          43.932 -44.337  63.843  0.00  0.00     0.154 C 
ATOM     16  C12 GDM d          44.143 -45.789  64.274  0.00  0.00     0.150 C 
ATOM     17  C13 GDM d          44.198 -45.976  65.787  0.00  0.00     0.039 C 
ATOM     18  C14 GDM d          44.363 -47.432  66.283  0.00  0.00    -0.012 C 
ATOM     19  C15 GDM d          44.162 -47.582  67.831  0.00  0.00     0.050 C 
ATOM     20  C16 GDM d          42.782 -47.190  68.272  0.00  0.00     0.032 A 
ATOM     21  C17 GDM d          42.359 -45.958  68.576  0.00  0.00     0.128 A 
ATOM     22  C18 GDM d          40.973 -45.667  68.987  0.00  0.00     0.208 A 
ATOM     23  C19 GDM d          40.001 -46.762  69.066  0.00  0.00     0.091 A 
ATOM     24  C20 GDM d          40.371 -48.009  68.782  0.00  0.00     0.090 A 
ATOM     25  C21 GDM d          41.783 -48.291  68.373  0.00  0.00     0.207 A 
ATOM     26  C22 GDM d          40.664 -51.289  66.124  0.00  0.00     0.054 C 
ATOM     27  C25 GDM d          39.940 -44.815  65.604  0.00  0.00     0.046 C 
ATOM     28  C26 GDM d          42.479 -42.276  63.978  0.00  0.00     0.017 C 
ATOM     29  C28 GDM d          43.452 -48.342  65.511  0.00  0.00     0.010 C 
ATOM     30  H2  GDM d          39.210 -49.351  69.723  0.00  0.00     0.169 HD
ENDROOT
BRANCH  11  31
ATOM     31  O3  GDM d          37.968 -44.717  63.248  0.00  0.00    -0.291 OA
BRANCH  31  32
ATOM     32  C24 GDM d          37.970 -43.672  62.356  0.00  0.00     0.359 C 
ATOM     33  O4  GDM d          38.937 -43.256  61.763  0.00  0.00    -0.239 OA
ATOM     34  N2  GDM d          36.729 -43.186  62.247  0.00  0.00    -0.346 N 
ATOM     35  H3  GDM d          36.545 -42.416  61.636  0.00  0.00     0.161 HD
ATOM     36  H4  GDM d          35.985 -43.592  62.777  0.00  0.00     0.161 HD
ENDBRANCH  31  32
ENDBRANCH  11  31
BRANCH  10  37
ATOM     37  O2  GDM d          37.589 -47.387  62.638  0.00  0.00    -0.384 OA
ATOM     38  C23 GDM d          37.854 -48.536  61.758  0.00  0.00     0.202 C 
ENDBRANCH  10  37
BRANCH  15  39
ATOM     39  O5  GDM d          44.943 -43.478  64.421  0.00  0.00    -0.392 OA
ATOM     40  H1  GDM d          45.804 -43.788  64.166  0.00  0.00     0.210 HD
ENDBRANCH  15  39
BRANCH  16  41
ATOM     41  O6  GDM d          45.405 -46.265  63.758  0.00  0.00    -0.388 OA
ATOM     42  C27 GDM d          45.400 -46.454  62.308  0.00  0.00     0.202 C 
ENDBRANCH  16  41
BRANCH  21  43
ATOM     43  O7  GDM d          43.245 -44.819  68.520  0.00  0.00    -0.351 OA
ATOM     44  C29 GDM d          44.622 -44.825  68.924  0.00  0.00     0.210 C 
ENDBRANCH  21  43
TORSDOF 6
