REMARK  13 active torsions:
REMARK  status: ('A' for Active; 'I' for Inactive)
REMARK    1  A    between atoms: C25_2  and  C23_5 
REMARK    2  A    between atoms: C22_7  and  C21_8 
REMARK       I    between atoms: C21_8  and  N20_10 
REMARK    3  A    between atoms: N20_10  and  C19_11 
REMARK    4  A    between atoms: C19_11  and  C32_12 
REMARK    5  A    between atoms: C19_11  and  C17_19 
REMARK    6  A    between atoms: C32_12  and  C38_13 
REMARK    7  A    between atoms: C17_19  and  O18_20 
REMARK    8  A    between atoms: C17_19  and  C16_21 
REMARK    9  A    between atoms: C16_21  and  N11_22 
REMARK   10  A    between atoms: N11_22  and  S8_23 
REMARK   11  A    between atoms: N11_22  and  C12_35 
REMARK   12  A    between atoms: S8_23  and  C5_26 
REMARK   13  A    between atoms: C12_35  and  C15_36 
ROOT
ATOM      1  C17 MZ2 d          20.008  29.874  16.029  0.00  0.00     0.159 C 
ENDROOT
BRANCH   1   2
ATOM      2  C19 MZ2 d          19.811  29.540  14.545  0.00  0.00     0.119 C 
BRANCH   2   3
ATOM      3  N20 MZ2 d          21.030  28.844  14.127  0.00  0.00    -0.350 N 
ATOM      4  C21 MZ2 d          21.727  29.107  13.006  0.00  0.00     0.242 C 
ATOM      5  O22 MZ2 d          21.402  29.961  12.201  0.00  0.00    -0.269 OA
ATOM      6  H5  MZ2 d          21.371  28.116  14.721  0.00  0.00     0.163 HD
BRANCH   4   7
ATOM      7  C22 MZ2 d          22.911  28.223  12.758  0.00  0.00     0.085 C 
ATOM      8  C23 MZ2 d          23.521  28.008  11.582  0.00  0.00     0.027 C 
ATOM      9  C24 MZ2 d          23.227  28.749  10.301  0.00  0.00     0.053 C 
BRANCH   8  10
ATOM     10  C25 MZ2 d          24.657  27.011  11.560  0.00  0.00     0.413 C 
ATOM     11  F26 MZ2 d          25.262  26.929  12.740  0.00  0.00    -0.166 F 
ATOM     12  F28 MZ2 d          25.547  27.436  10.682  0.00  0.00    -0.166 F 
ATOM     13  F27 MZ2 d          24.244  25.794  11.219  0.00  0.00    -0.166 F 
ENDBRANCH   8  10
ENDBRANCH   4   7
ENDBRANCH   2   3
BRANCH   2  14
ATOM     14  C32 MZ2 d          18.631  28.581  14.308  0.00  0.00     0.066 C 
BRANCH  14  15
ATOM     15  C38 MZ2 d          18.398  28.329  12.815  0.00  0.00    -0.056 A 
ATOM     16  C37 MZ2 d          17.695  29.248  12.044  0.00  0.00     0.007 A 
ATOM     17  C36 MZ2 d          17.484  29.018  10.687  0.00  0.00     0.001 A 
ATOM     18  C35 MZ2 d          17.971  27.864  10.088  0.00  0.00     0.000 A 
ATOM     19  C34 MZ2 d          18.669  26.940  10.853  0.00  0.00     0.001 A 
ATOM     20  C33 MZ2 d          18.884  27.173  12.214  0.00  0.00     0.007 A 
ENDBRANCH  14  15
ENDBRANCH   2  14
ENDBRANCH   1   2
BRANCH   1  21
ATOM     21  O18 MZ2 d          19.990  28.669  16.820  0.00  0.00    -0.392 OA
ATOM     22  H15 MZ2 d          20.113  28.891  17.735  0.00  0.00     0.210 HD
ENDBRANCH   1  21
BRANCH   1  23
ATOM     23  C16 MZ2 d          18.948  30.863  16.556  0.00  0.00     0.169 C 
BRANCH  23  24
ATOM     24  N11 MZ2 d          19.251  32.174  15.931  0.00  0.00    -0.299 N 
BRANCH  24  25
ATOM     25  S8  MZ2 d          18.043  32.825  15.054  0.00  0.00     0.264 S 
ATOM     26  O9  MZ2 d          18.668  33.615  14.043  0.00  0.00    -0.200 OA
ATOM     27  O10 MZ2 d          17.313  31.757  14.425  0.00  0.00    -0.200 OA
BRANCH  25  28
ATOM     28  C5  MZ2 d          17.000  33.731  15.927  0.00  0.00     0.121 A 
ATOM     29  C6  MZ2 d          17.096  35.123  15.918  0.00  0.00     0.074 A 
ATOM     30  C7  MZ2 d          16.217  35.929  16.652  0.00  0.00     0.156 A 
ATOM     31  F1  MZ2 d          16.327  37.268  16.640  0.00  0.00    -0.203 F 
ATOM     32  C2  MZ2 d          15.219  35.362  17.425  0.00  0.00     0.157 A 
ATOM     33  C3  MZ2 d          15.103  33.973  17.462  0.00  0.00     0.089 A 
ATOM     34  F2  MZ2 d          14.392  36.172  18.126  0.00  0.00    -0.203 F 
ATOM     35  C4  MZ2 d          15.985  33.170  16.719  0.00  0.00     0.142 A 
ATOM     36  F3  MZ2 d          15.833  31.839  16.786  0.00  0.00    -0.204 F 
ENDBRANCH  25  28
ENDBRANCH  24  25
BRANCH  24  37
ATOM     37  C12 MZ2 d          20.022  33.122  16.787  0.00  0.00     0.181 C 
BRANCH  37  38
ATOM     38  C15 MZ2 d          21.475  33.102  16.294  0.00  0.00     0.001 A 
ATOM     39  C18 MZ2 d          22.531  33.158  17.140  0.00  0.00     0.017 A 
ATOM     40  C14 MZ2 d          23.733  33.070  16.380  0.00  0.00     0.008 A 
ATOM     41  C13 MZ2 d          23.501  32.967  15.060  0.00  0.00     0.050 A 
ATOM     42  S1  MZ2 d          21.883  32.983  14.661  0.00  0.00    -0.105 SA
ENDBRANCH  37  38
ENDBRANCH  24  37
ENDBRANCH  23  24
ENDBRANCH   1  23
TORSDOF 13
