REMARK  7 active torsions:
REMARK  status: ('A' for Active; 'I' for Inactive)
REMARK    1  A    between atoms: N_1  and  CA_2 
REMARK    2  A    between atoms: CA_2  and  C_3 
REMARK    3  A    between atoms: CA_2  and  CB_5 
REMARK    4  A    between atoms: CB_5  and  CG_6 
REMARK    5  A    between atoms: CG_6  and  CD_7 
REMARK    6  A    between atoms: CD_7  and  CE_8 
REMARK    7  A    between atoms: CE_8  and  NZ_9 
ROOT
ATOM      1  CA  LYS d          18.729  57.446  46.982  0.00  0.00     0.283 C 
ENDROOT
BRANCH   1   2
ATOM      2  N   LYS d          18.663  58.231  45.771  0.00  0.00    -0.065 N 
ATOM      3  H1  LYS d          19.042  57.698  45.004  0.00  0.00     0.275 HD
ATOM      4  H2  LYS d          19.198  59.077  45.889  0.00  0.00     0.275 HD
ATOM      5  H3  LYS d          17.703  58.465  45.575  0.00  0.00     0.275 HD
ENDBRANCH   1   2
BRANCH   1   6
ATOM      6  C   LYS d          18.141  58.287  48.141  0.00  0.00     0.204 C 
ATOM      7  O   LYS d          18.040  57.797  49.267  0.00  0.00    -0.646 OA
ATOM      8  OXT LYS d          17.791  59.453  47.900  0.00  0.00    -0.646 OA
ENDBRANCH   1   6
BRANCH   1   9
ATOM      9  CB  LYS d          20.183  57.087  47.258  0.00  0.00     0.044 C 
BRANCH   9  10
ATOM     10  CG  LYS d          21.160  58.248  47.238  0.00  0.00     0.004 C 
BRANCH  10  11
ATOM     11  CD  LYS d          22.442  57.774  47.856  0.00  0.00     0.027 C 
BRANCH  11  12
ATOM     12  CE  LYS d          23.521  58.814  47.667  0.00  0.00     0.229 C 
BRANCH  12  13
ATOM     13  NZ  LYS d          24.756  58.442  48.359  0.00  0.00    -0.079 N 
ATOM     14  H13 LYS d          25.452  59.156  48.212  0.00  0.00     0.274 HD
ATOM     15  H14 LYS d          25.093  57.564  47.996  0.00  0.00     0.274 HD
ATOM     16  H15 LYS d          24.573  58.349  49.346  0.00  0.00     0.274 HD
ENDBRANCH  12  13
ENDBRANCH  11  12
ENDBRANCH  10  11
ENDBRANCH   9  10
ENDBRANCH   1   9
TORSDOF 7
