REMARK  8 active torsions:
REMARK  status: ('A' for Active; 'I' for Inactive)
REMARK    1  A    between atoms: C6'_21  and  P_1 
REMARK    2  A    between atoms: C1'_12  and  C9_11 
REMARK    3  A    between atoms: N4'_19  and  C1'_12 
REMARK    4  A    between atoms: C3'_15  and  O3'_16 
REMARK    5  A    between atoms: C4'_18  and  C3'_15 
REMARK    6  A    between atoms: C4'_18  and  N4'_19 
REMARK    7  A    between atoms: C5'_20  and  C4'_18 
REMARK    8  A    between atoms: C5'_20  and  C6'_21 
ROOT
ATOM      1  C1' SSI d          62.807  34.917  76.088  0.00  0.00     0.275 C 
ENDROOT
BRANCH   1   2
ATOM      2  C9  SSI d          63.917  35.730  76.740  0.00  0.00     0.014 A 
ATOM      3  C4  SSI d          63.947  36.289  78.110  0.00  0.00     0.099 A 
ATOM      4  N3  SSI d          63.016  36.247  79.090  0.00  0.00    -0.241 NA
ATOM      5  C5  SSI d          65.246  36.946  78.282  0.00  0.00     0.130 A 
ATOM      6  C2  SSI d          63.306  36.834  80.254  0.00  0.00     0.210 A 
ATOM      7  N1  SSI d          64.474  37.454  80.488  0.00  0.00    -0.316 N 
ATOM      8  C6  SSI d          65.475  37.564  79.604  0.00  0.00     0.275 A 
ATOM      9  H1  SSI d          64.607  37.865  81.390  0.00  0.00     0.170 HD
ATOM     10  O6  SSI d          66.566  38.162  79.878  0.00  0.00    -0.266 OA
ATOM     11  N7  SSI d          65.920  36.807  77.128  0.00  0.00    -0.359 N 
ATOM     12  C8  SSI d          65.168  36.089  76.231  0.00  0.00     0.099 A 
ATOM     13  H3  SSI d          66.861  37.183  76.944  0.00  0.00     0.165 HD
ENDBRANCH   1   2
BRANCH   1  14
ATOM     14  N4' SSI d          61.948  35.607  75.149  0.00  0.00    -0.065 N 
ATOM     15  H11 SSI d          61.407  36.258  75.697  0.00  0.00     0.278 HD
ATOM     16  H12 SSI d          61.337  34.903  74.765  0.00  0.00     0.278 HD
BRANCH  14  17
ATOM     17  C4' SSI d          62.448  36.367  74.006  0.00  0.00     0.210 C 
BRANCH  17  18
ATOM     18  C3' SSI d          61.272  36.651  73.079  0.00  0.00     0.197 C 
BRANCH  18  19
ATOM     19  O3' SSI d          60.108  37.079  73.807  0.00  0.00    -0.399 OA
ATOM     20  H9  SSI d          59.398  37.246  73.198  0.00  0.00     0.209 HD
ENDBRANCH  18  19
ENDBRANCH  17  18
BRANCH  17  21
ATOM     21  C5' SSI d          63.553  35.634  73.226  0.00  0.00     0.048 C 
BRANCH  21  22
ATOM     22  C6' SSI d          64.302  36.582  72.280  0.00  0.00     0.148 C 
BRANCH  22  23
ATOM     23  P   SSI d          65.726  35.783  71.469  0.00  0.00     0.259 P 
ATOM     24  O1P SSI d          65.100  34.666  70.643  0.00  0.00    -0.640 OA
ATOM     25  O2P SSI d          66.368  36.881  70.670  0.00  0.00    -0.640 OA
ATOM     26  O3P SSI d          66.605  35.345  72.609  0.00  0.00    -0.640 OA
ENDBRANCH  22  23
ENDBRANCH  21  22
ENDBRANCH  17  21
ENDBRANCH  14  17
ENDBRANCH   1  14
TORSDOF 8
