REMARK  9 active torsions:
REMARK  status: ('A' for Active; 'I' for Inactive)
REMARK    1  A    between atoms: C4_4  and  O4_5 
REMARK    2  A    between atoms: C8_10  and  O8_11 
REMARK    3  A    between atoms: C10_13  and  O10_14 
REMARK    4  A    between atoms: O10_14  and  C1'_30 
REMARK    5  A    between atoms: C12_16  and  O12_17 
REMARK    6  A    between atoms: C12_16  and  C13_18 
REMARK    7  A    between atoms: C17_23  and  O17_24 
REMARK    8  A    between atoms: C3'_32  and  N3'_33 
REMARK    9  A    between atoms: C4'_34  and  O4'_35 
ROOT
ATOM      1  C1  DM1 d          25.477  39.168  47.947  0.00  0.00     0.017 A 
ATOM      2  C2  DM1 d          26.112  38.790  46.773  0.00  0.00     0.004 A 
ATOM      3  C3  DM1 d          25.447  38.030  45.825  0.00  0.00     0.038 A 
ATOM      4  C4  DM1 d          24.129  37.636  46.042  0.00  0.00     0.083 A 
ATOM      5  C5  DM1 d          23.477  38.019  47.235  0.00  0.00     0.062 A 
ATOM      6  C6  DM1 d          22.156  37.638  47.475  0.00  0.00     0.200 A 
ATOM      7  O6  DM1 d          21.554  36.962  46.639  0.00  0.00    -0.286 OA
ATOM      8  C7  DM1 d          21.513  38.021  48.664  0.00  0.00     0.066 A 
ATOM      9  C8  DM1 d          20.191  37.630  48.885  0.00  0.00     0.090 A 
ATOM     10  C9  DM1 d          19.483  38.026  50.145  0.00  0.00     0.014 A 
ATOM     11  C10 DM1 d          18.068  37.612  50.398  0.00  0.00     0.164 C 
ATOM     12  C11 DM1 d          17.974  37.106  51.835  0.00  0.00     0.078 C 
ATOM     13  C12 DM1 d          18.520  38.078  52.900  0.00  0.00     0.101 C 
ATOM     14  C15 DM1 d          19.440  39.186  52.357  0.00  0.00     0.083 C 
ATOM     15  C16 DM1 d          20.145  38.776  51.083  0.00  0.00    -0.009 A 
ATOM     16  C17 DM1 d          21.567  39.186  50.820  0.00  0.00     0.088 A 
ATOM     17  C18 DM1 d          22.200  38.795  49.622  0.00  0.00     0.066 A 
ATOM     18  C19 DM1 d          23.526  39.178  49.380  0.00  0.00     0.197 A 
ATOM     19  O19 DM1 d          24.139  39.861  50.222  0.00  0.00    -0.286 OA
ATOM     20  C20 DM1 d          24.162  38.788  48.185  0.00  0.00     0.032 A 
ENDROOT
BRANCH  11  21
ATOM     21  O10 DM1 d          17.738  36.539  49.533  0.00  0.00    -0.351 OA
BRANCH  21  22
ATOM     22  C1' DM1 d          16.344  36.424  49.297  0.00  0.00     0.263 C 
ATOM     23  C2' DM1 d          16.104  35.890  47.876  0.00  0.00     0.096 C 
ATOM     24  C3' DM1 d          16.581  34.436  47.726  0.00  0.00     0.219 C 
ATOM     25  C4' DM1 d          16.103  33.548  48.894  0.00  0.00     0.177 C 
ATOM     26  C5' DM1 d          16.329  34.240  50.255  0.00  0.00     0.151 C 
ATOM     27  O5' DM1 d          15.746  35.544  50.253  0.00  0.00    -0.354 OA
ATOM     28  C6' DM1 d          15.757  33.421  51.411  0.00  0.00     0.042 C 
BRANCH  24  29
ATOM     29  N3' DM1 d          16.108  33.894  46.461  0.00  0.00    -0.072 N 
ATOM     30  H22 DM1 d          16.422  32.941  46.365  0.00  0.00     0.274 HD
ATOM     31  H23 DM1 d          16.474  34.446  45.701  0.00  0.00     0.274 HD
ATOM     32  H24 DM1 d          15.101  33.919  46.440  0.00  0.00     0.274 HD
ENDBRANCH  24  29
BRANCH  25  33
ATOM     33  O4' DM1 d          14.732  33.213  48.730  0.00  0.00    -0.391 OA
ATOM     34  H26 DM1 d          14.452  32.667  49.455  0.00  0.00     0.210 HD
ENDBRANCH  25  33
ENDBRANCH  21  22
ENDBRANCH  11  21
BRANCH   9  35
ATOM     35  O8  DM1 d          19.539  36.881  47.949  0.00  0.00    -0.359 OA
ATOM     36  H4  DM1 d          18.656  36.701  48.249  0.00  0.00     0.217 HD
ENDBRANCH   9  35
BRANCH  13  37
ATOM     37  O12 DM1 d          19.280  37.299  53.851  0.00  0.00    -0.386 OA
ATOM     38  H8  DM1 d          19.630  37.874  54.522  0.00  0.00     0.210 HD
ENDBRANCH  13  37
BRANCH  13  39
ATOM     39  C13 DM1 d          17.330  38.721  53.629  0.00  0.00     0.160 C 
ATOM     40  O13 DM1 d          16.123  38.631  53.108  0.00  0.00    -0.222 OA
ATOM     41  C14 DM1 d          17.573  39.441  54.931  0.00  0.00     0.056 C 
ENDBRANCH  13  39
BRANCH  16  42
ATOM     42  O17 DM1 d          22.251  39.943  51.748  0.00  0.00    -0.359 OA
ATOM     43  H14 DM1 d          23.130  40.114  51.430  0.00  0.00     0.217 HD
ENDBRANCH  16  42
BRANCH   4  44
ATOM     44  O4  DM1 d          23.540  36.954  45.186  0.00  0.00    -0.355 OA
ATOM     45  C21 DM1 d          24.272  36.156  44.280  0.00  0.00     0.210 C 
ENDBRANCH   4  44
TORSDOF 9
