REMARK  16 active torsions:
REMARK  status: ('A' for Active; 'I' for Inactive)
REMARK    1  A    between atoms: C4_1  and  C14_2 
REMARK    2  A    between atoms: C25_7  and  C4_1 
REMARK    3  A    between atoms: C14_2  and  C1_27 
REMARK    4  A    between atoms: N2_4  and  N1_3 
REMARK       I    between atoms: N1_3  and  C25_7 
REMARK    5  A    between atoms: N1_3  and  C27_19 
REMARK       I    between atoms: C42_8  and  N2_4 
REMARK       I    between atoms: C38_11  and  N3_5 
REMARK    6  A    between atoms: N3_5  and  C41_13 
REMARK    7  A    between atoms: C41_13  and  C42_8 
REMARK    8  A    between atoms: O37_10  and  C38_11 
REMARK    9  A    between atoms: C41_13  and  C35_14 
REMARK   10  A    between atoms: C27_19  and  C28_20 
REMARK   11  A    between atoms: C1_27  and  O22_28 
REMARK   12  A    between atoms: C1_27  and  C15_29 
REMARK   13  A    between atoms: C1_27  and  C2_36 
REMARK   14  A    between atoms: C15_29  and  C16_30 
REMARK       I    between atoms: C2_36  and  N4_38 
REMARK   15  A    between atoms: N4_38  and  C5_39 
REMARK   16  A    between atoms: C13_47  and  O14_48 
ROOT
ATOM      1  C4  HV1 d          13.678  24.335   4.970  0.00  0.00     0.102 C 
ENDROOT
BRANCH   1   2
ATOM      2  C14 HV1 d          13.795  23.828   6.418  0.00  0.00     0.057 C 
BRANCH   2   3
ATOM      3  C1  HV1 d          14.937  22.786   6.608  0.00  0.00     0.142 C 
BRANCH   3   4
ATOM      4  O22 HV1 d          16.112  23.454   6.061  0.00  0.00    -0.380 OA
ATOM      5  H26 HV1 d          16.865  22.880   6.138  0.00  0.00     0.211 HD
ENDBRANCH   3   4
BRANCH   3   6
ATOM      6  C15 HV1 d          15.081  22.665   8.139  0.00  0.00     0.086 C 
BRANCH   6   7
ATOM      7  C16 HV1 d          16.160  21.721   8.631  0.00  0.00    -0.055 A 
ATOM      8  C17 HV1 d          15.750  20.591   9.394  0.00  0.00     0.007 A 
ATOM      9  C18 HV1 d          16.734  19.706   9.848  0.00  0.00     0.001 A 
ATOM     10  C19 HV1 d          18.076  19.952   9.544  0.00  0.00     0.000 A 
ATOM     11  C20 HV1 d          18.500  21.069   8.791  0.00  0.00     0.001 A 
ATOM     12  C21 HV1 d          17.525  21.968   8.327  0.00  0.00     0.007 A 
ENDBRANCH   6   7
ENDBRANCH   3   6
BRANCH   3  13
ATOM     13  C2  HV1 d          14.732  21.310   6.066  0.00  0.00     0.253 C 
ATOM     14  O3  HV1 d          13.797  20.531   6.302  0.00  0.00    -0.270 OA
ATOM     15  N4  HV1 d          15.885  20.926   5.429  0.00  0.00    -0.347 N 
ATOM     16  H34 HV1 d          16.599  21.600   5.240  0.00  0.00     0.163 HD
BRANCH  15  17
ATOM     17  C5  HV1 d          16.078  19.482   5.011  0.00  0.00     0.147 C 
ATOM     18  C6  HV1 d          15.842  19.164   3.590  0.00  0.00    -0.027 A 
ATOM     19  C7  HV1 d          14.858  19.688   2.632  0.00  0.00     0.010 A 
ATOM     20  C11 HV1 d          16.810  18.160   3.227  0.00  0.00    -0.047 A 
ATOM     21  C8  HV1 d          14.886  19.154   1.262  0.00  0.00     0.001 A 
ATOM     22  C9  HV1 d          15.877  18.130   0.888  0.00  0.00     0.001 A 
ATOM     23  C10 HV1 d          16.852  17.620   1.870  0.00  0.00     0.008 A 
ATOM     24  C12 HV1 d          17.696  17.807   4.429  0.00  0.00     0.073 C 
ATOM     25  C13 HV1 d          17.511  19.022   5.379  0.00  0.00     0.149 C 
BRANCH  25  26
ATOM     26  O14 HV1 d          18.539  19.964   5.014  0.00  0.00    -0.393 OA
ATOM     27  H43 HV1 d          18.473  20.733   5.567  0.00  0.00     0.210 HD
ENDBRANCH  25  26
ENDBRANCH  15  17
ENDBRANCH   3  13
ENDBRANCH   2   3
ENDBRANCH   1   2
BRANCH   1  28
ATOM     28  C25 HV1 d          12.640  23.562   4.227  0.00  0.00     0.217 C 
ATOM     29  N1  HV1 d          11.283  23.687   4.521  0.00  0.00    -0.158 NA
ATOM     30  O50 HV1 d          13.147  22.801   3.369  0.00  0.00    -0.278 OA
BRANCH  29  31
ATOM     31  N2  HV1 d          10.722  24.746   5.070  0.00  0.00    -0.280 N 
ATOM     32  C42 HV1 d          10.050  24.535   6.214  0.00  0.00     0.256 C 
ATOM     33  O44 HV1 d           9.961  23.397   6.718  0.00  0.00    -0.270 OA
ATOM     34  H5  HV1 d          10.793  25.655   4.658  0.00  0.00     0.184 HD
BRANCH  32  35
ATOM     35  C41 HV1 d           9.461  25.777   6.763  0.00  0.00     0.187 C 
BRANCH  35  36
ATOM     36  N3  HV1 d           8.052  25.858   6.323  0.00  0.00    -0.323 N 
ATOM     37  C38 HV1 d           7.598  26.800   5.499  0.00  0.00     0.360 C 
ATOM     38  O39 HV1 d           8.243  27.718   4.993  0.00  0.00    -0.239 OA
ATOM     39  H6  HV1 d           7.408  25.171   6.661  0.00  0.00     0.165 HD
BRANCH  37  40
ATOM     40  O37 HV1 d           6.219  26.585   5.281  0.00  0.00    -0.309 OA
ATOM     41  C36 HV1 d           5.276  27.469   5.916  0.00  0.00     0.215 C 
ENDBRANCH  37  40
ENDBRANCH  35  36
BRANCH  35  42
ATOM     42  C35 HV1 d           9.388  25.932   8.351  0.00  0.00    -0.022 C 
ATOM     43  C47 HV1 d           8.549  24.860   9.098  0.00  0.00     0.017 C 
ATOM     44  C46 HV1 d          10.808  25.886   8.891  0.00  0.00     0.017 C 
ATOM     45  C45 HV1 d           8.762  27.296   8.769  0.00  0.00     0.017 C 
ENDBRANCH  35  42
ENDBRANCH  32  35
ENDBRANCH  29  31
BRANCH  29  46
ATOM     46  C27 HV1 d          10.669  23.174   3.259  0.00  0.00     0.161 C 
BRANCH  46  47
ATOM     47  C28 HV1 d           9.446  23.826   2.738  0.00  0.00    -0.043 A 
ATOM     48  C29 HV1 d           8.154  23.390   3.100  0.00  0.00     0.010 A 
ATOM     49  C30 HV1 d           7.039  24.045   2.563  0.00  0.00     0.019 A 
ATOM     50  C31 HV1 d           7.245  25.117   1.676  0.00  0.00     0.011 A 
ATOM     51 BR   HV1 d           5.882  26.105   0.842  0.00  0.00    -0.051 Br
ATOM     52  C32 HV1 d           8.565  25.517   1.347  0.00  0.00     0.019 A 
ATOM     53  C33 HV1 d           9.663  24.867   1.882  0.00  0.00     0.010 A 
ENDBRANCH  46  47
ENDBRANCH  29  46
ENDBRANCH   1  28
TORSDOF 16
