REMARK  14 active torsions:
REMARK  status: ('A' for Active; 'I' for Inactive)
REMARK    1  A    between atoms: S_1  and  C4_8 
REMARK    2  A    between atoms: S_1  and  N1_4 
REMARK    3  A    between atoms: C1_5  and  C7_11 
REMARK       I    between atoms: C7_11  and  N2_13 
REMARK    4  A    between atoms: N2_13  and  C8_14 
REMARK    5  A    between atoms: C8_14  and  C9_15 
REMARK    6  A    between atoms: C9_15  and  O4_16 
REMARK    7  A    between atoms: O4_16  and  C10_17 
REMARK    8  A    between atoms: C10_17  and  C11_18 
REMARK    9  A    between atoms: C11_18  and  O5_19 
REMARK   10  A    between atoms: O5_19  and  C12_20 
REMARK   11  A    between atoms: C12_20  and  C13_21 
REMARK   12  A    between atoms: C13_21  and  N3_22 
REMARK       I    between atoms: N3_22  and  C14_23 
REMARK   13  A    between atoms: C14_23  and  C15_25 
REMARK   14  A    between atoms: C15_25  and  N4_26 
ROOT
ATOM      1  C8  EG1 d          -2.421   6.589  12.574  0.00  0.00     0.149 C 
ENDROOT
BRANCH   1   2
ATOM      2  N2  EG1 d          -3.027   5.546  13.422  0.00  0.00    -0.355 N 
ATOM      3  C7  EG1 d          -4.247   5.546  13.846  0.00  0.00     0.251 C 
ATOM      4  O3  EG1 d          -4.942   6.505  13.563  0.00  0.00    -0.268 OA
ATOM      5  H7  EG1 d          -2.447   4.777  13.690  0.00  0.00     0.162 HD
BRANCH   3   6
ATOM      6  C1  EG1 d          -4.663   4.420  14.623  0.00  0.00     0.032 A 
ATOM      7  C2  EG1 d          -3.755   3.336  14.906  0.00  0.00     0.018 A 
ATOM      8  C3  EG1 d          -4.213   2.252  15.683  0.00  0.00     0.026 A 
ATOM      9  C4  EG1 d          -5.513   2.252  16.248  0.00  0.00     0.079 A 
ATOM     10  C5  EG1 d          -6.361   3.336  15.895  0.00  0.00     0.026 A 
ATOM     11  C6  EG1 d          -5.945   4.420  15.118  0.00  0.00     0.018 A 
BRANCH   9  12
ATOM     12  S   EG1 d          -6.033   0.959  17.096  0.00  0.00     0.256 S 
ATOM     13  O2  EG1 d          -7.466   1.084  17.025  0.00  0.00    -0.201 OA
ATOM     14  O1  EG1 d          -5.571   0.959  18.438  0.00  0.00    -0.201 OA
BRANCH  12  15
ATOM     15  N1  EG1 d          -5.465  -0.167  16.389  0.00  0.00    -0.324 N 
ATOM     16  H1  EG1 d          -5.636  -1.098  16.712  0.00  0.00     0.169 HD
ATOM     17  H2  EG1 d          -4.901  -0.015  15.577  0.00  0.00     0.169 HD
ENDBRANCH  12  15
ENDBRANCH   9  12
ENDBRANCH   3   6
ENDBRANCH   1   2
BRANCH   1  18
ATOM     18  C9  EG1 d          -2.203   7.923  13.210  0.00  0.00     0.187 C 
BRANCH  18  19
ATOM     19  O4  EG1 d          -1.137   7.798  14.199  0.00  0.00    -0.387 OA
BRANCH  19  20
ATOM     20  C10 EG1 d          -1.431   8.674  15.329  0.00  0.00     0.193 C 
BRANCH  20  21
ATOM     21  C11 EG1 d          -0.997  10.050  14.976  0.00  0.00     0.193 C 
BRANCH  21  22
ATOM     22  O5  EG1 d          -1.597  11.029  15.844  0.00  0.00    -0.387 OA
BRANCH  22  23
ATOM     23  C12 EG1 d          -1.140  12.304  15.408  0.00  0.00     0.187 C 
BRANCH  23  24
ATOM     24  C13 EG1 d           0.111  12.183  14.699  0.00  0.00     0.148 C 
BRANCH  24  25
ATOM     25  N3  EG1 d           0.910  13.375  14.932  0.00  0.00    -0.358 N 
ATOM     26  C14 EG1 d           2.178  13.291  14.226  0.00  0.00     0.243 C 
ATOM     27  O6  EG1 d           2.525  12.227  13.744  0.00  0.00    -0.272 OA
ATOM     28  H20 EG1 d           0.626  14.147  15.500  0.00  0.00     0.162 HD
BRANCH  26  29
ATOM     29  C15 EG1 d           3.013  14.600  14.091  0.00  0.00     0.331 C 
BRANCH  29  30
ATOM     30  N4  EG1 d           2.197  15.669  14.776  0.00  0.00    -0.071 N 
ATOM     31  H23 EG1 d           2.685  16.549  14.724  0.00  0.00     0.274 HD
ATOM     32  H24 EG1 d           2.058  15.418  15.742  0.00  0.00     0.274 HD
ATOM     33  H25 EG1 d           1.302  15.754  14.319  0.00  0.00     0.274 HD
ENDBRANCH  29  30
ENDBRANCH  26  29
ENDBRANCH  24  25
ENDBRANCH  23  24
ENDBRANCH  22  23
ENDBRANCH  21  22
ENDBRANCH  20  21
ENDBRANCH  19  20
ENDBRANCH  18  19
ENDBRANCH   1  18
TORSDOF 14
