2wva_ligand

Created by X-TOOL on Fri Sep 26 17:34:47 2014
 41 42  0  0  0  0  0  0  0  0999 V2000
  -23.7430   33.6630  -76.6170  O 0  0  0  1  0  1
  -23.9240   32.2590  -75.7480  P 0  0  0  1  0  4
  -25.1710   31.3780  -76.3610  O 0  0  0  1  0  1
  -24.1260   32.5150  -74.3080  O 0  0  0  1  0  1
  -22.5770   31.3320  -75.9950  O 0  0  0  1  0  2
  -21.4320   31.1800  -74.8370  P 0  0  0  1  0  4
  -21.7330   32.2080  -73.5530  O 0  0  0  1  0  1
  -20.1610   31.4300  -75.5270  O 0  0  0  1  0  1
  -21.4260   29.6340  -74.3230  O 0  0  0  1  0  2
  -21.7900   28.5780  -75.1410  C 0  0  0  3  0  4
  -22.1240   27.3320  -74.3300  C 0  0  0  3  0  4
  -21.8180   25.9960  -74.9650  C 0  0  0  1  0  3
  -21.3020   24.9120  -74.3550  C 0  0  0  1  0  3
  -20.8970   24.8580  -72.8910  C 0  0  0  4  0  4
  -22.0410   25.6930  -76.3080  N 0  0  0  1  0  2
  -21.6490   24.4370  -76.4920  N 0  0  0  1  0  2
  -21.1780   23.9190  -75.2980  N 0  0  0  1  0  3
  -20.6960   22.5520  -75.1440  C 0  0  0  3  0  4
  -19.2110   22.4280  -75.5010  C 0  0  0  1  0  3
  -18.3700   22.1400  -74.5130  C 0  0  0  2  0  3
  -17.0380   22.0340  -74.7500  N 0  0  0  1  0  2
  -16.5340   22.2040  -76.0390  C 0  0  0  1  0  3
  -15.0270   22.0560  -76.2420  C 0  0  0  4  0  4
  -17.3970   22.4990  -77.0810  N 0  0  0  1  0  2
  -18.6810   22.6210  -76.8580  C 0  0  0  1  0  3
  -19.5750   22.8980  -77.9690  N 0  0  0  3  0  3
  -20.9563   28.3488  -75.8210  H 0  0  0  1  0  1
  -22.6731   28.8691  -75.7287  H 0  0  0  1  0  1
  -23.2021   27.3567  -74.1131  H 0  0  0  1  0  1
  -21.5590   27.3884  -73.3879  H 0  0  0  1  0  1
  -21.1307   25.8194  -72.4103  H 0  0  0  1  0  1
  -19.8169   24.6637  -72.8163  H 0  0  0  1  0  1
  -21.4504   24.0520  -72.3869  H 0  0  0  1  0  1
  -21.2773   21.8929  -75.8056  H 0  0  0  1  0  1
  -20.8380   22.2401  -74.0988  H 0  0  0  1  0  1
  -18.7512   21.9885  -73.5096  H 0  0  0  1  0  1
  -14.5486   21.8226  -75.2794  H 0  0  0  1  0  1
  -14.6161   22.9968  -76.6371  H 0  0  0  1  0  1
  -14.8313   21.2421  -76.9556  H 0  0  0  1  0  1
  -19.1932   23.0317  -78.9163  H 0  0  0  1  0  1
  -20.5906   22.9607  -77.8095  H 0  0  0  1  0  1
  1  2  2  0  0  2
  2  3  2  0  0  2
  2  4  2  0  0  2
  2  5  1  0  0  2
  5  6  1  0  0  2
  6  7  2  0  0  2
  6  8  2  0  0  2
  6  9  1  0  0  2
  9 10  1  0  0  2
 10 11  1  0  0  2
 11 12  1  0  0  2
 12 13  2  0  0  1
 12 15  1  0  0  1
 13 14  1  0  0  2
 13 17  1  0  0  1
 15 16  2  0  0  1
 16 17  1  0  0  1
 17 18  1  0  0  2
 18 19  1  0  0  2
 19 20  4  0  0  1
 19 25  4  0  0  1
 20 21  4  0  0  1
 21 22  4  0  0  1
 22 23  1  0  0  2
 22 24  4  0  0  1
 24 25  4  0  0  1
 25 26  1  0  0  2
 10 27  1  0  0  2
 10 28  1  0  0  2
 11 29  1  0  0  2
 11 30  1  0  0  2
 14 31  1  0  0  2
 14 32  1  0  0  2
 14 33  1  0  0  2
 18 34  1  0  0  2
 18 35  1  0  0  2
 20 36  1  0  0  2
 23 37  1  0  0  2
 23 38  1  0  0  2
 23 39  1  0  0  2
 26 40  1  0  0  2
 26 41  1  0  0  2
M  END
> <MOLECULAR_FORMULA>
C11H15N6O7P2

> <MOLECULAR_WEIGHT>
405.1

> <NUM_HB_ATOMS>
13 

> <NUM_ROTOR>
7  

> <XLOGP2>
-1.70

$$$$
