REMARK  2 active torsions:
REMARK  status: ('A' for Active; 'I' for Inactive)
REMARK    1  A    between atoms: C1_1  and  C2_4 
REMARK    2  A    between atoms: C3_5  and  C4_6 
ROOT
ATOM      1  C2  MAE d          36.705  19.396  -5.314  0.00  0.00     0.091 C 
ATOM      2  C3  MAE d          36.472  18.333  -6.092  0.00  0.00     0.091 C 
ENDROOT
BRANCH   1   3
ATOM      3  C1  MAE d          36.825  19.447  -3.826  0.00  0.00     0.198 C 
ATOM      4  O1  MAE d          36.753  20.578  -3.283  0.00  0.00    -0.645 OA
ATOM      5  O2  MAE d          36.922  18.438  -3.083  0.00  0.00    -0.645 OA
ENDBRANCH   1   3
BRANCH   2   6
ATOM      6  C4  MAE d          36.470  16.922  -5.656  0.00  0.00     0.198 C 
ATOM      7  O3  MAE d          35.552  16.354  -4.995  0.00  0.00    -0.645 OA
ATOM      8  O4  MAE d          37.469  16.272  -6.006  0.00  0.00    -0.645 OA
ENDBRANCH   2   6
TORSDOF 2
