REMARK  13 active torsions:
REMARK  status: ('A' for Active; 'I' for Inactive)
REMARK    1  A    between atoms: C1_3  and  N1_1 
REMARK    2  A    between atoms: C2_4  and  C1_3 
REMARK    3  A    between atoms: N_10  and  C5_7 
REMARK    4  A    between atoms: C_11  and  N_10 
REMARK    5  A    between atoms: C8_13  and  C_11 
REMARK    6  A    between atoms: C16_24  and  C12_19 
REMARK    7  A    between atoms: C16_24  and  C17_25 
REMARK    8  A    between atoms: C17_25  and  C18_28 
REMARK    9  A    between atoms: N4_26  and  OH_33 
REMARK   10  A    between atoms: OH_33  and  C23_34 
REMARK   11  A    between atoms: C23_34  and  C24_35 
REMARK   12  A    between atoms: C24_35  and  O3_37 
REMARK   13  A    between atoms: O3_37  and  C26_39 
ROOT
ATOM      1  N3  T87 d          -3.321   4.279  23.276  0.00  0.00    -0.231 NA
ATOM      2  C8  T87 d          -2.049   3.947  22.809  0.00  0.00     0.124 A 
ATOM      3  N9  T87 d          -0.936   3.954  23.679  0.00  0.00    -0.336 N 
ATOM      4  C3A T87 d          -1.605   4.343  24.840  0.00  0.00     0.064 A 
ATOM      5  C7A T87 d          -3.018   4.535  24.594  0.00  0.00     0.086 A 
ATOM      6  C10 T87 d          -1.078   4.560  26.155  0.00  0.00     0.033 A 
ATOM      7  C11 T87 d          -1.948   4.961  27.181  0.00  0.00     0.011 A 
ATOM      8  C12 T87 d          -3.347   5.154  26.954  0.00  0.00    -0.041 A 
ATOM      9  C13 T87 d          -3.887   4.941  25.656  0.00  0.00     0.042 A 
ATOM     10  C14 T87 d           0.510   3.647  23.449  0.00  0.00     0.158 C 
ENDROOT
BRANCH   8  11
ATOM     11  C16 T87 d          -4.270   5.667  28.112  0.00  0.00     0.036 A 
ATOM     12  C9  T87 d          -5.781   5.603  28.077  0.00  0.00     0.022 A 
ATOM     13  C15 T87 d          -5.030   6.905  27.708  0.00  0.00     0.022 A 
BRANCH  11  14
ATOM     14  C17 T87 d          -3.624   5.241  29.462  0.00  0.00     0.103 C 
ATOM     15  N4  T87 d          -3.773   4.009  29.897  0.00  0.00    -0.135 NA
BRANCH  15  16
ATOM     16  OH  T87 d          -4.571   3.037  29.100  0.00  0.00    -0.246 OA
BRANCH  16  17
ATOM     17  C23 T87 d          -4.600   1.762  29.746  0.00  0.00     0.314 C 
BRANCH  17  18
ATOM     18  C24 T87 d          -5.370   0.767  28.860  0.00  0.00     0.285 C 
ATOM     19  O2  T87 d          -6.052  -0.119  29.396  0.00  0.00    -0.263 OA
BRANCH  18  20
ATOM     20  O3  T87 d          -5.287   0.881  27.487  0.00  0.00    -0.320 OA
BRANCH  20  21
ATOM     21  C26 T87 d          -6.067  -0.129  26.815  0.00  0.00     0.174 C 
ATOM     22  C25 T87 d          -6.281   0.279  25.343  0.00  0.00     0.034 C 
ENDBRANCH  20  21
ENDBRANCH  18  20
ENDBRANCH  17  18
ENDBRANCH  16  17
ENDBRANCH  15  16
BRANCH  14  23
ATOM     23  C18 T87 d          -2.789   6.283  30.273  0.00  0.00     0.084 A 
ATOM     24  C19 T87 d          -2.000   7.241  29.594  0.00  0.00     0.034 A 
ATOM     25  C20 T87 d          -1.242   8.185  30.327  0.00  0.00     0.004 A 
ATOM     26  C21 T87 d          -1.261   8.190  31.745  0.00  0.00     0.019 A 
ATOM     27  C22 T87 d          -2.043   7.242  32.432  0.00  0.00     0.117 A 
ATOM     28  N5  T87 d          -2.806   6.290  31.693  0.00  0.00    -0.259 NA
ENDBRANCH  14  23
ENDBRANCH  11  14
ENDBRANCH   8  11
BRANCH   2  29
ATOM     29  C   T87 d          -1.914   3.581  21.325  0.00  0.00     0.198 C 
BRANCH  29  30
ATOM     30  N   T87 d          -1.462   4.671  20.428  0.00  0.00    -0.383 N 
ATOM     31  H9  T87 d          -0.607   4.482  19.886  0.00  0.00     0.160 HD
BRANCH  30  32
ATOM     32  C5  T87 d          -2.067   5.960  20.219  0.00  0.00     0.028 A 
ATOM     33  C4  T87 d          -3.405   6.226  20.581  0.00  0.00     0.030 A 
ATOM     34  C3  T87 d          -3.960   7.491  20.359  0.00  0.00     0.017 A 
ATOM     35  C2  T87 d          -3.199   8.547  19.767  0.00  0.00     0.007 A 
ATOM     36  C7  T87 d          -1.837   8.244  19.411  0.00  0.00     0.017 A 
ATOM     37  C6  T87 d          -1.286   6.972  19.635  0.00  0.00     0.030 A 
BRANCH  35  38
ATOM     38  C1  T87 d          -3.759   9.811  19.543  0.00  0.00     0.102 C 
ATOM     39  N2  T87 d          -3.109  10.832  19.018  0.00  0.00    -0.385 N 
ATOM     40  H3  T87 d          -2.116  10.733  18.761  0.00  0.00     0.157 HD
ATOM     41  H4  T87 d          -3.594  11.728  18.865  0.00  0.00     0.157 HD
BRANCH  38  42
ATOM     42  N1  T87 d          -5.019  10.131  19.805  0.00  0.00    -0.385 N 
ATOM     43  H1  T87 d          -5.359  11.084  19.613  0.00  0.00     0.157 HD
ATOM     44  H2  T87 d          -5.658   9.427  20.201  0.00  0.00     0.157 HD
ENDBRANCH  38  42
ENDBRANCH  35  38
ENDBRANCH  30  32
ENDBRANCH  29  30
ENDBRANCH   2  29
TORSDOF 13
