REMARK  4 active torsions:
REMARK  status: ('A' for Active; 'I' for Inactive)
REMARK    1  A    between atoms: N_1  and  CA_2 
REMARK    2  A    between atoms: CA_2  and  C_3 
REMARK    3  A    between atoms: CA_2  and  CB_5 
REMARK    4  A    between atoms: CB_5  and  SG_6 
ROOT
ATOM      1  CA  CYS d           7.587   2.869  -1.572  0.00  0.00     0.292 C 
ENDROOT
BRANCH   1   2
ATOM      2  N   CYS d           8.978   2.637  -2.013  0.00  0.00    -0.065 N 
ATOM      3  H1  CYS d           9.121   1.651  -2.169  0.00  0.00     0.275 HD
ATOM      4  H2  CYS d           9.614   2.960  -1.301  0.00  0.00     0.275 HD
ATOM      5  H3  CYS d           9.148   3.141  -2.869  0.00  0.00     0.275 HD
ENDBRANCH   1   2
BRANCH   1   6
ATOM      6  C   CYS d           7.335   4.357  -1.325  0.00  0.00     0.205 C 
ATOM      7  O   CYS d           8.320   5.033  -0.957  0.00  0.00    -0.646 OA
ATOM      8  OXT CYS d           6.170   4.780  -1.464  0.00  0.00    -0.646 OA
ENDBRANCH   1   6
BRANCH   1   9
ATOM      9  CB  CYS d           7.287   2.100  -0.282  0.00  0.00     0.114 C 
BRANCH   9  10
ATOM     10  SG  CYS d           7.423   0.322  -0.448  0.00  0.00    -0.180 SA
ATOM     11  H7  CYS d           7.213  -0.114   0.436  0.00  0.00     0.101 HD
ENDBRANCH   9  10
ENDBRANCH   1   9
TORSDOF 4
