REMARK  16 active torsions:
REMARK  status: ('A' for Active; 'I' for Inactive)
REMARK    1  A    between atoms: C10_13  and  N1_3 
REMARK    2  A    between atoms: C29_37  and  C4_6 
REMARK    3  A    between atoms: C11_14  and  C10_13 
REMARK    4  A    between atoms: C10_13  and  C13_17 
REMARK       I    between atoms: N3_15  and  C11_14 
REMARK    5  A    between atoms: C12_16  and  N3_15 
REMARK    6  A    between atoms: C12_16  and  C22_27 
REMARK    7  A    between atoms: C23_28  and  C12_16 
REMARK    8  A    between atoms: C22_27  and  C20_25 
REMARK    9  A    between atoms: C24_29  and  C23_28 
REMARK   10  A    between atoms: C25_30  and  C24_29 
REMARK   11  A    between atoms: C24_29  and  O4_36 
REMARK   12  A    between atoms: C25_30  and  N4_31 
REMARK   13  A    between atoms: C25_30  and  C29_37 
REMARK       I    between atoms: N4_31  and  C26_32 
REMARK   14  A    between atoms: C26_32  and  C27_33 
REMARK   15  A    between atoms: C27_33  and  O3_34 
REMARK   16  A    between atoms: O3_34  and  C28_35 
ROOT
ATOM      1  C23 AB1 d          12.807 -18.969 -19.504  0.00  0.00     0.059 C 
ENDROOT
BRANCH   1   2
ATOM      2  C12 AB1 d          11.326 -19.237 -19.253  0.00  0.00     0.091 C 
BRANCH   2   3
ATOM      3  N3  AB1 d          10.751 -18.174 -18.379  0.00  0.00    -0.354 N 
ATOM      4  C11 AB1 d          10.035 -18.413 -17.276  0.00  0.00     0.241 C 
ATOM      5  O2  AB1 d           9.779 -19.540 -16.836  0.00  0.00    -0.271 OA
ATOM      6  H12 AB1 d          10.912 -17.221 -18.635  0.00  0.00     0.162 HD
BRANCH   4   7
ATOM      7  C10 AB1 d           9.560 -17.176 -16.572  0.00  0.00     0.184 C 
BRANCH   7   8
ATOM      8  N1  AB1 d           8.137 -16.912 -16.899  0.00  0.00    -0.320 N 
ATOM      9  C2  AB1 d           7.181 -17.906 -16.370  0.00  0.00     0.130 C 
ATOM     10  C37 AB1 d           5.842 -17.203 -16.117  0.00  0.00     0.040 C 
ATOM     11  C1  AB1 d           5.355 -16.494 -17.388  0.00  0.00     0.126 C 
ATOM     12  N2  AB1 d           6.444 -15.713 -17.960  0.00  0.00    -0.343 N 
ATOM     13  C3  AB1 d           7.766 -15.886 -17.700  0.00  0.00     0.319 C 
ATOM     14  H5  AB1 d           6.196 -14.986 -18.600  0.00  0.00     0.164 HD
ATOM     15  O1  AB1 d           8.599 -15.151 -18.207  0.00  0.00    -0.247 OA
ENDBRANCH   7   8
BRANCH   7  16
ATOM     16  C13 AB1 d           9.806 -17.271 -15.049  0.00  0.00     0.010 C 
ATOM     17  C14 AB1 d          11.273 -17.536 -14.711  0.00  0.00     0.012 C 
ATOM     18  C15 AB1 d           9.270 -16.038 -14.296  0.00  0.00     0.012 C 
ENDBRANCH   7  16
ENDBRANCH   4   7
ENDBRANCH   2   3
BRANCH   2  19
ATOM     19  C22 AB1 d          10.617 -19.152 -20.622  0.00  0.00     0.063 C 
BRANCH  19  20
ATOM     20  C20 AB1 d           9.127 -19.319 -20.563  0.00  0.00    -0.056 A 
ATOM     21  C19 AB1 d           8.341 -18.172 -20.572  0.00  0.00     0.007 A 
ATOM     22  C18 AB1 d           6.943 -18.312 -20.520  0.00  0.00     0.001 A 
ATOM     23  C17 AB1 d           6.353 -19.586 -20.444  0.00  0.00     0.000 A 
ATOM     24  C16 AB1 d           7.132 -20.743 -20.472  0.00  0.00     0.001 A 
ATOM     25  C21 AB1 d           8.545 -20.602 -20.519  0.00  0.00     0.007 A 
ENDBRANCH  19  20
ENDBRANCH   2  19
ENDBRANCH   1   2
BRANCH   1  26
ATOM     26  C24 AB1 d          13.699 -18.718 -18.288  0.00  0.00     0.143 C 
BRANCH  26  27
ATOM     27  C25 AB1 d          13.877 -19.923 -17.383  0.00  0.00     0.117 C 
BRANCH  27  28
ATOM     28  N4  AB1 d          14.582 -20.991 -18.120  0.00  0.00    -0.352 N 
ATOM     29  C26 AB1 d          13.933 -22.159 -18.408  0.00  0.00     0.242 C 
ATOM     30  O5  AB1 d          12.768 -22.462 -18.153  0.00  0.00    -0.271 OA
ATOM     31  H32 AB1 d          15.531 -20.860 -18.407  0.00  0.00     0.163 HD
BRANCH  29  32
ATOM     32  C27 AB1 d          14.730 -23.224 -19.120  0.00  0.00     0.278 C 
BRANCH  32  33
ATOM     33  O3  AB1 d          16.056 -22.771 -19.416  0.00  0.00    -0.341 OA
BRANCH  33  34
ATOM     34  C28 AB1 d          16.946 -23.758 -19.740  0.00  0.00     0.081 A 
ATOM     35  C30 AB1 d          16.849 -24.383 -20.993  0.00  0.00    -0.028 A 
ATOM     36  C31 AB1 d          17.739 -25.406 -21.298  0.00  0.00     0.009 A 
ATOM     37  C36 AB1 d          15.833 -23.985 -22.058  0.00  0.00     0.051 C 
ATOM     38  C32 AB1 d          18.708 -25.836 -20.388  0.00  0.00     0.001 A 
ATOM     39  C33 AB1 d          18.783 -25.235 -19.140  0.00  0.00     0.009 A 
ATOM     40  C34 AB1 d          17.908 -24.181 -18.811  0.00  0.00    -0.028 A 
ATOM     41  C35 AB1 d          17.973 -23.537 -17.446  0.00  0.00     0.051 C 
ENDBRANCH  33  34
ENDBRANCH  32  33
ENDBRANCH  29  32
ENDBRANCH  27  28
BRANCH  27  42
ATOM     42  C29 AB1 d          14.738 -19.501 -16.191  0.00  0.00     0.066 C 
BRANCH  42  43
ATOM     43  C4  AB1 d          15.001 -20.672 -15.264  0.00  0.00    -0.056 A 
ATOM     44  C5  AB1 d          16.297 -21.136 -15.191  0.00  0.00     0.007 A 
ATOM     45  C6  AB1 d          16.620 -22.215 -14.363  0.00  0.00     0.001 A 
ATOM     46  C7  AB1 d          15.609 -22.813 -13.619  0.00  0.00     0.000 A 
ATOM     47  C8  AB1 d          14.290 -22.349 -13.689  0.00  0.00     0.001 A 
ATOM     48  C9  AB1 d          13.977 -21.264 -14.518  0.00  0.00     0.007 A 
ENDBRANCH  42  43
ENDBRANCH  27  42
ENDBRANCH  26  27
BRANCH  26  49
ATOM     49  O4  AB1 d          14.996 -18.299 -18.719  0.00  0.00    -0.393 OA
ATOM     50  H35 AB1 d          14.911 -17.544 -19.289  0.00  0.00     0.210 HD
ENDBRANCH  26  49
ENDBRANCH   1  26
TORSDOF 16
