REMARK  4 active torsions:
REMARK  status: ('A' for Active; 'I' for Inactive)
REMARK    1  A    between atoms: C03_3  and  S11_11 
REMARK    2  A    between atoms: C06_6  and  C07_7 
REMARK       I    between atoms: C07_7  and  N09_9 
REMARK    3  A    between atoms: N09_9  and  C10_10 
REMARK    4  A    between atoms: S11_11  and  NP2_12 
ROOT
ATOM      1  C07 IOC d          -4.448   4.002  13.267  0.00  0.00     0.251 C 
ATOM      2  O08 IOC d          -5.333   4.829  12.884  0.00  0.00    -0.268 OA
ATOM      3  N09 IOC d          -3.039   4.148  12.844  0.00  0.00    -0.353 N 
ATOM      4  H5  IOC d          -2.429   3.356  12.822  0.00  0.00     0.163 HD
ENDROOT
BRANCH   1   5
ATOM      5  C06 IOC d          -4.900   2.855  14.179  0.00  0.00     0.032 A 
ATOM      6  C01 IOC d          -3.936   1.915  14.597  0.00  0.00     0.018 A 
ATOM      7  C02 IOC d          -4.280   0.831  15.419  0.00  0.00     0.026 A 
ATOM      8  C03 IOC d          -5.659   0.669  15.850  0.00  0.00     0.079 A 
ATOM      9  C04 IOC d          -6.601   1.606  15.441  0.00  0.00     0.026 A 
ATOM     10  C05 IOC d          -6.215   2.694  14.607  0.00  0.00     0.018 A 
BRANCH   8  11
ATOM     11  S11 IOC d          -6.032  -0.739  16.865  0.00  0.00     0.256 S 
ATOM     12  O13 IOC d          -7.449  -0.528  16.976  0.00  0.00    -0.201 OA
ATOM     13  O14 IOC d          -5.392  -0.299  18.136  0.00  0.00    -0.201 OA
BRANCH  11  14
ATOM     14  NP2 IOC d          -5.441  -2.226  16.246  0.00  0.00    -0.324 N 
ATOM     15  H8  IOC d          -5.602  -3.076  16.748  0.00  0.00     0.169 HD
ATOM     16  H9  IOC d          -4.936  -2.243  15.383  0.00  0.00     0.169 HD
ENDBRANCH  11  14
ENDBRANCH   8  11
ENDBRANCH   1   5
BRANCH   3  17
ATOM     17  C10 IOC d          -2.563   5.453  12.464  0.00  0.00     0.164 C 
ATOM     18  C15 IOC d          -1.881   6.296  13.372  0.00  0.00     0.001 A 
ATOM     19  C16 IOC d          -2.424   6.497  14.742  0.00  0.00     0.166 A 
ATOM     20  C20 IOC d          -0.611   6.976  12.922  0.00  0.00     0.015 A 
ATOM     21  C17 IOC d          -1.665   7.400  15.649  0.00  0.00     0.193 A 
ATOM     22  F22 IOC d          -3.458   5.951  15.127  0.00  0.00    -0.202 F 
ATOM     23  C18 IOC d          -0.422   8.069  15.204  0.00  0.00     0.158 A 
ATOM     24  F23 IOC d          -2.133   7.609  16.910  0.00  0.00    -0.200 F 
ATOM     25  C19 IOC d           0.100   7.850  13.834  0.00  0.00     0.046 A 
ATOM     26  F21 IOC d           0.186   8.815  15.981  0.00  0.00    -0.203 F 
ENDBRANCH   3  17
TORSDOF 4
