REMARK  6 active torsions:
REMARK  status: ('A' for Active; 'I' for Inactive)
REMARK    1  A    between atoms: C6_6  and  C7_7 
REMARK    2  A    between atoms: C8_8  and  C9_9 
REMARK    3  A    between atoms: C10_10  and  C11_11 
REMARK    4  A    between atoms: C12_12  and  C13_13 
REMARK    5  A    between atoms: C14_14  and  C15_15 
REMARK    6  A    between atoms: C15_15  and  O21_21 
ROOT
ATOM      1  C7  RTL d          30.414  19.748  47.187  0.00  0.00     0.009 C 
ATOM      2  C8  RTL d          31.534  19.557  47.920  0.00  0.00     0.007 C 
ENDROOT
BRANCH   2   3
ATOM      3  C9  RTL d          31.615  19.289  49.328  0.00  0.00    -0.062 C 
ATOM      4  C10 RTL d          32.869  19.106  49.829  0.00  0.00     0.007 C 
ATOM      5  C19 RTL d          30.295  19.156  50.116  0.00  0.00     0.048 C 
BRANCH   4   6
ATOM      6  C11 RTL d          33.241  18.889  51.213  0.00  0.00     0.001 C 
ATOM      7  C12 RTL d          34.527  18.665  51.595  0.00  0.00     0.006 C 
BRANCH   7   8
ATOM      8  C13 RTL d          34.959  18.490  52.975  0.00  0.00    -0.064 C 
ATOM      9  C14 RTL d          36.268  18.238  53.230  0.00  0.00     0.005 C 
ATOM     10  C20 RTL d          33.889  18.609  54.109  0.00  0.00     0.048 C 
BRANCH   9  11
ATOM     11  C15 RTL d          36.758  18.042  54.587  0.00  0.00     0.192 C 
BRANCH  11  12
ATOM     12  O21 RTL d          38.122  17.788  54.897  0.00  0.00    -0.397 OA
ATOM     13  H30 RTL d          38.219  17.693  55.837  0.00  0.00     0.209 HD
ENDBRANCH  11  12
ENDBRANCH   9  11
ENDBRANCH   7   8
ENDBRANCH   4   6
ENDBRANCH   2   3
BRANCH   1  14
ATOM     14  C6  RTL d          30.391  20.023  45.717  0.00  0.00    -0.048 C 
ATOM     15  C1  RTL d          29.611  21.373  45.313  0.00  0.00    -0.020 C 
ATOM     16  C2  RTL d          29.353  21.382  43.799  0.00  0.00     0.014 C 
ATOM     17  C16 RTL d          28.241  21.481  46.026  0.00  0.00     0.020 C 
ATOM     18  C17 RTL d          30.456  22.597  45.686  0.00  0.00     0.020 C 
ATOM     19  C3  RTL d          30.405  20.840  42.987  0.00  0.00     0.005 C 
ATOM     20  C4  RTL d          30.678  19.375  43.278  0.00  0.00     0.034 C 
ATOM     21  C5  RTL d          30.870  19.136  44.759  0.00  0.00    -0.077 C 
ATOM     22  C18 RTL d          31.737  17.897  45.005  0.00  0.00     0.044 C 
ENDBRANCH   1  14
TORSDOF 6
