REMARK  4 active torsions:
REMARK  status: ('A' for Active; 'I' for Inactive)
REMARK    1  A    between atoms: C09_9  and  N10_10 
REMARK    2  A    between atoms: N10_10  and  C11_11 
REMARK    3  A    between atoms: N17_17  and  C18_18 
REMARK    4  A    between atoms: C18_18  and  C19_19 
ROOT
ATOM      1  N01 P44 d          20.115   9.589  19.749  0.00  0.00    -0.162 NA
ATOM      2  C02 P44 d          20.357   9.850  18.437  0.00  0.00     0.166 A 
ATOM      3  C03 P44 d          21.333   8.937  17.992  0.00  0.00     0.112 A 
ATOM      4  C04 P44 d          21.648   8.107  19.131  0.00  0.00     0.210 A 
ATOM      5  N05 P44 d          20.889   8.549  20.176  0.00  0.00    -0.041 N 
ATOM      6  N06 P44 d          22.496   7.079  19.296  0.00  0.00    -0.040 NA
ATOM      7  C07 P44 d          22.551   6.542  20.511  0.00  0.00     0.740 A 
ATOM      8  N08 P44 d          21.833   6.962  21.546  0.00  0.00     0.130 NA
ATOM      9  C09 P44 d          20.995   7.977  21.362  0.00  0.00     0.745 A 
ATOM     10  N17 P44 d          23.380   5.486  20.696  0.00  0.00    -0.222 N 
ATOM     11  C25 P44 d          21.959   8.859  16.705  0.00  0.00     0.105 C 
ATOM     12  N26 P44 d          22.540   8.859  15.702  0.00  0.00    -0.191 NA
ATOM     13  H8  P44 d          23.905   5.112  19.893  0.00  0.00     0.177 HD
ENDROOT
BRANCH   9  14
ATOM     14  N10 P44 d          20.238   8.454  22.383  0.00  0.00    -0.188 N 
ATOM     15  H2  P44 d          19.522   9.150  22.132  0.00  0.00     0.184 HD
BRANCH  14  16
ATOM     16  C11 P44 d          20.315   8.119  23.700  0.00  0.00     0.049 A 
ATOM     17  C12 P44 d          20.654   6.851  24.170  0.00  0.00     0.030 A 
ATOM     18  C13 P44 d          20.644   6.559  25.533  0.00  0.00     0.002 A 
ATOM     19  C14 P44 d          20.293   7.546  26.450  0.00  0.00     0.000 A 
ATOM     20  C15 P44 d          19.987   8.825  25.991  0.00  0.00     0.002 A 
ATOM     21  C16 P44 d          19.999   9.113  24.627  0.00  0.00     0.030 A 
ENDBRANCH  14  16
ENDBRANCH   9  14
BRANCH  10  22
ATOM     22  C18 P44 d          23.545   4.867  22.008  0.00  0.00     0.142 C 
BRANCH  22  23
ATOM     23  C19 P44 d          22.524   3.754  22.242  0.00  0.00     0.004 C 
ATOM     24  C20 P44 d          22.673   2.610  21.233  0.00  0.00     0.006 C 
ATOM     25  C21 P44 d          21.568   1.572  21.464  0.00  0.00     0.000 C 
ATOM     26  C22 P44 d          21.617   1.008  22.887  0.00  0.00     0.000 C 
ATOM     27  C23 P44 d          21.498   2.143  23.913  0.00  0.00     0.000 C 
ATOM     28  C24 P44 d          22.554   3.228  23.682  0.00  0.00     0.006 C 
ENDBRANCH  22  23
ENDBRANCH  10  22
TORSDOF 4
