REMARK  3 active torsions:
REMARK  status: ('A' for Active; 'I' for Inactive)
REMARK    1  A    between atoms: P_1  and  O1P_2 
REMARK    2  A    between atoms: O1P_2  and  C2_6 
REMARK    3  A    between atoms: C2_6  and  C1_7 
ROOT
ATOM      1  O1P PGA d         -18.356  -5.697 -14.247  0.00  0.00    -0.272 OA
ENDROOT
BRANCH   1   2
ATOM      2  P   PGA d         -17.809  -6.309 -12.852  0.00  0.00     0.422 P 
ATOM      3  O2P PGA d         -17.250  -7.681 -13.154  0.00  0.00    -0.617 OA
ATOM      4  O3P PGA d         -19.067  -6.318 -12.041  0.00  0.00    -0.617 OA
ATOM      5  O4P PGA d         -16.779  -5.354 -12.331  0.00  0.00    -0.617 OA
ENDBRANCH   1   2
BRANCH   1   6
ATOM      6  C2  PGA d         -17.365  -5.344 -15.263  0.00  0.00     0.295 C 
BRANCH   6   7
ATOM      7  C1  PGA d         -18.085  -4.602 -16.360  0.00  0.00     0.198 C 
ATOM      8  O1  PGA d         -17.321  -4.340 -17.353  0.00  0.00    -0.646 OA
ATOM      9  O2  PGA d         -19.239  -4.269 -16.351  0.00  0.00    -0.646 OA
ENDBRANCH   6   7
ENDBRANCH   1   6
TORSDOF 3
