REMARK  18 active torsions:
REMARK  status: ('A' for Active; 'I' for Inactive)
REMARK    1  A    between atoms: CA_2  and  N_1 
REMARK    2  A    between atoms: C_3  and  CA_2 
REMARK    3  A    between atoms: CA_2  and  CB_5 
REMARK       I    between atoms: N_10  and  C_3 
REMARK    4  A    between atoms: CB_5  and  CG_6 
REMARK    5  A    between atoms: CG_6  and  CD_7 
REMARK    6  A    between atoms: CD_7  and  CE_8 
REMARK    7  A    between atoms: CE_8  and  NZ_9 
REMARK    8  A    between atoms: CA_11  and  N_10 
REMARK    9  A    between atoms: C_15  and  CA_11 
REMARK   10  A    between atoms: CA_11  and  CB_12 
REMARK   11  A    between atoms: CB_12  and  CG_13 
REMARK       I    between atoms: C_15  and  N_17 
REMARK   12  A    between atoms: N_17  and  CA_18 
REMARK   13  A    between atoms: CA_18  and  C_19 
REMARK   14  A    between atoms: CA_18  and  CB_21 
REMARK   15  A    between atoms: CB_21  and  CG_22 
REMARK   16  A    between atoms: CG_22  and  CD_23 
REMARK   17  A    between atoms: CD_23  and  CE_24 
REMARK   18  A    between atoms: CE_24  and  NZ_25 
ROOT
ATOM      1  CA  MOL d           3.957  20.256  16.086  0.00  0.00     0.176 C 
ENDROOT
BRANCH   1   2
ATOM      2  N   MOL d           5.052  19.622  15.370  0.00  0.00    -0.346 N 
ATOM      3  C   MOL d           5.209  18.315  15.312  0.00  0.00     0.248 C 
ATOM      4  O   MOL d           4.443  17.509  15.829  0.00  0.00    -0.271 OA
ATOM      5  H16 MOL d           5.716  20.204  14.900  0.00  0.00     0.163 HD
BRANCH   3   6
ATOM      6  CA  MOL d           6.462  17.824  14.574  0.00  0.00     0.274 C 
BRANCH   6   7
ATOM      7  CB  MOL d           6.193  17.787  13.057  0.00  0.00     0.042 C 
BRANCH   7   8
ATOM      8  CG  MOL d           5.252  16.662  12.633  0.00  0.00     0.004 C 
BRANCH   8   9
ATOM      9  CD  MOL d           5.221  16.557  11.087  0.00  0.00     0.027 C 
BRANCH   9  10
ATOM     10  CE  MOL d           6.502  15.898  10.573  0.00  0.00     0.229 C 
BRANCH  10  11
ATOM     11  NZ  MOL d           6.578  14.440  10.896  0.00  0.00    -0.079 N 
ATOM     12  H13 MOL d           7.439  14.060  10.535  0.00  0.00     0.274 HD
ATOM     13  H14 MOL d           5.797  13.961  10.475  0.00  0.00     0.274 HD
ATOM     14  H15 MOL d           6.549  14.315  11.896  0.00  0.00     0.274 HD
ENDBRANCH  10  11
ENDBRANCH   9  10
ENDBRANCH   8   9
ENDBRANCH   7   8
ENDBRANCH   6   7
BRANCH   6  15
ATOM     15  N   MOL d           6.938  16.531  15.125  0.00  0.00    -0.067 N 
ATOM     16  H1  MOL d           7.760  16.234  14.623  0.00  0.00     0.275 HD
ATOM     17  H2  MOL d           6.214  15.837  15.026  0.00  0.00     0.275 HD
ATOM     18  H3  MOL d           7.164  16.644  16.101  0.00  0.00     0.275 HD
ENDBRANCH   6  15
ENDBRANCH   3   6
ENDBRANCH   1   2
BRANCH   1  19
ATOM     19  C   MOL d           2.649  20.239  15.314  0.00  0.00     0.241 C 
ATOM     20  O   MOL d           2.621  20.539  14.126  0.00  0.00    -0.271 OA
ATOM     21  N   MOL d           1.578  19.885  16.021  0.00  0.00    -0.345 N 
ATOM     22  H25 MOL d           1.671  19.613  16.979  0.00  0.00     0.163 HD
BRANCH  21  23
ATOM     23  CA  MOL d           0.271  19.899  15.384  0.00  0.00     0.185 C 
BRANCH  23  24
ATOM     24  C   MOL d          -0.723  20.761  16.180  0.00  0.00     0.196 C 
ATOM     25  OXT MOL d          -0.441  21.126  17.331  0.00  0.00    -0.646 OA
ATOM     26  O   MOL d          -1.754  21.094  15.542  0.00  0.00    -0.646 OA
ENDBRANCH  23  24
BRANCH  23  27
ATOM     27  CB  MOL d          -0.329  18.504  15.215  0.00  0.00     0.036 C 
BRANCH  27  28
ATOM     28  CG  MOL d          -1.393  18.524  14.109  0.00  0.00     0.004 C 
BRANCH  28  29
ATOM     29  CD  MOL d          -2.132  17.218  13.992  0.00  0.00     0.027 C 
BRANCH  29  30
ATOM     30  CE  MOL d          -2.940  17.080  12.712  0.00  0.00     0.229 C 
BRANCH  30  31
ATOM     31  NZ  MOL d          -3.697  18.341  12.448  0.00  0.00    -0.079 N 
ATOM     32  H35 MOL d          -4.230  18.241  11.598  0.00  0.00     0.274 HD
ATOM     33  H36 MOL d          -3.050  19.108  12.351  0.00  0.00     0.274 HD
ATOM     34  H37 MOL d          -4.322  18.525  13.217  0.00  0.00     0.274 HD
ENDBRANCH  30  31
ENDBRANCH  29  30
ENDBRANCH  28  29
ENDBRANCH  27  28
ENDBRANCH  23  27
ENDBRANCH  21  23
ENDBRANCH   1  19
BRANCH   1  35
ATOM     35  CB  MOL d           4.313  21.718  16.419  0.00  0.00     0.034 C 
BRANCH  35  36
ATOM     36  CG  MOL d           5.354  21.645  17.583  0.00  0.00    -0.002 C 
ATOM     37  CD  MOL d           5.527  22.988  18.243  0.00  0.00     0.005 C 
ENDBRANCH  35  36
ENDBRANCH   1  35
TORSDOF 18
