REMARK  3 active torsions:
REMARK  status: ('A' for Active; 'I' for Inactive)
REMARK    1  A    between atoms: C2_2  and  C21_7 
REMARK    2  A    between atoms: C3_3  and  O31_11 
REMARK    3  A    between atoms: C21_7  and  C22_8 
ROOT
ATOM      1  N1  PRZ d          -0.030  24.757  10.542  0.00  0.00    -0.260 NA
ATOM      2  C2  PRZ d          -0.403  25.858  11.220  0.00  0.00     0.087 C 
ATOM      3  C3  PRZ d           0.571  26.734  11.761  0.00  0.00     0.189 C 
ATOM      4  N4  PRZ d           1.933  26.429  11.644  0.00  0.00    -0.234 NA
ATOM      5  C5  PRZ d           2.299  25.195  10.997  0.00  0.00     0.138 C 
ATOM      6  C6  PRZ d           1.292  24.386  10.350  0.00  0.00     0.136 C 
ENDROOT
BRANCH   2   7
ATOM      7  C21 PRZ d          -1.930  26.102  11.566  0.00  0.00     0.067 C 
BRANCH   7   8
ATOM      8  C22 PRZ d          -2.157  26.438  13.170  0.00  0.00    -0.017 C 
ATOM      9  C24 PRZ d          -1.197  25.872  14.244  0.00  0.00     0.010 C 
ATOM     10  C23 PRZ d          -3.253  27.159  13.754  0.00  0.00     0.010 C 
ENDBRANCH   7   8
ENDBRANCH   2   7
BRANCH   3  11
ATOM     11  O31 PRZ d           0.115  27.803  12.190  0.00  0.00    -0.338 OA
ATOM     12  C31 PRZ d           0.998  28.775  12.745  0.00  0.00     0.211 C 
ENDBRANCH   3  11
TORSDOF 3
