REMARK  4 active torsions:
REMARK  status: ('A' for Active; 'I' for Inactive)
REMARK    1  A    between atoms: CAD_7  and  CAH_8 
REMARK    2  A    between atoms: CAJ_11  and  NAR_12 
REMARK    3  A    between atoms: CAL_14  and  CAN_15 
REMARK    4  A    between atoms: CAN_15  and  OAP_17 
ROOT
ATOM      1  CAH MOL d         -13.004  23.166   9.586  0.00  0.00    -0.018 A 
ATOM      2  CAM MOL d         -13.596  22.195   8.770  0.00  0.00     0.030 A 
ATOM      3  CAI MOL d         -11.657  23.500   9.375  0.00  0.00     0.041 A 
ATOM      4  CAJ MOL d         -10.907  22.850   8.395  0.00  0.00     0.027 A 
ATOM      5  CAK MOL d         -11.495  21.872   7.599  0.00  0.00     0.046 A 
ATOM      6  CAL MOL d         -12.847  21.537   7.783  0.00  0.00     0.042 A 
ENDROOT
BRANCH   1   7
ATOM      7  CAD MOL d         -13.715  23.835  10.509  0.00  0.00     0.032 A 
ATOM      8  CAE MOL d         -13.411  24.159  11.758  0.00  0.00     0.088 A 
ATOM      9  CAF MOL d         -12.150  23.804  12.560  0.00  0.00     0.080 C 
ATOM     10  OAA MOL d         -14.470  24.911  12.262  0.00  0.00    -0.217 OA
ATOM     11  NAB MOL d         -15.283  25.030  11.402  0.00  0.00    -0.133 NA
ATOM     12  CAC MOL d         -14.891  24.403  10.305  0.00  0.00     0.071 A 
ATOM     13  CAG MOL d         -15.722  24.360   9.005  0.00  0.00     0.074 C 
ENDBRANCH   1   7
BRANCH   6  14
ATOM     14  CAN MOL d         -13.440  20.565   6.964  0.00  0.00     0.293 C 
ATOM     15  OAO MOL d         -12.784  20.043   6.056  0.00  0.00    -0.259 OA
BRANCH  14  16
ATOM     16  OAP MOL d         -14.781  20.345   7.184  0.00  0.00    -0.323 OA
ATOM     17  CAQ MOL d         -15.289  19.065   6.783  0.00  0.00     0.213 C 
ENDBRANCH  14  16
ENDBRANCH   6  14
BRANCH   4  18
ATOM     18  NAR MOL d          -9.632  23.167   8.219  0.00  0.00    -0.399 N 
ATOM     19  H   MOL d          -9.077  22.688   7.496  0.00  0.00     0.156 HD
ATOM     20  H   MOL d          -9.196  23.893   8.806  0.00  0.00     0.156 HD
ENDBRANCH   4  18
TORSDOF 4
