3u7l_ligand

Created by X-TOOL on Fri Sep 26 17:34:56 2014
 61 62  0  0  0  0  0  0  0  0999 V2000
  -16.8740  144.9230   44.9580  C 0  0  0  1  0  3
  -16.0370  146.3170   46.6820  N 0  0  0  2  0  3
  -16.1710  145.5090   44.1420  O 0  0  0  1  0  1
  -10.0940  148.6320   48.9380  F 0  0  0  1  0  1
  -12.7090  146.9320   52.5120  F 0  0  0  1  0  1
  -17.2370  145.6380   46.2460  C 0  0  0  2  0  4
  -18.3630  146.6740   46.0830  C 0  0  0  1  0  4
  -18.0210  147.6830   44.9910  C 0  0  0  4  0  4
  -18.5920  147.4650   47.3790  C 0  0  0  4  0  4
  -19.6630  145.9920   45.6880  C 0  0  0  4  0  4
  -15.4730  146.1870   47.8710  C 0  0  0  1  0  3
  -15.9510  145.4760   48.7450  O 0  0  0  1  0  1
  -14.3870  146.9440   47.9520  N 0  0  0  2  0  3
  -13.4380  147.1800   48.9520  C 0  0  0  1  0  3
  -12.2530  147.7720   48.5040  C 0  0  0  2  0  3
  -11.2310  148.0700   49.3920  C 0  0  0  1  0  3
  -11.3950  147.7910   50.7490  C 0  0  0  2  0  3
  -12.5790  147.2020   51.2000  C 0  0  0  1  0  3
  -13.6180  146.8950   50.3060  C 0  0  0  2  0  3
  -17.2940  143.6740   44.7090  N 0  0  0  1  0  3
  -16.9020  143.0530   43.4470  C 0  0  0  3  0  4
  -18.0650  142.6620   42.5580  C 0  0  0  1  0  3
  -19.0850  143.3490   42.4650  O 0  0  0  1  0  1
  -17.8610  141.5300   41.8770  N 0  0  0  2  0  3
  -18.8110  141.0260   40.9920  O 0  0  0  2  0  2
  -18.1250  142.8400   45.5890  C 0  0  0  3  0  4
  -17.2410  142.1170   46.6130  C 0  0  0  2  0  4
  -16.5180  140.9070   46.0340  C 0  0  0  3  0  4
  -16.3880  139.8960   47.1750  C 0  0  0  3  0  4
  -17.3700  140.3160   48.2650  C 0  0  0  3  0  4
  -18.0800  141.5750   47.7750  C 0  0  0  3  0  4
  -15.5975  146.9357   46.0308  H 0  0  0  1  0  1
  -17.5472  144.8959   46.9964  H 0  0  0  1  0  1
  -18.8402  148.4108   44.8947  H 0  0  0  1  0  1
  -17.8842  147.1564   44.0350  H 0  0  0  1  0  1
  -17.0922  148.2093   45.2559  H 0  0  0  1  0  1
  -18.8421  146.7695   48.1937  H 0  0  0  1  0  1
  -19.4208  148.1736   47.2345  H 0  0  0  1  0  1
  -17.6772  148.0185   47.6373  H 0  0  0  1  0  1
  -19.5106  145.4218   44.7598  H 0  0  0  1  0  1
  -20.4418  146.7521   45.5276  H 0  0  0  1  0  1
  -19.9772  145.3087   46.4907  H 0  0  0  1  0  1
  -14.2072  147.4592   47.1140  H 0  0  0  1  0  1
  -12.1323  148.0003   47.4512  H 0  0  0  1  0  1
  -10.6055  148.0307   51.4521  H 0  0  0  1  0  1
  -14.5392  146.4466   50.6601  H 0  0  0  1  0  1
  -16.3220  142.1464   43.6744  H 0  0  0  1  0  1
  -16.2698  143.7638   42.8947  H 0  0  0  1  0  1
  -17.0036  141.0319   42.0064  H 0  0  0  1  0  1
  -18.4873  140.2201   40.6069  H 0  0  0  1  0  1
  -18.6644  142.0965   44.9838  H 0  0  0  1  0  1
  -18.8490  143.4772   46.1180  H 0  0  0  1  0  1
  -16.4994  142.8346   46.9939  H 0  0  0  1  0  1
  -15.5223  141.1978   45.6679  H 0  0  0  1  0  1
  -17.1009  140.4749   45.2073  H 0  0  0  1  0  1
  -15.3613  139.9033   47.5697  H 0  0  0  1  0  1
  -16.6349  138.8867   46.8140  H 0  0  0  1  0  1
  -16.8282  140.5285   49.1984  H 0  0  0  1  0  1
  -18.1029  139.5147   48.4407  H 0  0  0  1  0  1
  -19.0953  141.3298   47.4299  H 0  0  0  1  0  1
  -18.1371  142.3190   48.5832  H 0  0  0  1  0  1
  1  3  2  0  0  2
  6  1  1  0  0  2
  1 20  1  0  0  2
  2  6  1  0  0  2
 11  2  1  0  0  2
 16  4  1  0  0  2
 18  5  1  0  0  2
  6  7  1  0  0  2
  7  8  1  0  0  2
  7  9  1  0  0  2
  7 10  1  0  0  2
 11 12  2  0  0  2
 13 11  1  0  0  2
 14 13  1  0  0  2
 15 14  4  0  0  1
 14 19  4  0  0  1
 16 15  4  0  0  1
 17 16  4  0  0  1
 17 18  4  0  0  1
 18 19  4  0  0  1
 20 21  1  0  0  2
 20 26  1  0  0  2
 21 22  1  0  0  2
 22 23  2  0  0  2
 22 24  1  0  0  2
 24 25  1  0  0  2
 26 27  1  0  0  2
 27 28  1  0  0  1
 27 31  1  0  0  1
 28 29  1  0  0  1
 29 30  1  0  0  1
 30 31  1  0  0  1
  2 32  1  0  0  2
  6 33  1  0  0  2
  8 34  1  0  0  2
  8 35  1  0  0  2
  8 36  1  0  0  2
  9 37  1  0  0  2
  9 38  1  0  0  2
  9 39  1  0  0  2
 10 40  1  0  0  2
 10 41  1  0  0  2
 10 42  1  0  0  2
 13 43  1  0  0  2
 15 44  1  0  0  2
 17 45  1  0  0  2
 19 46  1  0  0  2
 21 47  1  0  0  2
 21 48  1  0  0  2
 24 49  1  0  0  2
 25 50  1  0  0  2
 26 51  1  0  0  2
 26 52  1  0  0  2
 27 53  1  0  0  2
 28 54  1  0  0  2
 28 55  1  0  0  2
 29 56  1  0  0  2
 29 57  1  0  0  2
 30 58  1  0  0  2
 30 59  1  0  0  2
 31 60  1  0  0  2
 31 61  1  0  0  2
M  END
> <MOLECULAR_FORMULA>
C21H30N4O4F2

> <MOLECULAR_WEIGHT>
440.3

> <NUM_HB_ATOMS>
7  

> <NUM_ROTOR>
6  

> <XLOGP2>
2.66 

$$$$
