REMARK  0 active torsions:
REMARK  status: ('A' for Active; 'I' for Inactive)
ROOT
ATOM      1  C1  MOL d          23.087  36.334  41.412  0.00  0.00     0.096 A 
ATOM      2  C2  MOL d          24.480  36.845  41.285  0.00  0.00    -0.012 A 
ATOM      3  C3  MOL d          22.981  36.165  42.912  0.00  0.00     0.237 A 
ATOM      4  C4  MOL d          22.082  37.370  40.979  0.00  0.00     0.053 C 
ATOM      5  C5  MOL d          22.777  35.061  40.652  0.00  0.00     0.256 C 
ATOM      6  C6  MOL d          25.057  36.990  42.511  0.00  0.00     0.042 A 
ATOM      7  C7  MOL d          25.180  37.161  40.158  0.00  0.00     0.011 A 
ATOM      8  N1  MOL d          24.167  36.593  43.503  0.00  0.00    -0.326 N 
ATOM      9  O1  MOL d          21.926  35.873  43.465  0.00  0.00    -0.272 OA
ATOM     10  C8  MOL d          20.944  36.609  40.335  0.00  0.00     0.234 C 
ATOM     11  N2  MOL d          21.599  35.398  39.791  0.00  0.00    -0.074 N 
ATOM     12  C9  MOL d          26.331  37.480  42.668  0.00  0.00     0.030 A 
ATOM     13  C10 MOL d          26.466  37.651  40.287  0.00  0.00     0.001 A 
ATOM     14  C11 MOL d          27.037  37.796  41.532  0.00  0.00     0.002 A 
ATOM     15  H6  MOL d          24.350  36.612  44.486  0.00  0.00     0.169 HD
ATOM     16  H9  MOL d          20.947  34.630  39.793  0.00  0.00     0.277 HD
ATOM     17  H10 MOL d          21.908  35.574  38.848  0.00  0.00     0.277 HD
ENDROOT
TORSDOF 0
