REMARK  9 active torsions:
REMARK  status: ('A' for Active; 'I' for Inactive)
REMARK    1  A    between atoms: C18_2  and  C19_3 
REMARK       I    between atoms: C18_2  and  N1_12 
REMARK    2  A    between atoms: C19_3  and  N2_4 
REMARK    3  A    between atoms: N2_4  and  C20_5 
REMARK    4  A    between atoms: C20_5  and  C21_6 
REMARK    5  A    between atoms: N1_12  and  C2_13 
REMARK    6  A    between atoms: C3_15  and  C10_24 
REMARK    7  A    between atoms: C1_16  and  C4_17 
REMARK       I    between atoms: C10_24  and  N_26 
REMARK    8  A    between atoms: N_26  and  C11_27 
REMARK    9  A    between atoms: C11_27  and  C12_28 
ROOT
ATOM      1  C2  IXZ d          46.901   7.785   8.845  0.00  0.00     0.093 A 
ATOM      2  S   IXZ d          47.849   9.076   8.865  0.00  0.00    -0.082 SA
ATOM      3  C3  IXZ d          45.581   8.212   8.798  0.00  0.00     0.077 A 
ATOM      4  C1  IXZ d          45.479   9.608   8.765  0.00  0.00    -0.001 A 
ATOM      5  C   IXZ d          46.722  10.213   8.803  0.00  0.00     0.065 A 
ENDROOT
BRANCH   1   6
ATOM      6  N1  IXZ d          47.400   6.461   8.889  0.00  0.00    -0.319 N 
ATOM      7  C18 IXZ d          47.088   5.524   9.858  0.00  0.00     0.248 C 
ATOM      8  O1  IXZ d          46.461   5.850  10.840  0.00  0.00    -0.271 OA
ATOM      9  H12 IXZ d          48.027   6.181   8.162  0.00  0.00     0.169 HD
BRANCH   7  10
ATOM     10  C19 IXZ d          47.537   4.089   9.681  0.00  0.00     0.335 C 
BRANCH  10  11
ATOM     11  N2  IXZ d          46.586   3.228  10.410  0.00  0.00    -0.063 N 
ATOM     12  H3  IXZ d          46.314   3.682  11.268  0.00  0.00     0.278 HD
ATOM     13  H4  IXZ d          47.028   2.347  10.622  0.00  0.00     0.278 HD
BRANCH  11  14
ATOM     14  C20 IXZ d          45.387   2.988   9.581  0.00  0.00     0.271 C 
BRANCH  14  15
ATOM     15  C21 IXZ d          44.318   2.146  10.237  0.00  0.00    -0.033 A 
ATOM     16  C23 IXZ d          44.417   0.764  10.222  0.00  0.00     0.009 A 
ATOM     17  C25 IXZ d          43.425  -0.006  10.813  0.00  0.00     0.001 A 
ATOM     18  C26 IXZ d          42.335   0.605  11.410  0.00  0.00     0.000 A 
ATOM     19  C24 IXZ d          42.236   1.987  11.424  0.00  0.00     0.001 A 
ATOM     20  C22 IXZ d          43.226   2.757  10.837  0.00  0.00     0.009 A 
ENDBRANCH  14  15
ENDBRANCH  11  14
ENDBRANCH  10  11
ENDBRANCH   7  10
ENDBRANCH   1   6
BRANCH   3  21
ATOM     21  C10 IXZ d          44.418   7.307   8.777  0.00  0.00     0.255 C 
ATOM     22  O   IXZ d          43.564   7.388   9.634  0.00  0.00    -0.268 OA
ATOM     23  N   IXZ d          44.329   6.364   7.771  0.00  0.00    -0.353 N 
ATOM     24  H19 IXZ d          45.108   6.268   7.152  0.00  0.00     0.163 HD
BRANCH  23  25
ATOM     25  C11 IXZ d          43.164   5.492   7.550  0.00  0.00     0.161 C 
BRANCH  25  26
ATOM     26  C12 IXZ d          41.993   6.292   7.052  0.00  0.00    -0.041 A 
ATOM     27  C14 IXZ d          42.133   7.125   5.954  0.00  0.00     0.009 A 
ATOM     28  C16 IXZ d          41.052   7.864   5.505  0.00  0.00     0.001 A 
ATOM     29  C17 IXZ d          39.829   7.772   6.150  0.00  0.00     0.000 A 
ATOM     30  C15 IXZ d          39.693   6.942   7.253  0.00  0.00     0.001 A 
ATOM     31  C13 IXZ d          40.774   6.202   7.705  0.00  0.00     0.009 A 
ENDBRANCH  25  26
ENDBRANCH  23  25
ENDBRANCH   3  21
BRANCH   4  32
ATOM     32  C4  IXZ d          44.217  10.379   8.713  0.00  0.00    -0.024 A 
ATOM     33  C6  IXZ d          44.092  11.547   9.457  0.00  0.00     0.012 A 
ATOM     34  C8  IXZ d          42.916  12.281   9.413  0.00  0.00     0.001 A 
ATOM     35  C9  IXZ d          41.861  11.856   8.619  0.00  0.00     0.000 A 
ATOM     36  C7  IXZ d          41.982  10.692   7.874  0.00  0.00     0.001 A 
ATOM     37  C5  IXZ d          43.161   9.958   7.915  0.00  0.00     0.012 A 
ENDBRANCH   4  32
TORSDOF 9
