REMARK  13 active torsions:
REMARK  status: ('A' for Active; 'I' for Inactive)
REMARK    1  A    between atoms: CD_2  and  CG_4 
REMARK    2  A    between atoms: CG_4  and  CB_5 
REMARK    3  A    between atoms: CB_5  and  CA_6 
REMARK    4  A    between atoms: CA_6  and  C_7 
REMARK    5  A    between atoms: CA_6  and  N_10 
REMARK       I    between atoms: N_10  and  CAY_11 
REMARK    6  A    between atoms: CAY_11  and  CBB_13 
REMARK    7  A    between atoms: CBC_18  and  CBG_19 
REMARK    8  A    between atoms: CBG_19  and  SAV_20 
REMARK    9  A    between atoms: CBG_19  and  CAQ_22 
REMARK   10  A    between atoms: CAQ_22  and  CAN_23 
REMARK   11  A    between atoms: CAN_23  and  CAP_24 
REMARK   12  A    between atoms: CAP_24  and  CBD_25 
REMARK   13  A    between atoms: CBA_32  and  NAC_33 
ROOT
ATOM      1  CBG DXY d          -0.508  64.631  93.482  0.00  0.00     0.079 C 
ENDROOT
BRANCH   1   2
ATOM      2  CBC DXY d           0.721  65.559  93.234  0.00  0.00    -0.044 A 
ATOM      3  CAM DXY d           2.064  65.215  93.121  0.00  0.00     0.009 A 
ATOM      4  CAK DXY d           3.009  66.210  92.870  0.00  0.00     0.017 A 
ATOM      5  CBB DXY d           2.640  67.546  92.712  0.00  0.00     0.032 A 
ATOM      6  CAJ DXY d           1.328  67.873  92.837  0.00  0.00     0.017 A 
ATOM      7  CAL DXY d           0.389  66.897  93.084  0.00  0.00     0.009 A 
BRANCH   5   8
ATOM      8  CAY DXY d           3.549  68.709  92.429  0.00  0.00     0.252 C 
ATOM      9  N   DXY d           2.924  69.883  92.304  0.00  0.00    -0.342 N 
ATOM     10  H6  DXY d           1.933  69.929  92.428  0.00  0.00     0.163 HD
ATOM     11  OAF DXY d           4.754  68.577  92.238  0.00  0.00    -0.268 OA
BRANCH   9  12
ATOM     12  CA  DXY d           3.676  71.116  91.985  0.00  0.00     0.186 C 
BRANCH  12  13
ATOM     13  CB  DXY d           3.064  71.940  90.822  0.00  0.00     0.046 C 
BRANCH  13  14
ATOM     14  CG  DXY d           2.014  71.203  89.956  0.00  0.00     0.116 C 
BRANCH  14  15
ATOM     15  CD  DXY d           1.137  72.207  89.118  0.00  0.00     0.172 C 
ATOM     16  OE1 DXY d           0.158  72.798  89.676  0.00  0.00    -0.648 OA
ATOM     17  OE2 DXY d           1.481  72.363  87.917  0.00  0.00    -0.648 OA
ENDBRANCH  14  15
ENDBRANCH  13  14
ENDBRANCH  12  13
BRANCH  12  18
ATOM     18  C   DXY d           3.821  72.066  93.176  0.00  0.00     0.196 C 
ATOM     19  OXT DXY d           2.963  72.044  94.070  0.00  0.00    -0.646 OA
ATOM     20  O   DXY d           4.790  72.846  93.142  0.00  0.00    -0.646 OA
ENDBRANCH  12  18
ENDBRANCH   9  12
ENDBRANCH   5   8
ENDBRANCH   1   2
BRANCH   1  21
ATOM     21  SAV DXY d          -0.754  63.438  92.095  0.00  0.00    -0.164 SA
ATOM     22  CAA DXY d           0.803  63.283  91.215  0.00  0.00     0.090 C 
ENDBRANCH   1  21
BRANCH   1  23
ATOM     23  CAQ DXY d          -0.646  63.985  94.888  0.00  0.00     0.020 C 
BRANCH  23  24
ATOM     24  CAN DXY d          -0.351  64.932  96.042  0.00  0.00     0.003 C 
BRANCH  24  25
ATOM     25  CAP DXY d          -1.252  64.875  97.324  0.00  0.00     0.022 C 
BRANCH  25  26
ATOM     26  CBD DXY d          -0.436  65.582  98.377  0.00  0.00     0.146 A 
ATOM     27  CBE DXY d           0.341  64.882  99.291  0.00  0.00     0.247 A 
ATOM     28  OAG DXY d           0.358  63.656  99.336  0.00  0.00    -0.272 OA
ATOM     29  NAU DXY d           1.097  65.536 100.194  0.00  0.00    -0.159 N 
ATOM     30  CAZ DXY d           1.144  66.914 100.211  0.00  0.00     0.679 A 
ATOM     31  H22 DXY d           1.631  65.016 100.860  0.00  0.00     0.187 HD
ATOM     32  NAB DXY d           1.920  67.479 101.101  0.00  0.00    -0.234 N 
ATOM     33  NAS DXY d           0.409  67.613  99.327  0.00  0.00    -0.180 N 
ATOM     34  H23 DXY d           1.986  68.506 101.149  0.00  0.00     0.174 HD
ATOM     35  H24 DXY d           2.465  66.897 101.753  0.00  0.00     0.174 HD
ATOM     36  CBA DXY d          -0.374  66.995  98.440  0.00  0.00     0.104 A 
ATOM     37  H25 DXY d           0.451  68.642  99.335  0.00  0.00     0.185 HD
BRANCH  36  38
ATOM     38  NAC DXY d          -1.074  67.734  97.567  0.00  0.00    -0.388 N 
ATOM     39  H26 DXY d          -1.030  68.762  97.611  0.00  0.00     0.157 HD
ATOM     40  H27 DXY d          -1.655  67.273  96.852  0.00  0.00     0.157 HD
ENDBRANCH  36  38
ENDBRANCH  25  26
ENDBRANCH  24  25
ENDBRANCH  23  24
ENDBRANCH   1  23
TORSDOF 13
