REMARK  12 active torsions:
REMARK  status: ('A' for Active; 'I' for Inactive)
REMARK    1  A    between atoms: C6_2  and  N43_41 
REMARK    2  A    between atoms: C27_5  and  S9_7 
REMARK    3  A    between atoms: S9_7  and  N32_10 
REMARK    4  A    between atoms: N32_10  and  C33_11 
REMARK    5  A    between atoms: N32_10  and  C24_18 
REMARK    6  A    between atoms: C33_11  and  C34_12 
REMARK    7  A    between atoms: C23_22  and  N28_23 
REMARK    8  A    between atoms: N28_23  and  C7_24 
REMARK    9  A    between atoms: N28_23  and  S8_31 
REMARK   10  A    between atoms: C7_24  and  C12_25 
REMARK   11  A    between atoms: S8_31  and  C26_32 
REMARK   12  A    between atoms: C4_35  and  N42_40 
ROOT
ATOM      1  C24 G3G d         -12.723 -20.193  18.179  0.00  0.00     0.147 C 
ATOM      2  C25 G3G d         -13.996 -19.563  18.790  0.00  0.00     0.260 C 
ATOM      3  N22 G3G d         -13.939 -18.096  18.546  0.00  0.00    -0.071 N 
ATOM      4  C21 G3G d         -12.524 -17.728  18.239  0.00  0.00     0.260 C 
ATOM      5  C23 G3G d         -11.975 -18.973  17.493  0.00  0.00     0.147 C 
ATOM      6  H15 G3G d         -14.250 -17.601  19.367  0.00  0.00     0.277 HD
ATOM      7  H16 G3G d         -14.531 -17.857  17.766  0.00  0.00     0.277 HD
ENDROOT
BRANCH   1   8
ATOM      8  N32 G3G d         -11.785 -20.849  19.169  0.00  0.00    -0.294 N 
BRANCH   8   9
ATOM      9  S9  G3G d         -11.453 -22.526  18.919  0.00  0.00     0.261 S 
ATOM     10  O40 G3G d         -10.441 -22.958  19.864  0.00  0.00    -0.200 OA
ATOM     11  O11 G3G d         -11.462 -22.828  17.498  0.00  0.00    -0.200 OA
BRANCH   9  12
ATOM     12  C27 G3G d         -12.954 -23.173  19.637  0.00  0.00     0.079 A 
ATOM     13  C20 G3G d         -13.989 -23.639  18.789  0.00  0.00     0.027 A 
ATOM     14  C5  G3G d         -15.189 -24.164  19.337  0.00  0.00     0.030 A 
ATOM     15  C6  G3G d         -15.353 -24.198  20.742  0.00  0.00     0.025 A 
ATOM     16  C2  G3G d         -14.331 -23.739  21.595  0.00  0.00     0.030 A 
ATOM     17  C18 G3G d         -13.122 -23.236  21.045  0.00  0.00     0.027 A 
BRANCH  15  18
ATOM     18  N43 G3G d         -16.495 -24.681  21.264  0.00  0.00    -0.399 N 
ATOM     19  H33 G3G d         -16.623 -24.709  22.286  0.00  0.00     0.156 HD
ATOM     20  H34 G3G d         -17.242 -25.022  20.642  0.00  0.00     0.156 HD
ENDBRANCH  15  18
ENDBRANCH   9  12
ENDBRANCH   8   9
BRANCH   8  21
ATOM     21  C33 G3G d         -11.314 -20.239  20.448  0.00  0.00     0.174 C 
BRANCH  21  22
ATOM     22  C34 G3G d         -10.019 -19.437  20.332  0.00  0.00    -0.040 A 
ATOM     23  C38 G3G d          -9.761 -18.388  21.257  0.00  0.00     0.009 A 
ATOM     24  C39 G3G d          -8.575 -17.619  21.180  0.00  0.00     0.001 A 
ATOM     25  C37 G3G d          -7.636 -17.921  20.158  0.00  0.00     0.000 A 
ATOM     26  C36 G3G d          -7.886 -18.984  19.240  0.00  0.00     0.001 A 
ATOM     27  C35 G3G d          -9.085 -19.741  19.313  0.00  0.00     0.009 A 
ENDBRANCH  21  22
ENDBRANCH   8  21
ENDBRANCH   1   8
BRANCH   5  28
ATOM     28  N28 G3G d         -12.267 -18.891  16.022  0.00  0.00    -0.294 N 
BRANCH  28  29
ATOM     29  C7  G3G d         -13.582 -18.751  15.371  0.00  0.00     0.174 C 
BRANCH  29  30
ATOM     30  C12 G3G d         -14.451 -20.007  15.345  0.00  0.00    -0.040 A 
ATOM     31  C14 G3G d         -15.872 -19.870  15.454  0.00  0.00     0.009 A 
ATOM     32  C30 G3G d         -16.736 -21.002  15.418  0.00  0.00     0.001 A 
ATOM     33  C31 G3G d         -16.164 -22.305  15.297  0.00  0.00     0.000 A 
ATOM     34  C29 G3G d         -14.749 -22.452  15.210  0.00  0.00     0.001 A 
ATOM     35  C13 G3G d         -13.886 -21.313  15.225  0.00  0.00     0.009 A 
ENDBRANCH  29  30
ENDBRANCH  28  29
BRANCH  28  36
ATOM     36  S8  G3G d         -10.952 -19.258  15.026  0.00  0.00     0.261 S 
ATOM     37  O41 G3G d         -11.441 -19.450  13.647  0.00  0.00    -0.200 OA
ATOM     38  O10 G3G d         -10.250 -20.410  15.616  0.00  0.00    -0.200 OA
BRANCH  36  39
ATOM     39  C26 G3G d          -9.845 -17.889  15.050  0.00  0.00     0.079 A 
ATOM     40  C17 G3G d         -10.074 -16.615  14.464  0.00  0.00     0.027 A 
ATOM     41  C1  G3G d          -9.104 -15.565  14.565  0.00  0.00     0.030 A 
ATOM     42  C4  G3G d          -7.848 -15.800  15.233  0.00  0.00     0.025 A 
ATOM     43  C3  G3G d          -7.607 -17.079  15.822  0.00  0.00     0.030 A 
ATOM     44  C19 G3G d          -8.614 -18.085  15.768  0.00  0.00     0.027 A 
BRANCH  42  45
ATOM     45  N42 G3G d          -6.885 -14.854  15.316  0.00  0.00    -0.399 N 
ATOM     46  H31 G3G d          -7.038 -13.925  14.898  0.00  0.00     0.156 HD
ATOM     47  H32 G3G d          -5.998 -15.062  15.797  0.00  0.00     0.156 HD
ENDBRANCH  42  45
ENDBRANCH  36  39
ENDBRANCH  28  36
ENDBRANCH   5  28
TORSDOF 12
