REMARK  7 active torsions:
REMARK  status: ('A' for Active; 'I' for Inactive)
REMARK    1  A    between atoms: CBN_2  and  CBI_5 
REMARK    2  A    between atoms: CBG_11  and  CBB_12 
REMARK       I    between atoms: CBB_12  and  NAY_14 
REMARK    3  A    between atoms: NAY_14  and  CBF_15 
REMARK    4  A    between atoms: CBH_17  and  NBM_18 
REMARK    5  A    between atoms: CBE_27  and  CBD_28 
REMARK    6  A    between atoms: CBC_33  and  CAX_34 
REMARK    7  A    between atoms: CAX_34  and  NBL_35 
ROOT
ATOM      1  CBF MOL d         -12.079 -26.435   1.706  0.00  0.00     0.062 A 
ATOM      2  CAN MOL d         -12.429 -26.672   0.374  0.00  0.00     0.044 A 
ATOM      3  CBH MOL d         -12.915 -25.638   2.519  0.00  0.00     0.057 A 
ATOM      4  CAK MOL d         -14.083 -25.079   1.935  0.00  0.00     0.032 A 
ATOM      5  CAJ MOL d         -14.382 -25.308   0.593  0.00  0.00     0.014 A 
ATOM      6  CBE MOL d         -13.569 -26.100  -0.212  0.00  0.00    -0.024 A 
ENDROOT
BRANCH   1   7
ATOM      7  NAY MOL d         -11.000 -27.100   2.229  0.00  0.00    -0.324 N 
ATOM      8  CBB MOL d          -9.752 -26.936   1.770  0.00  0.00     0.235 C 
ATOM      9  OAB MOL d          -9.458 -26.045   0.964  0.00  0.00    -0.272 OA
ATOM     10  H4  MOL d         -11.151 -27.735   2.986  0.00  0.00     0.169 HD
BRANCH   8  11
ATOM     11  CBG MOL d          -8.782 -27.876   2.224  0.00  0.00     0.156 A 
ATOM     12  CBI MOL d          -7.485 -27.569   2.720  0.00  0.00     0.049 A 
ATOM     13  CAO MOL d          -6.649 -28.626   3.097  0.00  0.00     0.089 A 
ATOM     14  CBJ MOL d          -7.029 -29.956   2.949  0.00  0.00     0.266 A 
ATOM     15  OAC MOL d          -6.285 -30.892   3.266  0.00  0.00    -0.266 OA
ATOM     16  NAZ MOL d          -8.297 -30.227   2.424  0.00  0.00    -0.226 NA
ATOM     17  CAL MOL d          -9.113 -29.228   2.095  0.00  0.00     0.112 A 
BRANCH  12  18
ATOM     18  CBN MOL d          -7.035 -26.252   2.904  0.00  0.00     0.415 C 
ATOM     19  FAD MOL d          -5.838 -26.189   3.551  0.00  0.00    -0.166 F 
ATOM     20  FAE MOL d          -6.822 -25.652   1.653  0.00  0.00    -0.166 F 
ATOM     21  FAF MOL d          -7.861 -25.612   3.582  0.00  0.00    -0.166 F 
ENDBRANCH  12  18
ENDBRANCH   8  11
ENDBRANCH   1   7
BRANCH   3  22
ATOM     22  NBM MOL d         -12.632 -25.330   3.808  0.00  0.00    -0.376 N 
ATOM     23  CAV MOL d         -13.685 -24.996   4.767  0.00  0.00     0.150 C 
ATOM     24  CAR MOL d         -13.163 -24.901   6.176  0.00  0.00     0.254 C 
ATOM     25  NBK MOL d         -11.984 -24.062   6.358  0.00  0.00    -0.072 N 
ATOM     26  CAA MOL d         -11.547 -24.063   7.773  0.00  0.00     0.269 C 
ATOM     27  CAS MOL d         -10.892 -24.571   5.547  0.00  0.00     0.254 C 
ATOM     28  H10 MOL d         -12.204 -23.119   6.077  0.00  0.00     0.279 HD
ATOM     29  CAW MOL d         -11.341 -24.670   4.086  0.00  0.00     0.150 C 
ENDBRANCH   3  22
BRANCH   6  30
ATOM     30  CBD MOL d         -13.843 -26.310  -1.589  0.00  0.00    -0.025 A 
ATOM     31  CAM MOL d         -12.750 -26.469  -2.474  0.00  0.00     0.021 A 
ATOM     32  CBC MOL d         -12.949 -26.676  -3.844  0.00  0.00    -0.032 A 
ATOM     33  CAH MOL d         -14.241 -26.673  -4.336  0.00  0.00     0.009 A 
ATOM     34  CAG MOL d         -15.315 -26.495  -3.485  0.00  0.00     0.001 A 
ATOM     35  CAI MOL d         -15.129 -26.299  -2.114  0.00  0.00     0.012 A 
BRANCH  32  36
ATOM     36  CAX MOL d         -11.892 -26.824  -4.730  0.00  0.00     0.270 C 
BRANCH  36  37
ATOM     37  NBL MOL d         -11.309 -28.163  -4.605  0.00  0.00    -0.075 N 
ATOM     38  CAT MOL d         -10.190 -28.348  -5.550  0.00  0.00     0.267 C 
ATOM     39  H26 MOL d         -12.020 -28.851  -4.799  0.00  0.00     0.277 HD
ATOM     40  H27 MOL d         -10.969 -28.287  -3.664  0.00  0.00     0.277 HD
ENDBRANCH  36  37
ENDBRANCH  32  36
ENDBRANCH   6  30
TORSDOF 7
