REMARK  7 active torsions:
REMARK  status: ('A' for Active; 'I' for Inactive)
REMARK    1  A    between atoms: CAS_2  and  CAP_4 
REMARK    2  A    between atoms: CAP_4  and  CAZ_5 
REMARK    3  A    between atoms: CBB_10  and  NBE_11 
REMARK    4  A    between atoms: CBD_12  and  CBC_13 
REMARK    5  A    between atoms: CAU_21  and  OAE_22 
REMARK    6  A    between atoms: CAW_23  and  CAT_24 
REMARK    7  A    between atoms: CAT_24  and  CBA_26 
ROOT
ATOM      1  NBE 1D5 d           1.621  20.013   0.331  0.00  0.00    -0.309 N 
ATOM      2  CBD 1D5 d           2.555  20.907   0.678  0.00  0.00     0.172 A 
ATOM      3  CAV 1D5 d           1.999  18.777   0.654  0.00  0.00     0.216 A 
ATOM      4  OAC 1D5 d           1.236  17.649   0.466  0.00  0.00    -0.169 OA
ATOM      5  CAU 1D5 d           3.288  18.861   1.189  0.00  0.00     0.133 A 
ATOM      6  CAW 1D5 d           3.656  20.219   1.167  0.00  0.00     0.059 A 
ENDROOT
BRANCH   1   7
ATOM      7  CBB 1D5 d           0.440  20.364  -0.401  0.00  0.00     0.037 A 
ATOM      8  CAM 1D5 d           0.540  21.219  -1.491  0.00  0.00     0.030 A 
ATOM      9  CAJ 1D5 d          -0.599  21.574  -2.199  0.00  0.00     0.010 A 
ATOM     10  CAZ 1D5 d          -1.838  21.077  -1.815  0.00  0.00    -0.048 A 
ATOM     11  CAI 1D5 d          -1.941  20.223  -0.726  0.00  0.00     0.010 A 
ATOM     12  CAL 1D5 d          -0.801  19.873  -0.015  0.00  0.00     0.030 A 
BRANCH  10  13
ATOM     13  CAP 1D5 d          -3.063  21.452  -2.577  0.00  0.00     0.151 C 
BRANCH  13  14
ATOM     14  CAS 1D5 d          -3.649  20.395  -3.451  0.00  0.00     0.176 C 
ATOM     15  OAA 1D5 d          -4.761  19.890  -3.152  0.00  0.00    -0.648 OA
ATOM     16  OAD 1D5 d          -3.033  19.998  -4.476  0.00  0.00    -0.648 OA
ENDBRANCH  13  14
ENDBRANCH  10  13
ENDBRANCH   1   7
BRANCH   2  17
ATOM     17  CBC 1D5 d           2.057  21.980   1.565  0.00  0.00     0.012 A 
ATOM     18  SAQ 1D5 d           1.447  21.671   3.095  0.00  0.00    -0.103 SA
ATOM     19  CAN 1D5 d           1.043  23.233   3.557  0.00  0.00     0.069 A 
ATOM     20  CAX 1D5 d           1.406  24.031   2.461  0.00  0.00     0.018 A 
ATOM     21 BRA  1D5 d           1.171  25.946   2.481  0.00  0.00    -0.051 Br
ATOM     22  CAO 1D5 d           1.970  23.353   1.344  0.00  0.00     0.036 A 
ENDBRANCH   2  17
BRANCH   6  23
ATOM     23  CAT 1D5 d           4.854  20.931   1.732  0.00  0.00     0.200 C 
ATOM     24  OAB 1D5 d           5.109  22.070   1.361  0.00  0.00    -0.286 OA
BRANCH  23  25
ATOM     25  CBA 1D5 d           5.773  20.340   2.741  0.00  0.00     0.057 A 
ATOM     26  SAR 1D5 d           7.347  20.876   3.023  0.00  0.00    -0.074 SA
ATOM     27  CAY 1D5 d           7.761  19.795   4.247  0.00  0.00     0.075 A 
ATOM     28 CLA  1D5 d           9.284  19.726   5.056  0.00  0.00    -0.076 Cl
ATOM     29  CAH 1D5 d           6.641  18.973   4.481  0.00  0.00     0.033 A 
ATOM     30  CAK 1D5 d           5.528  19.285   3.641  0.00  0.00     0.025 A 
ENDBRANCH  23  25
ENDBRANCH   6  23
BRANCH   5  31
ATOM     31  OAE 1D5 d           4.048  17.799   1.620  0.00  0.00    -0.356 OA
ATOM     32  H10 1D5 d           4.884  18.118   1.939  0.00  0.00     0.218 HD
ENDBRANCH   5  31
TORSDOF 7
