REMARK  19 active torsions:
REMARK  status: ('A' for Active; 'I' for Inactive)
REMARK    1  A    between atoms: C_2  and  O2_3 
REMARK       I    between atoms: N_8  and  C_2 
REMARK    2  A    between atoms: O2_3  and  CT_4 
REMARK    3  A    between atoms: CA_9  and  N_8 
REMARK    4  A    between atoms: C_10  and  CA_9 
REMARK    5  A    between atoms: CA_9  and  CB_12 
REMARK       I    between atoms: N_19  and  C_10 
REMARK    6  A    between atoms: CB_12  and  CG_13 
REMARK    7  A    between atoms: CA_20  and  N_19 
REMARK    8  A    between atoms: C_21  and  CA_20 
REMARK    9  A    between atoms: CA_20  and  CB_23 
REMARK       I    between atoms: N_29  and  C_21 
REMARK   10  A    between atoms: CB_23  and  CG_24 
REMARK   11  A    between atoms: CA_30  and  N_29 
REMARK   12  A    between atoms: P_35  and  CA_30 
REMARK   13  A    between atoms: CA_30  and  CB_31 
REMARK   14  A    between atoms: CB_31  and  CG_32 
REMARK   15  A    between atoms: CM_38  and  P_35 
REMARK   16  A    between atoms: C_39  and  CM_38 
REMARK       I    between atoms: C_39  and  N_41 
REMARK   17  A    between atoms: N_41  and  CA_42 
REMARK   18  A    between atoms: CA_42  and  CB_43 
REMARK   19  A    between atoms: CB_43  and  CG1_44 
ROOT
ATOM      1  CA  MOL d           2.125  30.749  16.592  0.00  0.00     0.182 C 
ENDROOT
BRANCH   1   2
ATOM      2  C   MOL d           2.897  32.056  16.347  0.00  0.00     0.241 C 
ATOM      3  O   MOL d           2.462  33.096  16.871  0.00  0.00    -0.271 OA
ATOM      4  N   MOL d           3.968  32.001  15.546  0.00  0.00    -0.345 N 
ATOM      5  H26 MOL d           4.162  31.113  15.130  0.00  0.00     0.163 HD
BRANCH   4   6
ATOM      6  CA  MOL d           4.882  33.078  15.209  0.00  0.00     0.176 C 
BRANCH   6   7
ATOM      7  P   MOL d           4.891  33.407  13.415  0.00  0.00     0.138 P 
ATOM      8  O2P MOL d           5.926  34.477  13.094  0.00  0.00    -0.666 OA
ATOM      9  O1P MOL d           5.130  32.110  12.755  0.00  0.00    -0.666 OA
BRANCH   7  10
ATOM     10  CM  MOL d           3.315  34.115  12.912  0.00  0.00     0.208 C 
BRANCH  10  11
ATOM     11  C   MOL d           3.136  35.561  13.324  0.00  0.00     0.227 C 
ATOM     12  O   MOL d           2.601  35.798  14.407  0.00  0.00    -0.273 OA
ATOM     13  N   MOL d           3.583  36.537  12.491  0.00  0.00    -0.360 N 
ATOM     14  H39 MOL d           3.880  36.318  11.561  0.00  0.00     0.162 HD
BRANCH  13  15
ATOM     15  CA  MOL d           3.621  37.904  12.979  0.00  0.00     0.126 C 
BRANCH  15  16
ATOM     16  CB  MOL d           3.791  38.992  11.956  0.00  0.00    -0.001 C 
ATOM     17  CG2 MOL d           2.577  38.986  11.055  0.00  0.00     0.011 C 
BRANCH  16  18
ATOM     18  CG1 MOL d           3.997  40.375  12.599  0.00  0.00     0.001 C 
ATOM     19  CD1 MOL d           4.716  41.288  11.666  0.00  0.00     0.005 C 
ENDBRANCH  16  18
ENDBRANCH  15  16
ENDBRANCH  13  15
ENDBRANCH  10  11
ENDBRANCH   7  10
ENDBRANCH   6   7
BRANCH   6  20
ATOM     20  CB  MOL d           6.335  32.923  15.776  0.00  0.00     0.040 C 
BRANCH  20  21
ATOM     21  CG  MOL d           6.484  32.550  17.274  0.00  0.00    -0.020 C 
ATOM     22  CD2 MOL d           5.846  33.550  18.221  0.00  0.00     0.009 C 
ATOM     23  CD1 MOL d           7.985  32.304  17.585  0.00  0.00     0.009 C 
ENDBRANCH  20  21
ENDBRANCH   6  20
ENDBRANCH   4   6
ENDBRANCH   1   2
BRANCH   1  24
ATOM     24  CB  MOL d           0.645  31.091  16.739  0.00  0.00     0.093 C 
BRANCH  24  25
ATOM     25  CG  MOL d          -0.019  31.711  15.538  0.00  0.00     0.030 A 
ATOM     26  CD2 MOL d           0.382  31.843  14.245  0.00  0.00     0.143 A 
ATOM     27  NE2 MOL d          -0.609  32.486  13.536  0.00  0.00    -0.254 NA
ATOM     28  CE1 MOL d          -1.640  32.738  14.365  0.00  0.00     0.207 A 
ATOM     29  ND1 MOL d          -1.317  32.281  15.569  0.00  0.00    -0.353 N 
ATOM     30  H23 MOL d          -1.920  32.333  16.402  0.00  0.00     0.166 HD
ENDBRANCH  24  25
ENDBRANCH   1  24
BRANCH   1  31
ATOM     31  N   MOL d           2.783  30.075  17.731  0.00  0.00    -0.346 N 
ATOM     32  C   MOL d           3.109  28.759  17.692  0.00  0.00     0.241 C 
ATOM     33  O   MOL d           2.809  27.939  16.771  0.00  0.00    -0.271 OA
ATOM     34  H19 MOL d           2.994  30.604  18.553  0.00  0.00     0.163 HD
BRANCH  32  35
ATOM     35  CA  MOL d           3.984  28.208  18.846  0.00  0.00     0.183 C 
BRANCH  35  36
ATOM     36  CB  MOL d           5.464  28.224  18.511  0.00  0.00     0.073 C 
BRANCH  36  37
ATOM     37  CG  MOL d           6.542  28.050  19.541  0.00  0.00    -0.056 A 
ATOM     38  CD2 MOL d           7.493  29.052  19.778  0.00  0.00     0.007 A 
ATOM     39  CE2 MOL d           8.465  28.895  20.745  0.00  0.00     0.001 A 
ATOM     40  CZ  MOL d           8.579  27.735  21.493  0.00  0.00     0.000 A 
ATOM     41  CE1 MOL d           7.680  26.720  21.236  0.00  0.00     0.001 A 
ATOM     42  CD1 MOL d           6.693  26.897  20.301  0.00  0.00     0.007 A 
ENDBRANCH  36  37
ENDBRANCH  35  36
BRANCH  35  43
ATOM     43  N   MOL d           3.520  26.824  19.178  0.00  0.00    -0.323 N 
ATOM     44  C   MOL d           2.352  26.592  19.795  0.00  0.00     0.362 C 
ATOM     45  O1  MOL d           1.553  27.394  20.280  0.00  0.00    -0.238 OA
ATOM     46  H10 MOL d           4.100  26.047  18.932  0.00  0.00     0.165 HD
BRANCH  44  47
ATOM     47  O2  MOL d           2.128  25.182  19.839  0.00  0.00    -0.294 OA
BRANCH  47  48
ATOM     48  CT  MOL d           1.010  24.518  20.458  0.00  0.00     0.061 C 
ATOM     49  C3  MOL d          -0.251  24.963  19.717  0.00  0.00     0.046 C 
ATOM     50  C2  MOL d           1.251  23.018  20.228  0.00  0.00     0.046 C 
ATOM     51  C1  MOL d           0.990  24.725  21.970  0.00  0.00     0.046 C 
ENDBRANCH  47  48
ENDBRANCH  44  47
ENDBRANCH  35  43
ENDBRANCH  32  35
ENDBRANCH   1  31
TORSDOF 19
