REMARK  0 active torsions:
REMARK  status: ('A' for Active; 'I' for Inactive)
ROOT
ATOM      1 BR1  MOL d           3.947 -26.929  49.157  0.00  0.00    -0.049 Br
ATOM      2  C5  MOL d           2.093 -27.215  49.332  0.00  0.00     0.039 A 
ATOM      3  C4  MOL d           1.331 -26.596  50.325  0.00  0.00     0.028 A 
ATOM      4  C3  MOL d          -0.049 -26.816  50.443  0.00  0.00    -0.060 A 
ATOM      5  C12 MOL d          -0.815 -26.118  51.536  0.00  0.00     0.048 C 
ATOM      6  C2  MOL d          -0.733 -27.668  49.571  0.00  0.00     0.024 A 
ATOM      7  C6  MOL d           1.440 -28.127  48.374  0.00  0.00     0.067 A 
ATOM      8  N7  MOL d           1.907 -28.858  47.323  0.00  0.00    -0.318 N 
ATOM      9  C8  MOL d           0.870 -29.517  46.782  0.00  0.00     0.297 A 
ATOM     10  O11 MOL d           0.952 -30.311  45.779  0.00  0.00    -0.264 OA
ATOM     11  C9  MOL d          -0.375 -29.244  47.502  0.00  0.00     0.252 A 
ATOM     12  C1  MOL d          -0.024 -28.307  48.567  0.00  0.00     0.048 A 
ATOM     13  O10 MOL d          -1.538 -29.706  47.238  0.00  0.00    -0.281 OA
ATOM     14  H   MOL d           2.856 -28.897  47.010  0.00  0.00     0.169 HD
ENDROOT
TORSDOF 0
