REMARK  25 active torsions:
REMARK  status: ('A' for Active; 'I' for Inactive)
REMARK       I    between atoms: N_4  and  C_1 
REMARK    1  A    between atoms: CA_5  and  N_4 
REMARK    2  A    between atoms: C_6  and  CA_5 
REMARK    3  A    between atoms: CA_5  and  CB_8 
REMARK       I    between atoms: N_15  and  C_6 
REMARK    4  A    between atoms: CB_8  and  CG_9 
REMARK    5  A    between atoms: CG_9  and  CD_10 
REMARK    6  A    between atoms: CD_10  and  NE_11 
REMARK       I    between atoms: NE_11  and  CZ_12 
REMARK       I    between atoms: CZ_12  and  NH1_13 
REMARK    7  A    between atoms: CA_16  and  N_15 
REMARK    8  A    between atoms: C_17  and  CA_16 
REMARK    9  A    between atoms: CA_16  and  CB_19 
REMARK       I    between atoms: N_25  and  C_17 
REMARK   10  A    between atoms: CB_19  and  CG_20 
REMARK   11  A    between atoms: CA_26  and  N_25 
REMARK   12  A    between atoms: C_27  and  CA_26 
REMARK   13  A    between atoms: CA_26  and  CB_29 
REMARK       I    between atoms: N_43  and  C_27 
REMARK   14  A    between atoms: CB_29  and  CG_30 
REMARK   15  A    between atoms: CG_30  and  CD_31 
REMARK   16  A    between atoms: CD_31  and  CE_32 
REMARK   17  A    between atoms: CE_32  and  NZ_33 
REMARK       I    between atoms: NZ_37  and  CH_35 
REMARK   18  A    between atoms: CE_38  and  NZ_37 
REMARK   19  A    between atoms: CD_39  and  CE_38 
REMARK   20  A    between atoms: CG_40  and  CD_39 
REMARK   21  A    between atoms: CB_41  and  CG_40 
REMARK   22  A    between atoms: CA_42  and  CB_41 
REMARK   23  A    between atoms: CA_42  and  N_43 
REMARK   24  A    between atoms: C_44  and  CA_42 
REMARK       I    between atoms: N_46  and  C_44 
REMARK   25  A    between atoms: CA_47  and  N_46 
ROOT
ATOM      1  CA  ACE d          22.957 -35.541   7.043  0.00  0.00     0.176 C 
ENDROOT
BRANCH   1   2
ATOM      2  N   ACE d          22.039 -35.006   8.076  0.00  0.00    -0.346 N 
ATOM      3  C   ACE d          22.245 -35.164   9.462  0.00  0.00     0.241 C 
ATOM      4  O   ACE d          23.228 -35.775   9.876  0.00  0.00    -0.271 OA
ATOM      5  H24 ACE d          21.228 -34.505   7.773  0.00  0.00     0.163 HD
BRANCH   3   6
ATOM      6  CA  ACE d          21.143 -34.655  10.462  0.00  0.00     0.182 C 
BRANCH   6   7
ATOM      7  N   ACE d          20.489 -35.790  11.083  0.00  0.00    -0.346 N 
ATOM      8  C   ACE d          19.953 -36.701  10.314  0.00  0.00     0.241 C 
ATOM      9  O   ACE d          20.346 -36.857   9.173  0.00  0.00    -0.271 OA
ATOM     10  H17 ACE d          20.449 -35.874  12.079  0.00  0.00     0.163 HD
BRANCH   8  11
ATOM     11  CA  ACE d          18.852 -37.594  10.803  0.00  0.00     0.176 C 
BRANCH  11  12
ATOM     12  N   ACE d          18.213 -37.155  12.039  0.00  0.00    -0.348 N 
ATOM     13  C   ACE d          18.808 -38.076  12.911  0.00  0.00     0.214 C 
ATOM     14  O   ACE d          20.078 -38.310  12.853  0.00  0.00    -0.274 OA
ATOM     15  CH3 ACE d          17.996 -37.964  14.178  0.00  0.00     0.117 C 
ATOM     16  H4  ACE d          17.554 -36.423  12.211  0.00  0.00     0.163 HD
ENDBRANCH  11  12
BRANCH  11  17
ATOM     17  CB  ACE d          17.867 -37.519   9.671  0.00  0.00     0.036 C 
BRANCH  17  18
ATOM     18  CG  ACE d          18.628 -37.857   8.374  0.00  0.00     0.023 C 
BRANCH  18  19
ATOM     19  CD  ACE d          17.937 -37.165   7.081  0.00  0.00     0.138 C 
BRANCH  19  20
ATOM     20  NE  ACE d          18.335 -38.129   6.074  0.00  0.00    -0.227 N 
ATOM     21  CZ  ACE d          17.929 -38.172   4.807  0.00  0.00     0.665 C 
ATOM     22  NH1 ACE d          17.180 -37.243   4.268  0.00  0.00    -0.235 N 
ATOM     23  NH2 ACE d          18.451 -39.146   4.075  0.00  0.00    -0.235 N 
ATOM     24  H13 ACE d          16.892 -37.322   3.282  0.00  0.00     0.174 HD
ATOM     25  H14 ACE d          16.879 -36.434   4.830  0.00  0.00     0.174 HD
ATOM     26  H15 ACE d          19.037 -39.867   4.520  0.00  0.00     0.174 HD
ATOM     27  H16 ACE d          18.270 -39.182   3.062  0.00  0.00     0.174 HD
ATOM     28  H12 ACE d          19.001 -38.856   6.370  0.00  0.00     0.177 HD
ENDBRANCH  19  20
ENDBRANCH  18  19
ENDBRANCH  17  18
ENDBRANCH  11  17
ENDBRANCH   8  11
ENDBRANCH   6   7
BRANCH   6  29
ATOM     29  CB  ACE d          21.674 -33.751  11.618  0.00  0.00     0.095 C 
BRANCH  29  30
ATOM     30  CG  ACE d          20.580 -33.201  12.561  0.00  0.00     0.053 A 
ATOM     31  ND1 ACE d          19.600 -32.311  12.145  0.00  0.00    -0.247 NA
ATOM     32  CE1 ACE d          18.779 -32.031  13.163  0.00  0.00     0.207 A 
ATOM     33  NE2 ACE d          19.241 -32.675  14.244  0.00  0.00    -0.359 N 
ATOM     34  CD2 ACE d          20.367 -33.409  13.890  0.00  0.00     0.116 A 
ATOM     35  H23 ACE d          18.828 -32.633  15.187  0.00  0.00     0.166 HD
ENDBRANCH  29  30
ENDBRANCH   6  29
ENDBRANCH   3   6
ENDBRANCH   1   2
BRANCH   1  36
ATOM     36  C   ACE d          23.121 -34.462   6.047  0.00  0.00     0.241 C 
ATOM     37  O   ACE d          22.165 -33.776   5.734  0.00  0.00    -0.271 OA
ATOM     38  N   ACE d          24.403 -34.572   5.124  0.00  0.00    -0.346 N 
ATOM     39  H50 ACE d          25.102 -35.283   5.200  0.00  0.00     0.163 HD
BRANCH  38  40
ATOM     40  CA  ACE d          24.419 -33.492   4.151  0.00  0.00     0.177 C 
BRANCH  40  41
ATOM     41  CB  ACE d          25.900 -33.284   3.806  0.00  0.00     0.035 C 
BRANCH  41  42
ATOM     42  CG  ACE d          26.107 -32.152   2.849  0.00  0.00     0.004 C 
BRANCH  42  43
ATOM     43  CD  ACE d          27.623 -32.098   2.580  0.00  0.00     0.020 C 
BRANCH  43  44
ATOM     44  CE  ACE d          27.955 -31.167   1.412  0.00  0.00     0.122 C 
BRANCH  44  45
ATOM     45  NZ  ACE d          29.401 -30.975   1.300  0.00  0.00    -0.361 N 
ATOM     46  CH  ACE d          29.934 -29.817   0.938  0.00  0.00     0.213 C 
ATOM     47  OH  ACE d          29.234 -28.910   0.598  0.00  0.00    -0.274 OA
ATOM     48  CH3 ACE d          31.425 -29.671   0.902  0.00  0.00     0.117 C 
ATOM     49  H40 ACE d          30.008 -31.744   1.504  0.00  0.00     0.162 HD
ENDBRANCH  44  45
ENDBRANCH  43  44
ENDBRANCH  42  43
ENDBRANCH  41  42
ENDBRANCH  40  41
BRANCH  40  50
ATOM     50  C   ACE d          23.663 -34.029   2.929  0.00  0.00     0.245 C 
ATOM     51  O   ACE d          23.915 -35.183   2.628  0.00  0.00    -0.271 OA
ATOM     52  N   ACE d          22.912 -33.171   2.093  0.00  0.00    -0.325 N 
ATOM     53  H51 ACE d          22.855 -32.236   2.443  0.00  0.00     0.169 HD
BRANCH  52  54
ATOM     54  CA  ACE d          22.249 -33.338   0.916  0.00  0.00     0.037 A 
ATOM     55  C2  ACE d          22.367 -34.570   0.299  0.00  0.00     0.067 A 
ATOM     56  C3  ACE d          21.727 -34.804  -0.896  0.00  0.00     0.091 A 
ATOM     57  C7  ACE d          20.916 -33.831  -1.472  0.00  0.00     0.004 A 
ATOM     58  O1  ACE d          21.913 -36.028  -1.478  0.00  0.00    -0.285 OA
ATOM     59  C6  ACE d          20.232 -34.152  -2.753  0.00  0.00    -0.044 A 
ATOM     60  C8  ACE d          20.773 -32.586  -0.836  0.00  0.00     0.017 A 
ATOM     61  C5  ACE d          20.432 -35.422  -3.333  0.00  0.00     0.074 A 
ATOM     62  C10 ACE d          19.352 -33.111  -3.404  0.00  0.00     0.049 C 
ATOM     63  C4  ACE d          21.262 -36.333  -2.669  0.00  0.00     0.221 A 
ATOM     64  O2  ACE d          21.496 -37.562  -3.157  0.00  0.00    -0.164 OA
ATOM     65  C9  ACE d          21.421 -32.345   0.368  0.00  0.00     0.030 A 
ENDBRANCH  52  54
ENDBRANCH  40  50
ENDBRANCH  38  40
ENDBRANCH   1  36
BRANCH   1  66
ATOM     66  CB  ACE d          22.381 -36.757   6.303  0.00  0.00     0.035 C 
BRANCH  66  67
ATOM     67  CG  ACE d          22.851 -38.116   6.839  0.00  0.00     0.004 C 
BRANCH  67  68
ATOM     68  CD  ACE d          22.215 -39.262   6.035  0.00  0.00     0.027 C 
BRANCH  68  69
ATOM     69  CE  ACE d          22.433 -40.620   6.701  0.00  0.00     0.229 C 
BRANCH  69  70
ATOM     70  NZ  ACE d          21.553 -40.748   7.878  0.00  0.00    -0.079 N 
ATOM     71  H34 ACE d          21.701 -41.645   8.312  0.00  0.00     0.274 HD
ATOM     72  H35 ACE d          20.591 -40.670   7.588  0.00  0.00     0.274 HD
ATOM     73  H36 ACE d          21.765 -40.016   8.538  0.00  0.00     0.274 HD
ENDBRANCH  69  70
ENDBRANCH  68  69
ENDBRANCH  67  68
ENDBRANCH  66  67
ENDBRANCH   1  66
TORSDOF 25
