REMARK  5 active torsions:
REMARK  status: ('A' for Active; 'I' for Inactive)
REMARK    1  A    between atoms: C7_7  and  C6_8 
REMARK    2  A    between atoms: C15_14  and  O2_15 
REMARK    3  A    between atoms: C5_24  and  C4_25 
REMARK    4  A    between atoms: C4_25  and  C3_26 
REMARK       I    between atoms: C3_26  and  N1_28 
REMARK    5  A    between atoms: N1_28  and  C2_29 
ROOT
ATOM      1  C6  EAM d          20.341  11.414 -11.120  0.00  0.00     0.074 C 
ATOM      2  N2  EAM d          21.452  10.849 -11.426  0.00  0.00    -0.275 NA
ATOM      3  C13 EAM d          19.071  10.735 -10.777  0.00  0.00     0.023 A 
ATOM      4  C19 EAM d          19.027   9.632  -9.932  0.00  0.00     0.055 A 
ATOM      5  C18 EAM d          17.811   9.041  -9.647  0.00  0.00     0.034 A 
ATOM      6  C17 EAM d          16.636   9.536 -10.175  0.00  0.00     0.039 A 
ATOM      7  C15 EAM d          16.702  10.638 -11.006  0.00  0.00     0.069 A 
ATOM      8  C14 EAM d          17.902  11.242 -11.307  0.00  0.00     0.053 A 
ATOM      9  N3  EAM d          20.233   9.082  -9.368  0.00  0.00    -0.282 N 
ATOM     10  C22 EAM d          21.388   8.871 -10.089  0.00  0.00     0.160 A 
ATOM     11  N5  EAM d          22.250   8.217  -9.350  0.00  0.00    -0.132 NA
ATOM     12  N4  EAM d          21.682   7.977  -8.141  0.00  0.00    -0.135 NA
ATOM     13  C20 EAM d          20.473   8.493  -8.153  0.00  0.00     0.131 A 
ATOM     14  C21 EAM d          19.527   8.452  -7.032  0.00  0.00     0.093 C 
ATOM     15  C5  EAM d          21.507   9.385 -11.508  0.00  0.00     0.189 C 
ENDROOT
BRANCH   1  16
ATOM     16  C7  EAM d          20.339  12.901 -11.135  0.00  0.00    -0.007 A 
ATOM     17  C8  EAM d          19.758  13.642 -10.124  0.00  0.00     0.015 A 
ATOM     18  C9  EAM d          19.770  15.007 -10.173  0.00  0.00     0.024 A 
ATOM     19  C10 EAM d          20.380  15.603 -11.250  0.00  0.00     0.034 A 
ATOM     20 CL   EAM d          20.409  17.337 -11.306  0.00  0.00    -0.084 Cl
ATOM     21  C11 EAM d          20.964  14.904 -12.279  0.00  0.00     0.024 A 
ATOM     22  C12 EAM d          20.927  13.537 -12.204  0.00  0.00     0.015 A 
ENDBRANCH   1  16
BRANCH  15  23
ATOM     23  C4  EAM d          22.821   9.005 -12.217  0.00  0.00     0.138 C 
BRANCH  23  24
ATOM     24  C3  EAM d          22.742   9.595 -13.598  0.00  0.00     0.220 C 
ATOM     25  O1  EAM d          21.666   9.738 -14.160  0.00  0.00    -0.274 OA
ATOM     26  N1  EAM d          23.899   9.938 -14.150  0.00  0.00    -0.361 N 
ATOM     27  H17 EAM d          24.732   9.830 -13.608  0.00  0.00     0.162 HD
BRANCH  26  28
ATOM     28  C2  EAM d          24.019  10.459 -15.491  0.00  0.00     0.118 C 
ATOM     29  C1  EAM d          25.357  10.017 -16.025  0.00  0.00     0.026 C 
ENDBRANCH  26  28
ENDBRANCH  23  24
ENDBRANCH  15  23
BRANCH   7  30
ATOM     30  O2  EAM d          15.567  11.203 -11.580  0.00  0.00    -0.356 OA
ATOM     31  C16 EAM d          14.292  10.765 -11.125  0.00  0.00     0.210 C 
ENDBRANCH   7  30
TORSDOF 5
