3ama_ligand

Created by X-TOOL on Fri Sep 26 17:34:51 2014
 39 41  0  0  0  0  0  0  0  0999 V2000
  -28.6830   10.0970   11.9220  S 0  0  0  1  0  4
  -32.1560    9.8830    3.7540  C 0  0  0  1  0  3
  -28.7600   11.7680    5.1630  F 0  0  0  1  0  1
  -32.7050    9.9840    2.5270  N 0  0  0  3  0  3
  -29.5200   10.0720   13.1440  O 0  0  0  1  0  1
  -31.9350    9.7100    5.8650  C 0  0  0  1  0  3
  -28.0770    7.7870    2.6430  F 0  0  0  1  0  1
  -32.8470    9.7610    4.8840  N 0  0  0  1  0  2
  -27.9410   11.4000   11.7950  O 0  0  0  1  0  1
  -31.4040    9.6890    8.2320  C 0  0  0  1  0  3
  -32.2440    9.5780    7.1800  N 0  0  0  2  0  3
  -29.9410   10.0090    1.9880  O 0  0  0  1  0  1
  -30.0060    9.7340    8.1000  C 0  0  0  2  0  3
  -27.6010    8.8890   11.9620  N 0  0  0  3  0  3
  -29.1850    9.8560    9.2300  C 0  0  0  2  0  3
  -30.7180    9.7660    5.3140  N 0  0  0  1  0  2
  -29.7490    9.9280   10.5000  C 0  0  0  1  0  3
  -30.8520    9.9000    4.0690  N 0  0  0  1  0  3
  -31.1380    9.8940   10.6410  C 0  0  0  2  0  3
  -31.9640    9.7690    9.5190  C 0  0  0  2  0  3
  -29.8050    9.9720    3.2190  C 0  0  0  1  0  3
  -28.4260    9.7910    3.8830  C 0  0  0  1  0  3
  -27.9940   10.7000    4.8540  C 0  0  0  1  0  3
  -26.7610   10.5130    5.4890  C 0  0  0  2  0  3
  -25.9770    9.4020    5.1640  C 0  0  0  2  0  3
  -26.4190    8.4880    4.2010  C 0  0  0  2  0  3
  -27.6450    8.6810    3.5630  C 0  0  0  1  0  3
  -33.7288    9.9571    2.4171  H 0  0  0  1  0  1
  -32.1007   10.0881    1.6994  H 0  0  0  1  0  1
  -33.2285    9.3701    7.4003  H 0  0  0  1  0  1
  -29.5577    9.6738    7.1149  H 0  0  0  1  0  1
  -27.9116    7.9420   12.0443  H 0  0  0  1  0  1
  -26.6234    9.0913   11.9044  H 0  0  0  1  0  1
  -28.1079    9.8943    9.1140  H 0  0  0  1  0  1
  -31.5798    9.9651   11.6283  H 0  0  0  1  0  1
  -33.0404    9.7337    9.6424  H 0  0  0  1  0  1
  -26.4156   11.2259    6.2290  H 0  0  0  1  0  1
  -25.0249    9.2483    5.6589  H 0  0  0  1  0  1
  -25.8079    7.6285    3.9501  H 0  0  0  1  0  1
  1  5  2  0  0  2
  1  9  2  0  0  2
  1 14  1  0  0  2
 17  1  1  0  0  2
  2  4  1  0  0  2
  2  8  2  0  0  1
 18  2  1  0  0  1
 23  3  1  0  0  2
  6  8  1  0  0  1
  6 11  1  0  0  2
 16  6  2  0  0  1
 27  7  1  0  0  2
 11 10  1  0  0  2
 10 13  4  0  0  1
 10 20  4  0  0  1
 21 12  2  0  0  2
 13 15  4  0  0  1
 15 17  4  0  0  1
 18 16  1  0  0  1
 19 17  4  0  0  1
 21 18  1  0  0  2
 20 19  4  0  0  1
 22 21  1  0  0  2
 22 23  4  0  0  1
 22 27  4  0  0  1
 23 24  4  0  0  1
 24 25  4  0  0  1
 25 26  4  0  0  1
 26 27  4  0  0  1
  4 28  1  0  0  2
  4 29  1  0  0  2
 11 30  1  0  0  2
 13 31  1  0  0  2
 14 32  1  0  0  2
 14 33  1  0  0  2
 15 34  1  0  0  2
 19 35  1  0  0  2
 20 36  1  0  0  2
 24 37  1  0  0  2
 25 38  1  0  0  2
 26 39  1  0  0  2
M  END
> <MOLECULAR_FORMULA>
C15H12N6O3SF2

> <MOLECULAR_WEIGHT>
394.3

> <NUM_HB_ATOMS>
9  

> <NUM_ROTOR>
1  

> <XLOGP2>
2.18 

$$$$
