REMARK  22 active torsions:
REMARK  status: ('A' for Active; 'I' for Inactive)
REMARK    1  A    between atoms: O6_21  and  C1_1 
REMARK    2  A    between atoms: C2_2  and  O2_7 
REMARK    3  A    between atoms: C3_3  and  O3_8 
REMARK    4  A    between atoms: C4_4  and  O4_9 
REMARK    5  A    between atoms: O4_31  and  C1_11 
REMARK    6  A    between atoms: C2_12  and  O2_17 
REMARK    7  A    between atoms: C3_13  and  O3_18 
REMARK    8  A    between atoms: C4_14  and  O4_19 
REMARK    9  A    between atoms: C5_15  and  C6_16 
REMARK   10  A    between atoms: C6_16  and  O6_21 
REMARK   11  A    between atoms: C1_22  and  O1_28 
REMARK   12  A    between atoms: C2_23  and  O2_29 
REMARK   13  A    between atoms: O3_30  and  C3_24 
REMARK   14  A    between atoms: C4_25  and  O4_31 
REMARK   15  A    between atoms: C5_26  and  C6_27 
REMARK   16  A    between atoms: C6_27  and  O6_33 
REMARK   17  A    between atoms: C1_34  and  O3_30 
REMARK   18  A    between atoms: N2_42  and  C2_35 
REMARK   19  A    between atoms: C3_36  and  O3_43 
REMARK   20  A    between atoms: C4_37  and  O4_44 
REMARK   21  A    between atoms: C5_38  and  C6_39 
REMARK   22  A    between atoms: C6_39  and  O6_46 
REMARK       I    between atoms: C7_40  and  N2_42 
ROOT
ATOM      1  C1  RAM d         -16.337  -1.186  36.661  0.00  0.00     0.288 C 
ATOM      2  C2  RAM d         -17.322  -0.284  35.934  0.00  0.00     0.204 C 
ATOM      3  C3  RAM d         -17.423  -0.812  34.488  0.00  0.00     0.190 C 
ATOM      4  C4  RAM d         -16.049  -1.210  33.896  0.00  0.00     0.187 C 
ATOM      5  C5  RAM d         -15.338  -2.269  34.785  0.00  0.00     0.180 C 
ATOM      6  O5  RAM d         -15.265  -1.943  36.172  0.00  0.00    -0.349 OA
ENDROOT
BRANCH   4   7
ATOM      7  O4  RAM d         -15.287  -0.146  33.593  0.00  0.00    -0.348 OA
BRANCH   7   8
ATOM      8  C1  RAM d         -14.675  -0.058  32.321  0.00  0.00     0.292 C 
ATOM      9  C2  RAM d         -13.585   1.003  32.324  0.00  0.00     0.204 C 
ATOM     10  C3  RAM d         -14.193   2.393  32.502  0.00  0.00     0.183 C 
ATOM     11  C4  RAM d         -15.250   2.624  31.433  0.00  0.00     0.180 C 
ATOM     12  C5  RAM d         -16.284   1.491  31.482  0.00  0.00     0.180 C 
ATOM     13  O5  RAM d         -15.621   0.255  31.334  0.00  0.00    -0.348 OA
BRANCH   9  14
ATOM     14  O2  RAM d         -12.740   0.703  33.396  0.00  0.00    -0.388 OA
ATOM     15  H19 RAM d         -13.237   0.724  34.205  0.00  0.00     0.210 HD
ENDBRANCH   9  14
BRANCH  10  16
ATOM     16  O3  RAM d         -13.196   3.409  32.429  0.00  0.00    -0.390 OA
ATOM     17  H20 RAM d         -13.600   4.258  32.566  0.00  0.00     0.210 HD
ENDBRANCH  10  16
BRANCH  11  18
ATOM     18  O4  RAM d         -15.863   3.859  31.659  0.00  0.00    -0.390 OA
ATOM     19  H21 RAM d         -15.209   4.547  31.625  0.00  0.00     0.210 HD
ENDBRANCH  11  18
BRANCH  12  20
ATOM     20  C6  RAM d         -17.328   1.527  30.373  0.00  0.00     0.205 C 
BRANCH  20  21
ATOM     21  O6  RAM d         -16.725   1.785  29.184  0.00  0.00    -0.356 OA
BRANCH  21  22
ATOM     22  C1  RAM d         -16.981   2.932  28.408  0.00  0.00     0.291 C 
ATOM     23  C2  RAM d         -16.099   2.892  27.156  0.00  0.00     0.204 C 
ATOM     24  C3  RAM d         -16.580   1.865  26.139  0.00  0.00     0.183 C 
ATOM     25  C4  RAM d         -18.085   1.991  25.925  0.00  0.00     0.178 C 
ATOM     26  C5  RAM d         -18.838   1.952  27.270  0.00  0.00     0.152 C 
ATOM     27  C6  RAM d         -20.336   2.199  27.111  0.00  0.00     0.042 C 
ATOM     28  O5  RAM d         -18.370   2.992  28.113  0.00  0.00    -0.351 OA
BRANCH  23  29
ATOM     29  O2  RAM d         -16.145   4.177  26.601  0.00  0.00    -0.388 OA
ATOM     30  H9  RAM d         -15.584   4.210  25.835  0.00  0.00     0.210 HD
ENDBRANCH  23  29
BRANCH  24  31
ATOM     31  O3  RAM d         -15.911   2.000  24.893  0.00  0.00    -0.390 OA
ATOM     32  H10 RAM d         -16.205   1.317  24.301  0.00  0.00     0.210 HD
ENDBRANCH  24  31
BRANCH  25  33
ATOM     33  O4  RAM d         -18.479   0.951  25.049  0.00  0.00    -0.390 OA
ATOM     34  H11 RAM d         -17.988   1.019  24.238  0.00  0.00     0.210 HD
ENDBRANCH  25  33
ENDBRANCH  21  22
ENDBRANCH  20  21
ENDBRANCH  12  20
ENDBRANCH   7   8
ENDBRANCH   4   7
BRANCH   3  35
ATOM     35  O3  RAM d         -18.090   0.165  33.733  0.00  0.00    -0.348 OA
BRANCH  35  36
ATOM     36  C1  RAM d         -19.372  -0.045  33.368  0.00  0.00     0.286 C 
ATOM     37  C2  RAM d         -20.007   1.307  33.042  0.00  0.00     0.170 C 
ATOM     38  C3  RAM d         -21.366   1.232  32.339  0.00  0.00     0.177 C 
ATOM     39  C4  RAM d         -21.408   0.125  31.296  0.00  0.00     0.180 C 
ATOM     40  C5  RAM d         -20.748  -1.140  31.820  0.00  0.00     0.179 C 
ATOM     41  O5  RAM d         -19.404  -0.893  32.238  0.00  0.00    -0.349 OA
BRANCH  37  42
ATOM     42  N2  RAM d         -20.157   2.086  34.256  0.00  0.00    -0.349 N 
ATOM     43  C7  RAM d         -19.419   3.165  34.506  0.00  0.00     0.214 C 
ATOM     44  C8  RAM d         -19.693   3.871  35.804  0.00  0.00     0.117 C 
ATOM     45  O7  RAM d         -18.545   3.573  33.736  0.00  0.00    -0.274 OA
ATOM     46  H42 RAM d         -20.840   1.802  34.929  0.00  0.00     0.163 HD
ENDBRANCH  37  42
BRANCH  38  47
ATOM     47  O3  RAM d         -21.684   2.484  31.752  0.00  0.00    -0.391 OA
ATOM     48  H43 RAM d         -21.653   3.162  32.417  0.00  0.00     0.210 HD
ENDBRANCH  38  47
BRANCH  39  49
ATOM     49  O4  RAM d         -22.765  -0.126  30.978  0.00  0.00    -0.390 OA
ATOM     50  H44 RAM d         -23.165   0.671  30.652  0.00  0.00     0.210 HD
ENDBRANCH  39  49
BRANCH  40  51
ATOM     51  C6  RAM d         -20.774  -2.277  30.813  0.00  0.00     0.198 C 
BRANCH  51  52
ATOM     52  O6  RAM d         -20.023  -1.935  29.671  0.00  0.00    -0.398 OA
ATOM     53  H45 RAM d         -19.123  -1.764  29.924  0.00  0.00     0.209 HD
ENDBRANCH  51  52
ENDBRANCH  40  51
ENDBRANCH  35  36
ENDBRANCH   3  35
BRANCH   5  54
ATOM     54  C6  RAM d         -13.898  -2.586  34.392  0.00  0.00     0.198 C 
BRANCH  54  55
ATOM     55  O6  RAM d         -13.843  -3.747  33.621  0.00  0.00    -0.398 OA
ATOM     56  H31 RAM d         -12.940  -3.928  33.386  0.00  0.00     0.209 HD
ENDBRANCH  54  55
ENDBRANCH   5  54
BRANCH   2  57
ATOM     57  O2  RAM d         -18.576  -0.297  36.564  0.00  0.00    -0.388 OA
ATOM     58  H30 RAM d         -18.908  -1.187  36.587  0.00  0.00     0.210 HD
ENDBRANCH   2  57
BRANCH   1  59
ATOM     59  O1  RAM d         -17.183  -2.325  36.789  0.00  0.00    -0.369 OA
ATOM     60  H29 RAM d         -18.029  -2.054  37.126  0.00  0.00     0.212 HD
ENDBRANCH   1  59
TORSDOF 22
