REMARK  2 active torsions:
REMARK  status: ('A' for Active; 'I' for Inactive)
REMARK    1  A    between atoms: C11_14  and  C10_3 
REMARK    2  A    between atoms: C14_16  and  N15_17 
ROOT
ATOM      1  C4  AJ6 d         -12.460   1.853  14.204  0.00  0.00     0.246 A 
ATOM      2  C8  AJ6 d         -12.100   2.545  11.947  0.00  0.00     0.046 A 
ATOM      3  C10 AJ6 d         -11.777   3.211   9.634  0.00  0.00    -0.022 A 
ATOM      4  C20 AJ6 d         -11.901   4.909  11.370  0.00  0.00     0.015 A 
ATOM      5  C21 AJ6 d         -12.088   3.930  12.375  0.00  0.00    -0.003 A 
ATOM      6  C1  AJ6 d         -12.327   5.748  14.347  0.00  0.00     0.049 C 
ATOM      7  C2  AJ6 d         -12.283   4.277  13.812  0.00  0.00    -0.044 A 
ATOM      8  C3  AJ6 d         -12.458   3.235  14.673  0.00  0.00     0.082 A 
ATOM      9  O5  AJ6 d         -12.653   0.923  15.008  0.00  0.00    -0.268 OA
ATOM     10  N6  AJ6 d         -12.292   1.553  12.883  0.00  0.00    -0.323 N 
ATOM     11  C9  AJ6 d         -11.929   2.208  10.607  0.00  0.00     0.042 A 
ATOM     12  C19 AJ6 d         -11.729   4.547  10.044  0.00  0.00     0.013 A 
ATOM     13  H7  AJ6 d         -12.309   0.597  12.590  0.00  0.00     0.169 HD
ENDROOT
BRANCH   3  14
ATOM     14  C11 AJ6 d         -11.582   2.886   8.180  0.00  0.00    -0.004 A 
ATOM     15  C17 AJ6 d         -12.525   2.080   7.454  0.00  0.00     0.047 A 
ATOM     16  C16 AJ6 d         -12.298   1.858   6.104  0.00  0.00     0.053 A 
ATOM     17 CL   AJ6 d         -13.979   1.408   8.185  0.00  0.00    -0.083 Cl
ATOM     18  C14 AJ6 d         -11.164   2.404   5.483  0.00  0.00     0.027 A 
ATOM     19  C13 AJ6 d         -10.229   3.163   6.177  0.00  0.00     0.030 A 
ATOM     20  C12 AJ6 d         -10.441   3.403   7.519  0.00  0.00     0.016 A 
BRANCH  18  21
ATOM     21  N15 AJ6 d         -10.963   2.165   4.127  0.00  0.00    -0.399 N 
ATOM     22  H10 AJ6 d         -11.645   1.605   3.596  0.00  0.00     0.156 HD
ATOM     23  H11 AJ6 d         -10.132   2.548   3.654  0.00  0.00     0.156 HD
ENDBRANCH  18  21
ENDBRANCH   3  14
TORSDOF 2
