REMARK  6 active torsions:
REMARK  status: ('A' for Active; 'I' for Inactive)
REMARK    1  A    between atoms: C4_5  and  C9_6 
REMARK    2  A    between atoms: C6_9  and  S1_10 
REMARK    3  A    between atoms: S1_10  and  N1_13 
REMARK    4  A    between atoms: N1_13  and  C12_14 
REMARK    5  A    between atoms: N2_19  and  C16_20 
REMARK    6  A    between atoms: C16_20  and  C18_22 
REMARK       I    between atoms: C18_22  and  N3_24 
ROOT
ATOM      1  C12 GSX d           5.471   6.375  22.256  0.00  0.00     0.186 C 
ATOM      2  C13 GSX d           4.294   5.458  21.930  0.00  0.00     0.055 C 
ATOM      3  C14 GSX d           4.927   4.100  21.603  0.00  0.00     0.129 C 
ATOM      4  C15 GSX d           6.606   5.724  21.476  0.00  0.00     0.244 C 
ATOM      5  O3  GSX d           7.660   6.290  21.223  0.00  0.00    -0.271 OA
ATOM      6  N2  GSX d           6.276   4.445  21.153  0.00  0.00    -0.337 N 
ENDROOT
BRANCH   1   7
ATOM      7  N1  GSX d           5.271   7.768  21.860  0.00  0.00    -0.301 N 
ATOM      8  H5  GSX d           5.165   8.026  20.900  0.00  0.00     0.173 HD
BRANCH   7   9
ATOM      9  S1  GSX d           5.229   8.872  23.036  0.00  0.00     0.266 S 
ATOM     10  O2  GSX d           4.523   8.388  24.197  0.00  0.00    -0.200 OA
ATOM     11  O1  GSX d           4.817  10.099  22.413  0.00  0.00    -0.200 OA
BRANCH   9  12
ATOM     12  C6  GSX d           6.927   8.939  23.606  0.00  0.00     0.120 A 
ATOM     13  C7  GSX d           7.987   9.623  23.002  0.00  0.00     0.034 A 
ATOM     14  C8  GSX d           9.201   9.464  23.688  0.00  0.00     0.022 A 
ATOM     15  C9  GSX d           9.080   8.698  24.859  0.00  0.00     0.023 A 
ATOM     16  S3  GSX d           7.478   8.125  25.025  0.00  0.00    -0.075 SA
BRANCH  15  17
ATOM     17  C4  GSX d          10.193   8.303  25.753  0.00  0.00     0.023 A 
ATOM     18  C3  GSX d          10.106   7.671  27.002  0.00  0.00     0.022 A 
ATOM     19  C2  GSX d          11.376   7.380  27.556  0.00  0.00     0.033 A 
ATOM     20  C1  GSX d          12.418   7.766  26.700  0.00  0.00     0.075 A 
ATOM     21 CL1  GSX d          14.105   7.532  26.989  0.00  0.00    -0.076 Cl
ATOM     22  S6  GSX d          11.821   8.488  25.265  0.00  0.00    -0.077 SA
ENDBRANCH  15  17
ENDBRANCH   9  12
ENDBRANCH   7   9
ENDBRANCH   1   7
BRANCH   6  23
ATOM     23  C16 GSX d           7.205   3.496  20.463  0.00  0.00     0.175 C 
ATOM     24  C17 GSX d           7.218   2.047  21.020  0.00  0.00     0.042 C 
BRANCH  23  25
ATOM     25  C18 GSX d           6.985   3.453  18.941  0.00  0.00     0.242 C 
ATOM     26  O4  GSX d           5.897   3.831  18.519  0.00  0.00    -0.271 OA
ATOM     27  N3  GSX d           8.010   3.042  18.103  0.00  0.00    -0.346 N 
ATOM     28  C19 GSX d           7.744   3.097  16.648  0.00  0.00     0.152 C 
ATOM     29  C23 GSX d           9.364   2.619  18.557  0.00  0.00     0.152 C 
ATOM     30  C20 GSX d           8.683   2.261  15.771  0.00  0.00     0.187 C 
ATOM     31  O5  GSX d          10.001   2.234  16.285  0.00  0.00    -0.388 OA
ATOM     32  C22 GSX d          10.094   1.697  17.579  0.00  0.00     0.187 C 
ENDBRANCH  23  25
ENDBRANCH   6  23
TORSDOF 6
