REMARK  8 active torsions:
REMARK  status: ('A' for Active; 'I' for Inactive)
REMARK    1  A    between atoms: C9_4  and  N1_5 
REMARK    2  A    between atoms: N15_15  and  C16_14 
REMARK       I    between atoms: C14_16  and  N15_15 
REMARK    3  A    between atoms: C22_20  and  C14_16 
REMARK    4  A    between atoms: C13_17  and  N7_25 
REMARK    5  A    between atoms: N4_21  and  C22_20 
REMARK    6  A    between atoms: C34_24  and  O33_23 
REMARK    7  A    between atoms: C34_24  and  C15_34 
REMARK       I    between atoms: N7_25  and  C5_26 
REMARK    8  A    between atoms: C5_26  and  C2_28 
ROOT
ATOM      1  C13 LZH d          11.513  67.408   3.641  0.00  0.00     0.112 C 
ATOM      2  C24 LZH d          10.514  68.364   4.318  0.00  0.00     0.062 C 
ATOM      3  N4  LZH d           9.265  66.810   3.141  0.00  0.00    -0.054 N 
ATOM      4  C20 LZH d          10.669  66.409   2.862  0.00  0.00     0.261 C 
ATOM      5  C15 LZH d           9.236  68.225   3.510  0.00  0.00     0.214 C 
ATOM      6  H14 LZH d           9.000  66.301   3.970  0.00  0.00     0.281 HD
ENDROOT
BRANCH   3   7
ATOM      7  C22 LZH d           8.261  66.434   2.143  0.00  0.00     0.338 C 
BRANCH   7   8
ATOM      8  C14 LZH d           7.993  64.948   2.256  0.00  0.00     0.248 C 
ATOM      9  N15 LZH d           8.437  64.232   3.317  0.00  0.00    -0.323 N 
ATOM     10  H8  LZH d           9.005  64.642   4.030  0.00  0.00     0.169 HD
ATOM     11  O27 LZH d           7.369  64.424   1.347  0.00  0.00    -0.271 OA
BRANCH   9  12
ATOM     12  C16 LZH d           8.059  62.900   3.358  0.00  0.00     0.073 A 
ATOM     13  C17 LZH d           8.489  62.010   2.385  0.00  0.00     0.145 A 
ATOM     14  F32 LZH d           9.309  62.446   1.418  0.00  0.00    -0.204 F 
ATOM     15  C11 LZH d           8.114  60.654   2.397  0.00  0.00     0.074 A 
ATOM     16  C9  LZH d           7.286  60.182   3.408  0.00  0.00     0.045 A 
ATOM     17  C26 LZH d           6.853  61.069   4.383  0.00  0.00     0.032 A 
ATOM     18  C28 LZH d           7.238  62.412   4.366  0.00  0.00     0.035 A 
BRANCH  16  19
ATOM     19  N1  LZH d           6.895  58.815   3.390  0.00  0.00    -0.290 N 
ATOM     20  C21 LZH d           7.405  57.915   4.322  0.00  0.00     0.100 C 
ATOM     21  C29 LZH d           6.947  56.632   4.262  0.00  0.00     0.018 C 
ATOM     22  C30 LZH d           5.890  56.210   3.409  0.00  0.00     0.007 C 
ATOM     23  C23 LZH d           5.331  57.139   2.571  0.00  0.00     0.075 C 
ATOM     24  C8  LZH d           5.793  58.478   2.604  0.00  0.00     0.252 C 
ATOM     25  O25 LZH d           5.317  59.320   1.804  0.00  0.00    -0.268 OA
ENDBRANCH  16  19
ENDBRANCH   9  12
ENDBRANCH   7   8
ENDBRANCH   3   7
BRANCH   5  26
ATOM     26  C34 LZH d           9.297  69.160   2.295  0.00  0.00     0.197 C 
BRANCH  26  27
ATOM     27  O33 LZH d           8.106  68.977   1.505  0.00  0.00    -0.399 OA
ATOM     28  H17 LZH d           8.136  69.553   0.750  0.00  0.00     0.209 HD
ENDBRANCH  26  27
ENDBRANCH   5  26
BRANCH   1  29
ATOM     29  N7  LZH d          12.200  66.729   4.756  0.00  0.00    -0.350 N 
ATOM     30  C5  LZH d          13.259  65.962   4.523  0.00  0.00     0.259 C 
ATOM     31  O24 LZH d          13.627  65.785   3.373  0.00  0.00    -0.267 OA
ATOM     32  H20 LZH d          11.867  66.847   5.691  0.00  0.00     0.163 HD
BRANCH  30  33
ATOM     33  C2  LZH d          14.005  65.296   5.653  0.00  0.00     0.074 A 
ATOM     34  C12 LZH d          14.026  65.545   7.032  0.00  0.00     0.027 A 
ATOM     35  C19 LZH d          14.873  64.686   7.748  0.00  0.00     0.033 A 
ATOM     36  C10 LZH d          15.470  63.893   6.784  0.00  0.00     0.075 A 
ATOM     37  S3  LZH d          15.060  64.033   5.099  0.00  0.00    -0.072 SA
ATOM     38 CL1  LZH d          16.663  62.601   7.205  0.00  0.00    -0.076 Cl
ENDBRANCH  30  33
ENDBRANCH   1  29
TORSDOF 8
