REMARK  8 active torsions:
REMARK  status: ('A' for Active; 'I' for Inactive)
REMARK    1  A    between atoms: C2_2  and  S7_7 
REMARK    2  A    between atoms: C4_4  and  N16_16 
REMARK    3  A    between atoms: C6_6  and  N17_17 
REMARK    4  A    between atoms: S7_7  and  C8_8 
REMARK    5  A    between atoms: N16_16  and  C23_23 
REMARK    6  A    between atoms: N17_17  and  C18_18 
REMARK    7  A    between atoms: C20_20  and  C30_30 
REMARK    8  A    between atoms: C26_26  and  O29_29 
ROOT
ATOM      1  C1  MOL d           5.221  24.441  20.693  0.00  0.00     0.074 A 
ATOM      2  C2  MOL d           5.792  24.863  19.505  0.00  0.00     0.071 A 
ATOM      3  C3  MOL d           4.998  24.971  18.359  0.00  0.00     0.074 A 
ATOM      4  C4  MOL d           3.621  24.653  18.452  0.00  0.00     0.127 A 
ATOM      5  N5  MOL d           3.090  24.244  19.613  0.00  0.00    -0.214 NA
ATOM      6  C6  MOL d           3.864  24.125  20.708  0.00  0.00     0.132 A 
ENDROOT
BRANCH   6   7
ATOM      7  N17 MOL d           3.269  23.733  21.843  0.00  0.00    -0.324 N 
ATOM      8  H9  MOL d           3.843  23.583  22.685  0.00  0.00     0.169 HD
BRANCH   7   9
ATOM      9  C18 MOL d           1.934  23.530  21.910  0.00  0.00     0.151 A 
ATOM     10  C19 MOL d           0.845  23.510  21.067  0.00  0.00     0.084 A 
ATOM     11  C20 MOL d          -0.184  23.156  21.933  0.00  0.00     0.064 A 
ATOM     12  N21 MOL d           0.197  22.957  23.171  0.00  0.00    -0.276 N 
ATOM     13  N22 MOL d           1.558  23.213  23.132  0.00  0.00    -0.156 NA
ATOM     14  H11 MOL d          -0.377  22.677  23.979  0.00  0.00     0.189 HD
BRANCH  11  15
ATOM     15  C30 MOL d          -1.618  22.926  21.827  0.00  0.00    -0.008 A 
ATOM     16  C31 MOL d          -2.241  22.351  22.920  0.00  0.00     0.014 A 
ATOM     17  C32 MOL d          -3.600  22.106  22.800  0.00  0.00     0.001 A 
ATOM     18  C33 MOL d          -4.329  22.467  21.643  0.00  0.00     0.000 A 
ATOM     19  C34 MOL d          -3.672  23.070  20.580  0.00  0.00     0.001 A 
ATOM     20  C35 MOL d          -2.283  23.300  20.662  0.00  0.00     0.014 A 
ENDBRANCH  11  15
ENDBRANCH   7   9
ENDBRANCH   6   7
BRANCH   2  21
ATOM     21  S7  MOL d           7.357  25.219  19.522  0.00  0.00     0.207 S 
ATOM     22  O14 MOL d           7.740  25.606  18.194  0.00  0.00    -0.217 OA
ATOM     23  O15 MOL d           8.160  24.110  19.995  0.00  0.00    -0.217 OA
BRANCH  21  24
ATOM     24  C8  MOL d           7.754  26.419  20.540  0.00  0.00     0.064 A 
ATOM     25  C9  MOL d           7.248  27.716  20.394  0.00  0.00     0.024 A 
ATOM     26  C10 MOL d           7.626  28.709  21.294  0.00  0.00     0.002 A 
ATOM     27  C11 MOL d           8.518  28.435  22.337  0.00  0.00     0.000 A 
ATOM     28  C12 MOL d           9.041  27.151  22.494  0.00  0.00     0.002 A 
ATOM     29  C13 MOL d           8.650  26.159  21.592  0.00  0.00     0.024 A 
ENDBRANCH  21  24
ENDBRANCH   2  21
BRANCH   4  30
ATOM     30  N16 MOL d           2.738  24.707  17.426  0.00  0.00    -0.370 N 
ATOM     31  H8  MOL d           2.986  25.236  16.578  0.00  0.00     0.161 HD
BRANCH  30  32
ATOM     32  C23 MOL d           1.444  24.034  17.492  0.00  0.00     0.083 C 
ATOM     33  C24 MOL d           1.597  22.624  16.937  0.00  0.00     0.028 C 
ATOM     34  C25 MOL d           0.259  21.888  16.908  0.00  0.00     0.034 C 
ATOM     35  C26 MOL d          -0.853  22.626  16.140  0.00  0.00     0.118 C 
ATOM     36  C27 MOL d          -0.921  24.124  16.458  0.00  0.00     0.034 C 
ATOM     37  C28 MOL d           0.444  24.783  16.619  0.00  0.00     0.028 C 
BRANCH  35  38
ATOM     38  O29 MOL d          -2.112  22.039  16.500  0.00  0.00    -0.396 OA
ATOM     39  H22 MOL d          -2.092  21.108  16.311  0.00  0.00     0.210 HD
ENDBRANCH  35  38
ENDBRANCH  30  32
ENDBRANCH   4  30
TORSDOF 8
