REMARK  2 active torsions:
REMARK  status: ('A' for Active; 'I' for Inactive)
REMARK    1  A    between atoms: CAP_3  and  OAB_4 
REMARK    2  A    between atoms: CAR_7  and  CAV_8 
ROOT
ATOM      1  CAV MOL d         -14.926  82.470   5.507  0.00  0.00     0.156 A 
ATOM      2  CAU MOL d         -15.827  81.687   4.754  0.00  0.00     0.034 A 
ATOM      3  NAM MOL d         -14.555  81.580   6.631  0.00  0.00    -0.343 N 
ATOM      4  CAO MOL d         -15.206  80.444   6.443  0.00  0.00     0.273 A 
ATOM      5  OAA MOL d         -15.117  79.459   7.177  0.00  0.00    -0.266 OA
ATOM      6  CAT MOL d         -15.972  80.500   5.358  0.00  0.00     0.155 A 
ATOM      7  NAN MOL d         -16.842  79.791   4.646  0.00  0.00    -0.168 NA
ATOM      8  NAL MOL d         -17.231  80.426   3.699  0.00  0.00    -0.276 N 
ATOM      9  CAS MOL d         -16.652  81.630   3.698  0.00  0.00     0.071 A 
ATOM     10  CAQ MOL d         -16.870  82.573   2.753  0.00  0.00    -0.007 A 
ATOM     11  CAF MOL d         -16.645  83.933   2.994  0.00  0.00     0.014 A 
ATOM     12  CAD MOL d         -16.871  84.874   1.990  0.00  0.00     0.001 A 
ATOM     13  CAC MOL d         -17.325  84.482   0.732  0.00  0.00     0.000 A 
ATOM     14  CAE MOL d         -17.552  83.137   0.476  0.00  0.00     0.001 A 
ATOM     15  CAG MOL d         -17.323  82.198   1.481  0.00  0.00     0.014 A 
ATOM     16  H   MOL d         -13.934  81.796   7.385  0.00  0.00     0.163 HD
ATOM     17  H   MOL d         -17.907  80.092   2.997  0.00  0.00     0.189 HD
ENDROOT
BRANCH   1  18
ATOM     18  CAR MOL d         -13.718  82.834   4.874  0.00  0.00    -0.031 A 
ATOM     19  CAJ MOL d         -13.291  84.170   4.902  0.00  0.00     0.012 A 
ATOM     20  CAH MOL d         -12.082  84.541   4.309  0.00  0.00     0.037 A 
ATOM     21  CAP MOL d         -11.282  83.578   3.698  0.00  0.00     0.065 A 
ATOM     22  CAI MOL d         -11.688  82.248   3.680  0.00  0.00     0.037 A 
ATOM     23  CAK MOL d         -12.896  81.874   4.270  0.00  0.00     0.012 A 
BRANCH  21  24
ATOM     24  OAB MOL d         -10.102  83.929   3.122  0.00  0.00    -0.361 OA
ATOM     25  H   MOL d          -9.533  84.314   3.778  0.00  0.00     0.217 HD
ENDBRANCH  21  24
ENDBRANCH   1  18
TORSDOF 2
