REMARK  8 active torsions:
REMARK  status: ('A' for Active; 'I' for Inactive)
REMARK    1  A    between atoms: O3_3  and  C2_2 
REMARK    2  A    between atoms: C4_4  and  O3_3 
REMARK    3  A    between atoms: S10_10  and  C7_7 
REMARK    4  A    between atoms: C9_9  and  C21_21 
REMARK    5  A    between atoms: N14_14  and  S10_10 
REMARK    6  A    between atoms: N17_17  and  C20_20 
REMARK    7  A    between atoms: C30_30  and  C32_32 
REMARK    8  A    between atoms: C32_32  and  C33_33 
ROOT
ATOM      1  C4  VDN d           4.008  67.563  84.512  0.00  0.00     0.082 A 
ATOM      2  C5  VDN d           4.736  68.613  83.976  0.00  0.00     0.039 A 
ATOM      3  C6  VDN d           4.148  69.523  82.977  0.00  0.00     0.027 A 
ATOM      4  C7  VDN d           2.847  69.329  82.555  0.00  0.00     0.075 A 
ATOM      5  C8  VDN d           2.044  68.207  83.113  0.00  0.00     0.043 A 
ATOM      6  C9  VDN d           2.548  67.357  84.027  0.00  0.00     0.046 A 
ENDROOT
BRANCH   6   7
ATOM      7  C21 VDN d           1.702  66.271  84.553  0.00  0.00     0.164 A 
ATOM      8  N22 VDN d           1.597  66.025  85.891  0.00  0.00    -0.304 N 
ATOM      9  C23 VDN d           0.815  65.023  86.515  0.00  0.00     0.278 A 
ATOM     10  H23 VDN d           2.130  66.616  86.496  0.00  0.00     0.171 HD
ATOM     11  C24 VDN d           0.057  64.195  85.542  0.00  0.00     0.150 A 
ATOM     12  O27 VDN d           0.789  64.885  87.721  0.00  0.00    -0.265 OA
ATOM     13  N25 VDN d           0.217  64.508  84.151  0.00  0.00    -0.212 N 
ATOM     14  C28 VDN d          -0.835  63.129  85.464  0.00  0.00     0.041 A 
ATOM     15  N26 VDN d           0.997  65.498  83.691  0.00  0.00    -0.146 NA
ATOM     16  C30 VDN d          -0.545  63.662  83.402  0.00  0.00     0.106 A 
ATOM     17  N29 VDN d          -1.203  62.803  84.110  0.00  0.00    -0.346 N 
ATOM     18  H24 VDN d          -1.839  62.062  83.783  0.00  0.00     0.167 HD
ATOM     19  C31 VDN d          -1.383  62.372  86.669  0.00  0.00     0.071 C 
BRANCH  16  20
ATOM     20  C32 VDN d          -0.544  63.806  81.886  0.00  0.00     0.078 C 
BRANCH  20  21
ATOM     21  C33 VDN d           0.581  63.056  81.129  0.00  0.00     0.003 C 
ATOM     22  C34 VDN d           0.200  61.591  80.911  0.00  0.00     0.005 C 
ENDBRANCH  20  21
ENDBRANCH  16  20
ENDBRANCH   6   7
BRANCH   1  23
ATOM     23  O3  VDN d           4.448  66.652  85.451  0.00  0.00    -0.351 OA
BRANCH  23  24
ATOM     24  C2  VDN d           5.743  66.607  86.066  0.00  0.00     0.171 C 
ATOM     25  C1  VDN d           5.649  65.412  87.021  0.00  0.00     0.034 C 
ENDBRANCH  23  24
ENDBRANCH   1  23
BRANCH   4  26
ATOM     26  S10 VDN d           2.096  70.361  81.367  0.00  0.00     0.243 S 
ATOM     27  O11 VDN d           2.700  70.039  80.092  0.00  0.00    -0.206 OA
ATOM     28  O12 VDN d           0.674  70.087  81.440  0.00  0.00    -0.206 OA
BRANCH  26  29
ATOM     29  N14 VDN d           2.396  71.942  81.781  0.00  0.00    -0.203 NA
ATOM     30  C15 VDN d           1.175  72.726  82.109  0.00  0.00     0.135 C 
ATOM     31  C16 VDN d           1.482  74.208  82.424  0.00  0.00     0.250 C 
ATOM     32  N17 VDN d           2.190  74.844  81.289  0.00  0.00    -0.069 N 
ATOM     33  C18 VDN d           3.439  74.092  81.010  0.00  0.00     0.250 C 
ATOM     34  H16 VDN d           1.601  74.790  80.473  0.00  0.00     0.280 HD
ATOM     35  C19 VDN d           3.172  72.602  80.707  0.00  0.00     0.135 C 
BRANCH  32  36
ATOM     36  C20 VDN d           2.446  76.265  81.569  0.00  0.00     0.230 C 
ATOM     37  C13 VDN d           2.476  77.196  80.332  0.00  0.00     0.034 C 
ENDBRANCH  32  36
ENDBRANCH  26  29
ENDBRANCH   4  26
TORSDOF 8
