REMARK  10 active torsions:
REMARK  status: ('A' for Active; 'I' for Inactive)
REMARK    1  A    between atoms: C1_1  and  O1_38 
REMARK    2  A    between atoms: C8_8  and  C10_11 
REMARK    3  A    between atoms: C9_9  and  C7_10 
REMARK    4  A    between atoms: C7_10  and  C13_20 
REMARK    5  A    between atoms: C16_14  and  O2_17 
REMARK    6  A    between atoms: O2_17  and  C24_18 
REMARK    7  A    between atoms: C24_18  and  C34_37 
REMARK    8  A    between atoms: C19_23  and  C31_26 
REMARK    9  A    between atoms: C31_26  and  N2_30 
REMARK   10  A    between atoms: C34_37  and  N3_33 
ROOT
ATOM      1  C1  BZT d         -24.035 -30.450  24.264  0.00  0.00     0.067 A 
ATOM      2  C2  BZT d         -24.317 -31.520  23.316  0.00  0.00     0.056 A 
ATOM      3  C3  BZT d         -23.415 -31.899  22.278  0.00  0.00     0.019 A 
ATOM      4  C4  BZT d         -22.164 -31.209  22.144  0.00  0.00    -0.011 A 
ATOM      5  C5  BZT d         -21.872 -30.151  23.067  0.00  0.00     0.016 A 
ATOM      6  C6  BZT d         -22.797 -29.774  24.123  0.00  0.00     0.037 A 
ATOM      7  S1  BZT d         -23.532 -33.109  21.065  0.00  0.00    -0.088 SA
ATOM      8  C8  BZT d         -22.062 -32.798  20.377  0.00  0.00     0.023 A 
ATOM      9  C9  BZT d         -21.385 -31.725  21.072  0.00  0.00    -0.024 A 
ENDROOT
BRANCH   8  10
ATOM     10  C10 BZT d         -21.563 -33.597  19.200  0.00  0.00    -0.018 A 
ATOM     11  C20 BZT d         -21.736 -35.019  19.283  0.00  0.00     0.015 A 
ATOM     12  C18 BZT d         -21.252 -35.815  18.190  0.00  0.00     0.037 A 
ATOM     13  C16 BZT d         -20.593 -35.245  17.013  0.00  0.00     0.068 A 
ATOM     14  C14 BZT d         -20.446 -33.836  16.969  0.00  0.00     0.037 A 
ATOM     15  C12 BZT d         -20.909 -33.021  18.019  0.00  0.00     0.015 A 
BRANCH  13  16
ATOM     16  O2  BZT d         -20.069 -35.955  15.882  0.00  0.00    -0.350 OA
BRANCH  16  17
ATOM     17  C24 BZT d         -20.199 -37.437  15.882  0.00  0.00     0.203 C 
BRANCH  17  18
ATOM     18  C34 BZT d         -19.601 -38.156  14.632  0.00  0.00     0.261 C 
BRANCH  18  19
ATOM     19  N3  BZT d         -18.138 -38.540  14.733  0.00  0.00    -0.069 N 
ATOM     20  C28 BZT d         -17.894 -39.983  14.851  0.00  0.00     0.235 C 
ATOM     21  C29 BZT d         -16.362 -39.968  14.902  0.00  0.00     0.029 C 
ATOM     22  C30 BZT d         -15.945 -38.757  14.018  0.00  0.00     0.029 C 
ATOM     23  C22 BZT d         -17.335 -38.219  13.555  0.00  0.00     0.235 C 
ATOM     24  H28 BZT d         -17.763 -38.064  15.539  0.00  0.00     0.280 HD
ENDBRANCH  18  19
ENDBRANCH  17  18
ENDBRANCH  16  17
ENDBRANCH  13  16
ENDBRANCH   8  10
BRANCH   9  25
ATOM     25  C7  BZT d         -19.971 -31.478  20.702  0.00  0.00     0.079 C 
BRANCH  25  26
ATOM     26  C13 BZT d         -18.810 -32.521  21.183  0.00  0.00    -0.052 A 
ATOM     27  C11 BZT d         -19.098 -33.661  21.992  0.00  0.00     0.008 A 
ATOM     28  C21 BZT d         -18.069 -34.542  22.368  0.00  0.00     0.011 A 
ATOM     29  C19 BZT d         -16.700 -34.401  21.988  0.00  0.00    -0.015 A 
ATOM     30  C32 BZT d         -16.417 -33.273  21.178  0.00  0.00     0.019 A 
ATOM     31  C15 BZT d         -17.452 -32.335  20.778  0.00  0.00     0.027 A 
ATOM     32 BR1  BZT d         -14.786 -32.819  20.524  0.00  0.00    -0.050 Br
BRANCH  29  33
ATOM     33  C31 BZT d         -15.691 -35.454  22.481  0.00  0.00     0.274 C 
BRANCH  33  34
ATOM     34  N2  BZT d         -15.282 -35.325  23.871  0.00  0.00    -0.067 N 
ATOM     35  C27 BZT d         -14.302 -36.257  24.533  0.00  0.00     0.235 C 
ATOM     36  C17 BZT d         -14.259 -35.657  25.973  0.00  0.00     0.029 C 
ATOM     37  C23 BZT d         -14.462 -34.129  25.885  0.00  0.00     0.029 C 
ATOM     38  C26 BZT d         -14.601 -34.025  24.315  0.00  0.00     0.235 C 
ATOM     39  H23 BZT d         -16.153 -35.408  24.372  0.00  0.00     0.280 HD
ENDBRANCH  33  34
ENDBRANCH  29  33
ENDBRANCH  25  26
ENDBRANCH   9  25
BRANCH   1  40
ATOM     40  O1  BZT d         -24.894 -30.089  25.258  0.00  0.00    -0.361 OA
ATOM     41  H37 BZT d         -25.671 -30.634  25.217  0.00  0.00     0.217 HD
ENDBRANCH   1  40
TORSDOF 10
