REMARK  1 active torsions:
REMARK  status: ('A' for Active; 'I' for Inactive)
REMARK    1  A    between atoms: C6_7  and  O3_19 
ROOT
ATOM      1  N1  IZN d          -5.198 -34.185 -25.669  0.00  0.00    -0.054 N 
ATOM      2  C1  IZN d          -5.832 -35.522 -25.669  0.00  0.00     0.241 C 
ATOM      3  C2  IZN d          -5.188 -36.403 -26.750  0.00  0.00     0.064 C 
ATOM      4  C3  IZN d          -4.633 -31.041 -26.758  0.00  0.00    -0.019 C 
ATOM      5  C4  IZN d          -5.441 -33.438 -26.931  0.00  0.00     0.177 C 
ATOM      6  C5  IZN d          -6.863 -32.826 -27.000  0.00  0.00     0.081 C 
ATOM      7  C6  IZN d          -6.935 -31.459 -27.738  0.00  0.00     0.127 C 
ATOM      8  C7  IZN d          -5.968 -30.427 -27.131  0.00  0.00     0.059 C 
ATOM      9  C8  IZN d          -4.416 -32.372 -26.689  0.00  0.00    -0.042 C 
ATOM     10  C9  IZN d          -3.157 -33.101 -26.316  0.00  0.00     0.064 C 
ATOM     11  C10 IZN d          -3.733 -34.162 -25.367  0.00  0.00     0.241 C 
ATOM     12  C11 IZN d          -5.060 -34.312 -28.151  0.00  0.00    -0.026 C 
ATOM     13  C12 IZN d          -4.943 -35.652 -28.044  0.00  0.00    -0.049 C 
ATOM     14  C13 IZN d          -4.562 -36.535 -29.213  0.00  0.00     0.213 C 
ATOM     15  C14 IZN d          -4.069 -34.520 -30.524  0.00  0.00     0.263 C 
ATOM     16  C15 IZN d          -4.794 -33.644 -29.493  0.00  0.00     0.148 C 
ATOM     17  O1  IZN d          -3.418 -34.027 -31.439  0.00  0.00    -0.265 OA
ATOM     18  O2  IZN d          -4.180 -35.861 -30.407  0.00  0.00    -0.317 OA
ATOM     19  H1  IZN d          -5.649 -33.669 -24.930  0.00  0.00     0.281 HD
ENDROOT
BRANCH   7  20
ATOM     20  O3  IZN d          -8.258 -30.958 -27.647  0.00  0.00    -0.390 OA
ATOM     21  C16 IZN d          -8.421 -29.622 -28.076  0.00  0.00     0.202 C 
ENDBRANCH   7  20
TORSDOF 1
