REMARK  7 active torsions:
REMARK  status: ('A' for Active; 'I' for Inactive)
REMARK    1  A    between atoms: CAV_22  and  CAX_24 
REMARK    2  A    between atoms: CBE_31  and  CAV_22 
REMARK    3  A    between atoms: CAY_25  and  CAW_23 
REMARK    4  A    between atoms: CAW_23  and  CBE_31 
REMARK       I    between atoms: NBC_29  and  CAY_25 
REMARK    5  A    between atoms: CBB_28  and  CAZ_26 
REMARK    6  A    between atoms: CBB_28  and  CBA_27 
REMARK    7  A    between atoms: CBB_28  and  NBD_30 
ROOT
ATOM      1  OAB 2CJ d           2.099  23.869   7.670  0.00  0.00    -0.273 OA
ATOM      2  CAP 2CJ d           2.836  27.293   6.988  0.00  0.00     0.153 C 
ATOM      3  CAQ 2CJ d           1.442  26.284   8.739  0.00  0.00     0.153 C 
ATOM      4  CAR 2CJ d           1.574  27.963   6.400  0.00  0.00     0.256 C 
ATOM      5  CAS 2CJ d           0.763  27.638   8.570  0.00  0.00     0.256 C 
ATOM      6  CAY 2CJ d           2.611  24.815   7.114  0.00  0.00     0.220 C 
ATOM      7  NBC 2CJ d           2.353  26.047   7.597  0.00  0.00    -0.349 N 
ATOM      8  NBD 2CJ d           0.337  27.696   7.175  0.00  0.00    -0.056 N 
ATOM      9  H32 2CJ d          -0.126  26.844   6.899  0.00  0.00     0.281 HD
ENDROOT
BRANCH   8  10
ATOM     10  CBB 2CJ d          -0.488  28.870   6.899  0.00  0.00     0.254 C 
BRANCH  10  11
ATOM     11  CAZ 2CJ d          -1.910  29.007   7.409  0.00  0.00    -0.023 A 
ATOM     12  CAJ 2CJ d          -2.152  29.865   8.419  0.00  0.00     0.009 A 
ATOM     13  CAF 2CJ d          -3.411  30.113   8.877  0.00  0.00     0.001 A 
ATOM     14  CAD 2CJ d          -4.453  29.517   8.257  0.00  0.00     0.000 A 
ATOM     15  CAG 2CJ d          -4.215  28.675   7.212  0.00  0.00     0.001 A 
ATOM     16  CAK 2CJ d          -2.953  28.440   6.753  0.00  0.00     0.009 A 
ENDBRANCH  10  11
BRANCH  10  17
ATOM     17  CBA 2CJ d          -0.748  29.197   5.414  0.00  0.00    -0.023 A 
ATOM     18  CAL 2CJ d          -1.620  28.469   4.641  0.00  0.00     0.009 A 
ATOM     19  CAH 2CJ d          -1.851  28.867   3.348  0.00  0.00     0.001 A 
ATOM     20  CAE 2CJ d          -1.246  29.990   2.840  0.00  0.00     0.000 A 
ATOM     21  CAI 2CJ d          -0.392  30.740   3.607  0.00  0.00     0.001 A 
ATOM     22  CAM 2CJ d          -0.166  30.350   4.894  0.00  0.00     0.009 A 
ENDBRANCH  10  17
ENDBRANCH   8  10
BRANCH   6  23
ATOM     23  CAW 2CJ d           3.504  24.494   5.929  0.00  0.00     0.113 C 
BRANCH  23  24
ATOM     24  CBE 2CJ d           3.993  23.009   5.975  0.00  0.00    -0.023 C 
ATOM     25  CAT 2CJ d           2.874  22.005   6.217  0.00  0.00     0.010 C 
ATOM     26  CAN 2CJ d           2.691  21.342   4.852  0.00  0.00     0.001 C 
ATOM     27  CAO 2CJ d           4.093  21.218   4.364  0.00  0.00     0.001 C 
ATOM     28  CAU 2CJ d           4.551  22.641   4.652  0.00  0.00     0.010 C 
BRANCH  24  29
ATOM     29  CAV 2CJ d           5.062  22.774   7.027  0.00  0.00     0.123 C 
BRANCH  29  30
ATOM     30  CAX 2CJ d           6.216  21.927   6.563  0.00  0.00     0.173 C 
ATOM     31  OAA 2CJ d           6.001  21.164   5.637  0.00  0.00    -0.648 OA
ATOM     32  OAC 2CJ d           7.281  21.994   7.185  0.00  0.00    -0.648 OA
ENDBRANCH  29  30
ENDBRANCH  24  29
ENDBRANCH  23  24
ENDBRANCH   6  23
TORSDOF 7
