REMARK  8 active torsions:
REMARK  status: ('A' for Active; 'I' for Inactive)
REMARK    1  A    between atoms: N1_1  and  C2_2 
REMARK    2  A    between atoms: C2_2  and  C3_3 
REMARK    3  A    between atoms: C6_6  and  N7_7 
REMARK       I    between atoms: N7_7  and  C8_8 
REMARK    4  A    between atoms: C8_8  and  C10_10 
REMARK    5  A    between atoms: C12_12  and  N13_13 
REMARK    6  A    between atoms: N13_13  and  C14_14 
REMARK    7  A    between atoms: C22_22  and  C27_27 
REMARK    8  A    between atoms: C27_27  and  N28_28 
ROOT
ATOM      1  C10 UI1 d          23.418  15.911  33.026  0.00  0.00     0.035 A 
ATOM      2  C11 UI1 d          23.763  16.969  33.898  0.00  0.00     0.048 A 
ATOM      3  C12 UI1 d          22.818  17.896  34.274  0.00  0.00     0.061 A 
ATOM      4  C20 UI1 d          21.473  17.783  33.783  0.00  0.00     0.002 A 
ATOM      5  C21 UI1 d          20.515  18.755  34.160  0.00  0.00     0.029 A 
ATOM      6  C22 UI1 d          19.186  18.662  33.693  0.00  0.00     0.008 A 
ATOM      7  C23 UI1 d          18.801  17.598  32.854  0.00  0.00     0.016 A 
ATOM      8  C24 UI1 d          19.756  16.625  32.469  0.00  0.00     0.013 A 
ATOM      9  C25 UI1 d          21.101  16.722  32.931  0.00  0.00    -0.023 A 
ATOM     10  C26 UI1 d          22.077  15.777  32.541  0.00  0.00     0.029 A 
ENDROOT
BRANCH   1  11
ATOM     11  C8  UI1 d          24.516  14.993  32.592  0.00  0.00     0.256 C 
ATOM     12  N7  UI1 d          24.244  14.073  31.686  0.00  0.00    -0.323 N 
ATOM     13  H8  UI1 d          23.297  13.938  31.393  0.00  0.00     0.169 HD
ATOM     14  O9  UI1 d          25.653  15.150  33.021  0.00  0.00    -0.267 OA
BRANCH  12  15
ATOM     15  C6  UI1 d          25.285  13.259  31.111  0.00  0.00     0.035 A 
ATOM     16  C5  UI1 d          25.602  13.606  29.761  0.00  0.00     0.030 A 
ATOM     17  C4  UI1 d          26.579  12.906  29.038  0.00  0.00     0.011 A 
ATOM     18  C3  UI1 d          27.263  11.844  29.651  0.00  0.00    -0.033 A 
ATOM     19  C31 UI1 d          26.959  11.488  30.991  0.00  0.00     0.011 A 
ATOM     20  C30 UI1 d          25.958  12.198  31.728  0.00  0.00     0.030 A 
BRANCH  18  21
ATOM     21  C2  UI1 d          28.330  11.073  28.859  0.00  0.00     0.268 C 
BRANCH  21  22
ATOM     22  N1  UI1 d          29.552  11.853  28.717  0.00  0.00    -0.075 N 
ATOM     23  H1  UI1 d          30.231  11.322  28.194  0.00  0.00     0.274 HD
ATOM     24  H2  UI1 d          29.923  12.066  29.630  0.00  0.00     0.274 HD
ATOM     25  H3  UI1 d          29.348  12.711  28.228  0.00  0.00     0.274 HD
ENDBRANCH  21  22
ENDBRANCH  18  21
ENDBRANCH  12  15
ENDBRANCH   1  11
BRANCH   3  26
ATOM     26  N13 UI1 d          23.218  18.997  35.111  0.00  0.00    -0.187 N 
ATOM     27  H10 UI1 d          23.135  19.951  34.733  0.00  0.00     0.184 HD
BRANCH  26  28
ATOM     28  C14 UI1 d          23.720  18.839  36.429  0.00  0.00     0.726 A 
ATOM     29  N15 UI1 d          24.154  19.942  37.085  0.00  0.00    -0.075 NA
ATOM     30  C16 UI1 d          24.625  19.855  38.349  0.00  0.00     0.138 A 
ATOM     31  C17 UI1 d          24.658  18.602  38.998  0.00  0.00     0.040 A 
ATOM     32  C18 UI1 d          24.206  17.480  38.288  0.00  0.00     0.138 A 
ATOM     33  N19 UI1 d          23.747  17.625  37.022  0.00  0.00    -0.075 NA
ENDBRANCH  26  28
ENDBRANCH   3  26
BRANCH   6  34
ATOM     34  C27 UI1 d          18.238  19.715  34.126  0.00  0.00     0.102 C 
ATOM     35  N29 UI1 d          16.965  19.677  33.756  0.00  0.00    -0.385 N 
ATOM     36  H20 UI1 d          16.624  18.908  33.161  0.00  0.00     0.157 HD
ATOM     37  H21 UI1 d          16.317  20.416  34.064  0.00  0.00     0.157 HD
BRANCH  34  38
ATOM     38  N28 UI1 d          18.656  20.693  34.879  0.00  0.00    -0.385 N 
ATOM     39  H18 UI1 d          18.000  21.427  35.182  0.00  0.00     0.157 HD
ATOM     40  H19 UI1 d          19.643  20.732  35.171  0.00  0.00     0.157 HD
ENDBRANCH  34  38
ENDBRANCH   6  34
TORSDOF 8
