REMARK  5 active torsions:
REMARK  status: ('A' for Active; 'I' for Inactive)
REMARK    1  A    between atoms: C7_7  and  C8_8 
REMARK    2  A    between atoms: C18_18  and  N19_19 
REMARK    3  A    between atoms: N19_19  and  C20_20 
REMARK    4  A    between atoms: C25_25  and  S26_26 
REMARK    5  A    between atoms: S26_26  and  N29_29 
ROOT
ATOM      1  C1  PQC d          19.297  -7.962   4.020  0.00  0.00     0.021 C 
ATOM      2  C2  PQC d          20.187  -7.036   3.124  0.00  0.00     0.017 C 
ATOM      3  C3  PQC d          20.049  -8.848   5.024  0.00  0.00     0.018 A 
ATOM      4  C4  PQC d          21.429  -9.068   4.974  0.00  0.00     0.013 A 
ATOM      5  C5  PQC d          21.954  -9.916   5.994  0.00  0.00     0.035 A 
ATOM      6  S6  PQC d          19.419  -9.699   6.329  0.00  0.00    -0.089 SA
ATOM      7  C7  PQC d          20.917 -10.348   6.833  0.00  0.00     0.016 A 
ATOM      8  C13 PQC d          22.212  -8.454   3.866  0.00  0.00     0.099 A 
ATOM      9  C14 PQC d          21.630  -7.518   2.947  0.00  0.00     0.012 A 
ATOM     10  C15 PQC d          22.484  -7.051   1.904  0.00  0.00     0.150 A 
ATOM     11  N16 PQC d          23.775  -7.477   1.825  0.00  0.00    -0.074 NA
ATOM     12  N17 PQC d          23.520  -8.827   3.715  0.00  0.00    -0.061 NA
ATOM     13  C18 PQC d          24.293  -8.362   2.722  0.00  0.00     0.727 A 
ENDROOT
BRANCH  13  14
ATOM     14  N19 PQC d          25.642  -8.759   2.609  0.00  0.00    -0.188 N 
ATOM     15  H9  PQC d          26.137  -8.358   1.800  0.00  0.00     0.184 HD
BRANCH  14  16
ATOM     16  C20 PQC d          26.451  -9.633   3.433  0.00  0.00     0.050 A 
ATOM     17  C21 PQC d          26.068 -10.124   4.725  0.00  0.00     0.055 A 
ATOM     18  C25 PQC d          26.913 -10.979   5.500  0.00  0.00     0.081 A 
ATOM     19  C24 PQC d          28.196 -11.363   4.966  0.00  0.00     0.025 A 
ATOM     20  C23 PQC d          28.608 -10.892   3.685  0.00  0.00     0.004 A 
ATOM     21  C22 PQC d          27.738 -10.038   2.943  0.00  0.00     0.030 A 
BRANCH  18  22
ATOM     22  S26 PQC d          26.346 -11.493   7.123  0.00  0.00     0.256 S 
ATOM     23  O27 PQC d          27.276 -10.883   8.069  0.00  0.00    -0.201 OA
ATOM     24  O28 PQC d          26.007 -12.897   7.139  0.00  0.00    -0.201 OA
BRANCH  22  25
ATOM     25  N29 PQC d          24.816 -10.705   7.427  0.00  0.00    -0.324 N 
ATOM     26  H14 PQC d          24.334 -10.865   8.288  0.00  0.00     0.169 HD
ATOM     27  H15 PQC d          24.423 -10.094   6.740  0.00  0.00     0.169 HD
ENDBRANCH  22  25
ENDBRANCH  18  22
ENDBRANCH  14  16
ENDBRANCH  13  14
BRANCH   7  28
ATOM     28  C8  PQC d          21.024 -11.276   8.023  0.00  0.00    -0.019 A 
ATOM     29  C9  PQC d          19.851 -11.497   8.817  0.00  0.00     0.013 A 
ATOM     30  C30 PQC d          19.880 -12.366   9.932  0.00  0.00     0.001 A 
ATOM     31  C12 PQC d          21.094 -13.038  10.272  0.00  0.00     0.000 A 
ATOM     32  C11 PQC d          22.266 -12.836   9.505  0.00  0.00     0.001 A 
ATOM     33  C10 PQC d          22.224 -11.966   8.394  0.00  0.00     0.013 A 
ENDBRANCH   7  28
TORSDOF 5
