REMARK  2 active torsions:
REMARK  status: ('A' for Active; 'I' for Inactive)
REMARK    1  A    between atoms: C6_9  and  N7_2 
REMARK    2  A    between atoms: C5_6  and  C6_9 
ROOT
ATOM      1  C4  513 d           0.981 -15.526  15.864  0.00  0.00     0.060 A 
ATOM      2  S3  513 d           0.762 -14.811  14.343  0.00  0.00    -0.101 SA
ATOM      3  C2  513 d           1.723 -13.447  14.793  0.00  0.00     0.015 A 
ATOM      4  C1  513 d           2.167 -13.618  16.092  0.00  0.00    -0.009 A 
ATOM      5  C5  513 d           1.737 -14.783  16.744  0.00  0.00    -0.015 A 
ATOM      6  C8  513 d           2.066 -12.324  14.016  0.00  0.00     0.021 A 
ATOM      7  C9  513 d           2.903 -11.401  14.611  0.00  0.00     0.020 A 
ATOM      8  C10 513 d           3.391 -11.585  15.891  0.00  0.00     0.011 A 
ATOM      9  C11 513 d           3.020 -12.689  16.717  0.00  0.00     0.032 A 
ATOM     10 BR1  513 d           4.577 -10.276  16.527  0.00  0.00    -0.051 Br
ENDROOT
BRANCH   5  11
ATOM     11  C6  513 d           2.143 -15.137  18.129  0.00  0.00     0.269 C 
BRANCH  11  12
ATOM     12  N7  513 d           1.849 -16.519  18.442  0.00  0.00    -0.075 N 
ATOM     13  H2  513 d           2.138 -16.718  19.387  0.00  0.00     0.274 HD
ATOM     14  H3  513 d           2.346 -17.121  17.804  0.00  0.00     0.274 HD
ATOM     15  H4  513 d           0.858 -16.680  18.353  0.00  0.00     0.274 HD
ENDBRANCH  11  12
ENDBRANCH   5  11
TORSDOF 2
