REMARK  7 active torsions:
REMARK  status: ('A' for Active; 'I' for Inactive)
REMARK    1  A    between atoms: OAN_2  and  CAR_3 
REMARK    2  A    between atoms: CAQ_8  and  CAL_9 
REMARK    3  A    between atoms: CAL_9  and  CAU_10 
REMARK    4  A    between atoms: CAT_13  and  OAF_14 
REMARK    5  A    between atoms: CAS_15  and  OAE_16 
REMARK    6  A    between atoms: CAV_18  and  CAO_19 
REMARK    7  A    between atoms: CAV_18  and  OAG_22 
ROOT
ATOM      1  CAU MOL d         -44.870 -28.836  -7.138  0.00  0.00     0.108 C 
ATOM      2  CAP MOL d         -45.223 -28.169  -8.481  0.00  0.00     0.165 C 
ATOM      3  OAC MOL d         -45.967 -27.169  -8.538  0.00  0.00    -0.294 OA
ATOM      4  CAT MOL d         -44.637 -28.795  -9.753  0.00  0.00     0.216 C 
ATOM      5  CAS MOL d         -43.127 -29.004  -9.560  0.00  0.00     0.157 C 
ATOM      6  CAM MOL d         -42.833 -29.834  -8.305  0.00  0.00     0.084 C 
ATOM      7  CAV MOL d         -43.314 -29.084  -7.044  0.00  0.00     0.158 C 
ENDROOT
BRANCH   1   8
ATOM      8  CAL MOL d         -45.696 -30.133  -6.993  0.00  0.00     0.054 C 
BRANCH   8   9
ATOM      9  CAQ MOL d         -47.179 -29.830  -6.936  0.00  0.00    -0.057 A 
ATOM     10  CAI MOL d         -48.006 -30.157  -7.981  0.00  0.00     0.010 A 
ATOM     11  CAK MOL d         -49.369 -29.883  -7.907  0.00  0.00     0.037 A 
ATOM     12  CAR MOL d         -49.908 -29.247  -6.804  0.00  0.00     0.068 A 
ATOM     13  CAJ MOL d         -49.056 -28.903  -5.760  0.00  0.00     0.037 A 
ATOM     14  CAH MOL d         -47.700 -29.184  -5.822  0.00  0.00     0.010 A 
BRANCH  12  15
ATOM     15  OAN MOL d         -51.242 -28.944  -6.682  0.00  0.00    -0.356 OA
ATOM     16  CAA MOL d         -52.167 -29.425  -7.690  0.00  0.00     0.210 C 
ENDBRANCH  12  15
ENDBRANCH   8   9
ENDBRANCH   1   8
BRANCH   7  17
ATOM     17  CAO MOL d         -42.986 -29.857  -5.751  0.00  0.00     0.210 C 
ATOM     18  OAB MOL d         -42.818 -31.109  -5.830  0.00  0.00    -0.646 OA
ATOM     19  OAD MOL d         -42.914 -29.186  -4.682  0.00  0.00    -0.646 OA
ENDBRANCH   7  17
BRANCH   7  20
ATOM     20  OAG MOL d         -42.636 -27.779  -7.015  0.00  0.00    -0.378 OA
ATOM     21  H17 MOL d         -42.915 -27.295  -6.246  0.00  0.00     0.211 HD
ENDBRANCH   7  20
BRANCH   4  22
ATOM     22  OAF MOL d         -44.885 -27.966 -10.913  0.00  0.00    -0.385 OA
ATOM     23  H12 MOL d         -44.511 -28.380 -11.682  0.00  0.00     0.210 HD
ENDBRANCH   4  22
BRANCH   5  24
ATOM     24  OAE MOL d         -42.616 -29.696 -10.704  0.00  0.00    -0.392 OA
ATOM     25  H14 MOL d         -42.776 -29.177 -11.484  0.00  0.00     0.210 HD
ENDBRANCH   5  24
TORSDOF 7
