REMARK  8 active torsions:
REMARK  status: ('A' for Active; 'I' for Inactive)
REMARK    1  A    between atoms: C3_5  and  C2_4 
REMARK    2  A    between atoms: C3_5  and  N5_6 
REMARK    3  A    between atoms: C15_13  and  C3_5 
REMARK    4  A    between atoms: N5_6  and  C8_7 
REMARK    5  A    between atoms: C8_7  and  C11_9 
REMARK    6  A    between atoms: C11_9  and  C12_10 
REMARK       I    between atoms: C12_10  and  N14_12 
REMARK    7  A    between atoms: C20_17  and  O21_18 
REMARK    8  A    between atoms: O21_18  and  C22_19 
ROOT
ATOM      1  F   MOL d           2.887  13.028 -42.083  0.00  0.00    -0.202 F 
ATOM      2 CL   MOL d           4.822  17.354 -40.395  0.00  0.00    -0.081 Cl
ATOM      3  C15 MOL d           1.384  14.828 -41.774  0.00  0.00     0.014 A 
ATOM      4  C16 MOL d           1.190  16.143 -41.394  0.00  0.00     0.014 A 
ATOM      5  C17 MOL d           2.252  16.907 -40.978  0.00  0.00     0.027 A 
ATOM      6  C18 MOL d           3.516  16.362 -40.935  0.00  0.00     0.071 A 
ATOM      7  C20 MOL d           3.726  15.048 -41.297  0.00  0.00     0.137 A 
ATOM      8  C28 MOL d           2.675  14.301 -41.721  0.00  0.00     0.160 A 
ENDROOT
BRANCH   3   9
ATOM      9  C3  MOL d           0.212  13.994 -42.242  0.00  0.00     0.222 C 
BRANCH   9  10
ATOM     10  C2  MOL d           0.337  13.597 -43.710  0.00  0.00     0.033 C 
ATOM     11  C1  MOL d           0.090  14.723 -44.653  0.00  0.00     0.007 C 
ENDBRANCH   9  10
BRANCH   9  12
ATOM     12  N5  MOL d           0.039  12.745 -41.416  0.00  0.00    -0.062 N 
ATOM     13  H7  MOL d           0.274  12.977 -40.464  0.00  0.00     0.278 HD
ATOM     14  H8  MOL d           0.690  12.059 -41.765  0.00  0.00     0.278 HD
BRANCH  12  15
ATOM     15  C8  MOL d          -1.328  12.108 -41.403  0.00  0.00     0.191 C 
ATOM     16  C10 MOL d          -1.266  10.750 -40.712  0.00  0.00     0.040 C 
BRANCH  15  17
ATOM     17  C11 MOL d          -2.304  13.067 -40.737  0.00  0.00     0.135 C 
BRANCH  17  18
ATOM     18  C12 MOL d          -1.957  13.317 -39.299  0.00  0.00     0.217 C 
ATOM     19  O13 MOL d          -0.803  13.417 -38.953  0.00  0.00    -0.274 OA
ATOM     20  N14 MOL d          -2.978  13.406 -38.456  0.00  0.00    -0.370 N 
ATOM     21  H15 MOL d          -2.811  13.572 -37.484  0.00  0.00     0.159 HD
ATOM     22  H16 MOL d          -3.914  13.307 -38.793  0.00  0.00     0.159 HD
ENDBRANCH  17  18
ENDBRANCH  15  17
ENDBRANCH  12  15
ENDBRANCH   9  12
ENDBRANCH   3   9
BRANCH   7  23
ATOM     23  O21 MOL d           4.977  14.501 -41.276  0.00  0.00    -0.306 OA
BRANCH  23  24
ATOM     24  C22 MOL d           5.670  14.238 -40.119  0.00  0.00     0.076 A 
ATOM     25  C23 MOL d           5.031  14.255 -38.895  0.00  0.00     0.037 A 
ATOM     26  C24 MOL d           5.737  13.982 -37.754  0.00  0.00     0.003 A 
ATOM     27  C25 MOL d           7.088  13.681 -37.826  0.00  0.00     0.000 A 
ATOM     28  C26 MOL d           7.727  13.660 -39.041  0.00  0.00     0.003 A 
ATOM     29  C27 MOL d           7.026  13.940 -40.188  0.00  0.00     0.037 A 
ENDBRANCH  23  24
ENDBRANCH   7  23
TORSDOF 8
