REMARK  3 active torsions:
REMARK  status: ('A' for Active; 'I' for Inactive)
REMARK    1  A    between atoms: CAE_5  and  NAA_1 
REMARK    2  A    between atoms: CAF_6  and  CAE_5 
REMARK    3  A    between atoms: CAF_6  and  PAG_7 
ROOT
ATOM      1  CAE P7I d          -3.438 -23.054  11.523  0.00  0.00     0.243 C 
ENDROOT
BRANCH   1   2
ATOM      2  NAA P7I d          -2.172 -22.912  10.860  0.00  0.00    -0.079 N 
ATOM      3  H1  P7I d          -2.075 -23.634  10.163  0.00  0.00     0.274 HD
ATOM      4  H2  P7I d          -1.428 -22.994  11.535  0.00  0.00     0.274 HD
ATOM      5  H3  P7I d          -2.125 -22.008  10.416  0.00  0.00     0.274 HD
ENDBRANCH   1   2
BRANCH   1   6
ATOM      6  CAF P7I d          -3.643 -21.953  12.621  0.00  0.00     0.173 C 
BRANCH   6   7
ATOM      7  PAG P7I d          -5.285 -22.016  13.283  0.00  0.00     0.261 P 
ATOM      8  OAB P7I d          -5.547 -23.467  13.849  0.00  0.00    -0.640 OA
ATOM      9  OAC P7I d          -5.327 -20.921  14.334  0.00  0.00    -0.640 OA
ATOM     10  OAD P7I d          -6.278 -21.771  12.048  0.00  0.00    -0.640 OA
ENDBRANCH   6   7
ENDBRANCH   1   6
TORSDOF 3
