REMARK  18 active torsions:
REMARK  status: ('A' for Active; 'I' for Inactive)
REMARK    1  A    between atoms: CA_2  and  N_1 
REMARK    2  A    between atoms: CA_2  and  CB_5 
REMARK    3  A    between atoms: C_3  and  CA_2 
REMARK       I    between atoms: N_10  and  C_3 
REMARK    4  A    between atoms: CB_5  and  CG_6 
REMARK    5  A    between atoms: CG_6  and  CD_7 
REMARK    6  A    between atoms: CD_7  and  CE_8 
REMARK    7  A    between atoms: CE_8  and  NZ_9 
REMARK    8  A    between atoms: CA_11  and  N_10 
REMARK    9  A    between atoms: CA_11  and  CB_14 
REMARK   10  A    between atoms: C_12  and  CA_11 
REMARK       I    between atoms: C_12  and  N_18 
REMARK   11  A    between atoms: CB_14  and  CG_15 
REMARK   12  A    between atoms: N_18  and  CA_19 
REMARK   13  A    between atoms: CA_19  and  CB_22 
REMARK   14  A    between atoms: CA_19  and  C_20 
REMARK   15  A    between atoms: CB_22  and  CG_23 
REMARK   16  A    between atoms: CG_23  and  CD_24 
REMARK   17  A    between atoms: CD_24  and  CE_25 
REMARK   18  A    between atoms: CE_25  and  NZ_26 
ROOT
ATOM      1  CA  MOL d           3.900  20.155  16.069  0.00  0.00     0.177 C 
ENDROOT
BRANCH   1   2
ATOM      2  N   MOL d           5.001  19.567  15.304  0.00  0.00    -0.346 N 
ATOM      3  C   MOL d           5.233  18.258  15.317  0.00  0.00     0.248 C 
ATOM      4  O   MOL d           4.501  17.454  15.881  0.00  0.00    -0.271 OA
ATOM      5  H16 MOL d           5.591  20.163  14.760  0.00  0.00     0.163 HD
BRANCH   3   6
ATOM      6  CA  MOL d           6.459  17.792  14.561  0.00  0.00     0.274 C 
BRANCH   6   7
ATOM      7  N   MOL d           6.968  16.518  15.137  0.00  0.00    -0.067 N 
ATOM      8  H1  MOL d           7.783  16.220  14.625  0.00  0.00     0.275 HD
ATOM      9  H2  MOL d           6.253  15.810  15.072  0.00  0.00     0.275 HD
ATOM     10  H3  MOL d           7.213  16.661  16.104  0.00  0.00     0.275 HD
ENDBRANCH   6   7
BRANCH   6  11
ATOM     11  CB  MOL d           6.274  17.708  13.031  0.00  0.00     0.042 C 
BRANCH  11  12
ATOM     12  CG  MOL d           5.366  16.537  12.622  0.00  0.00     0.004 C 
BRANCH  12  13
ATOM     13  CD  MOL d           5.246  16.474  11.095  0.00  0.00     0.027 C 
BRANCH  13  14
ATOM     14  CE  MOL d           6.524  15.885  10.480  0.00  0.00     0.229 C 
BRANCH  14  15
ATOM     15  NZ  MOL d           6.686  14.466  10.910  0.00  0.00    -0.079 N 
ATOM     16  H13 MOL d           7.526  14.085  10.503  0.00  0.00     0.274 HD
ATOM     17  H14 MOL d           5.891  13.929  10.602  0.00  0.00     0.274 HD
ATOM     18  H15 MOL d           6.751  14.425  11.915  0.00  0.00     0.274 HD
ENDBRANCH  14  15
ENDBRANCH  13  14
ENDBRANCH  12  13
ENDBRANCH  11  12
ENDBRANCH   6  11
ENDBRANCH   3   6
ENDBRANCH   1   2
BRANCH   1  19
ATOM     19  CB  MOL d           4.286  21.605  16.432  0.00  0.00     0.038 C 
BRANCH  19  20
ATOM     20  CG  MOL d           5.231  21.638  17.661  0.00  0.00    -0.020 C 
ATOM     21  CD1 MOL d           6.662  21.385  17.212  0.00  0.00     0.009 C 
ATOM     22  CD2 MOL d           5.114  22.961  18.383  0.00  0.00     0.009 C 
ENDBRANCH  19  20
ENDBRANCH   1  19
BRANCH   1  23
ATOM     23  C   MOL d           2.598  20.154  15.288  0.00  0.00     0.241 C 
ATOM     24  O   MOL d           2.555  20.452  14.102  0.00  0.00    -0.271 OA
ATOM     25  N   MOL d           1.510  19.725  15.938  0.00  0.00    -0.345 N 
ATOM     26  H27 MOL d           1.576  19.415  16.886  0.00  0.00     0.163 HD
BRANCH  25  27
ATOM     27  CA  MOL d           0.226  19.715  15.246  0.00  0.00     0.185 C 
BRANCH  27  28
ATOM     28  CB  MOL d          -0.384  18.305  15.197  0.00  0.00     0.036 C 
BRANCH  28  29
ATOM     29  CG  MOL d          -1.430  18.258  14.072  0.00  0.00     0.004 C 
BRANCH  29  30
ATOM     30  CD  MOL d          -2.152  16.930  14.072  0.00  0.00     0.027 C 
BRANCH  30  31
ATOM     31  CE  MOL d          -3.397  16.982  13.182  0.00  0.00     0.229 C 
BRANCH  31  32
ATOM     32  NZ  MOL d          -2.939  16.803  11.777  0.00  0.00    -0.079 N 
ATOM     33  H37 MOL d          -3.734  16.832  11.158  0.00  0.00     0.274 HD
ATOM     34  H38 MOL d          -2.474  15.913  11.686  0.00  0.00     0.274 HD
ATOM     35  H39 MOL d          -2.299  17.543  11.536  0.00  0.00     0.274 HD
ENDBRANCH  31  32
ENDBRANCH  30  31
ENDBRANCH  29  30
ENDBRANCH  28  29
ENDBRANCH  27  28
BRANCH  27  36
ATOM     36  C   MOL d          -0.757  20.601  16.022  0.00  0.00     0.196 C 
ATOM     37  O   MOL d          -1.767  20.934  15.374  0.00  0.00    -0.646 OA
ATOM     38  OXT MOL d          -0.494  20.934  17.197  0.00  0.00    -0.646 OA
ENDBRANCH  27  36
ENDBRANCH  25  27
ENDBRANCH   1  23
TORSDOF 18
