REMARK  5 active torsions:
REMARK  status: ('A' for Active; 'I' for Inactive)
REMARK    1  A    between atoms: C2_2  and  O2_3 
REMARK    2  A    between atoms: C3_4  and  O3_5 
REMARK    3  A    between atoms: C4_6  and  O4_7 
REMARK    4  A    between atoms: C5_8  and  C6_10 
REMARK    5  A    between atoms: C6_10  and  O6_11 
ROOT
ATOM      1  C1  NOJ d          14.758  37.535  43.999  0.00  0.00     0.267 C 
ATOM      2  C2  NOJ d          13.670  38.203  44.893  0.00  0.00     0.175 C 
ATOM      3  C3  NOJ d          12.685  38.984  43.978  0.00  0.00     0.179 C 
ATOM      4  C4  NOJ d          13.491  40.112  43.279  0.00  0.00     0.182 C 
ATOM      5  C5  NOJ d          14.686  39.481  42.471  0.00  0.00     0.240 C 
ATOM      6  N5  NOJ d          15.526  38.594  43.268  0.00  0.00    -0.064 N 
ATOM      7  H10 NOJ d          16.185  38.142  42.654  0.00  0.00     0.277 HD
ATOM      8  H11 NOJ d          16.024  39.151  43.945  0.00  0.00     0.277 HD
ENDROOT
BRANCH   5   9
ATOM      9  C6  NOJ d          15.633  40.580  41.876  0.00  0.00     0.199 C 
BRANCH   9  10
ATOM     10  O6  NOJ d          16.229  41.276  43.065  0.00  0.00    -0.399 OA
ATOM     11  H14 NOJ d          16.818  41.960  42.768  0.00  0.00     0.209 HD
ENDBRANCH   9  10
ENDBRANCH   5   9
BRANCH   4  12
ATOM     12  O4  NOJ d          12.611  40.887  42.410  0.00  0.00    -0.391 OA
ATOM     13  H8  NOJ d          11.916  41.274  42.929  0.00  0.00     0.210 HD
ENDBRANCH   4  12
BRANCH   3  14
ATOM     14  O3  NOJ d          11.618  39.571  44.712  0.00  0.00    -0.390 OA
ATOM     15  H6  NOJ d          11.043  40.036  44.116  0.00  0.00     0.210 HD
ENDBRANCH   3  14
BRANCH   2  16
ATOM     16  O2  NOJ d          12.973  37.230  45.630  0.00  0.00    -0.391 OA
ATOM     17  H4  NOJ d          12.315  37.654  46.169  0.00  0.00     0.210 HD
ENDBRANCH   2  16
TORSDOF 5
