REMARK  12 active torsions:
REMARK  status: ('A' for Active; 'I' for Inactive)
REMARK    1  A    between atoms: O7_1  and  C7_2 
REMARK    2  A    between atoms: C7_2  and  C5_3 
REMARK    3  A    between atoms: C5_3  and  O5_4 
REMARK    4  A    between atoms: C4_5  and  O4_6 
REMARK    5  A    between atoms: C3_7  and  O3_8 
REMARK    6  A    between atoms: C1_13  and  N1'_14 
REMARK    7  A    between atoms: N1'_14  and  C1'_15 
REMARK    8  A    between atoms: C2'_16  and  O2'_17 
REMARK    9  A    between atoms: C5'_19  and  C6'_20 
REMARK   10  A    between atoms: C6'_20  and  O6'_21 
REMARK   11  A    between atoms: C4'_22  and  O4'_23 
REMARK   12  A    between atoms: C3'_24  and  O3'_25 
ROOT
ATOM      1  C5  TTZ d          19.810  49.616  14.236  0.00  0.00     0.130 C 
ATOM      2  C4  TTZ d          18.828  48.450  14.400  0.00  0.00     0.186 C 
ATOM      3  C3  TTZ d          19.100  47.478  13.240  0.00  0.00     0.166 C 
ATOM      4  C2  TTZ d          20.499  47.826  12.700  0.00  0.00     0.114 C 
ATOM      5  S1  TTZ d          20.608  47.647  10.929  0.00  0.00    -0.083 SA
ATOM      6  C6  TTZ d          20.583  49.330  12.942  0.00  0.00     0.166 C 
ATOM      7  N1  TTZ d          19.954  49.906  11.726  0.00  0.00    -0.257 NA
ATOM      8  C1  TTZ d          19.817  49.148  10.731  0.00  0.00     0.160 C 
ENDROOT
BRANCH   8   9
ATOM      9  N1' TTZ d          19.036  49.519   9.689  0.00  0.00    -0.341 N 
ATOM     10  H11 TTZ d          19.021  48.895   8.870  0.00  0.00     0.164 HD
BRANCH   9  11
ATOM     11  C1' TTZ d          18.220  50.712   9.622  0.00  0.00     0.254 C 
ATOM     12  C2' TTZ d          16.719  50.361   9.539  0.00  0.00     0.198 C 
ATOM     13  C3' TTZ d          16.344  49.733   8.202  0.00  0.00     0.182 C 
ATOM     14  C4' TTZ d          16.752  50.722   7.112  0.00  0.00     0.180 C 
ATOM     15  C5' TTZ d          18.248  51.000   7.179  0.00  0.00     0.179 C 
ATOM     16  O5' TTZ d          18.597  51.512   8.472  0.00  0.00    -0.354 OA
BRANCH  12  17
ATOM     17  O2' TTZ d          16.356  49.479  10.600  0.00  0.00    -0.389 OA
ATOM     18  H14 TTZ d          15.431  49.272  10.536  0.00  0.00     0.210 HD
ENDBRANCH  12  17
BRANCH  13  19
ATOM     19  O3' TTZ d          14.961  49.505   8.133  0.00  0.00    -0.390 OA
ATOM     20  H22 TTZ d          14.742  49.146   7.281  0.00  0.00     0.210 HD
ENDBRANCH  13  19
BRANCH  14  21
ATOM     21  O4' TTZ d          16.374  50.298   5.806  0.00  0.00    -0.390 OA
ATOM     22  H20 TTZ d          15.439  50.130   5.787  0.00  0.00     0.210 HD
ENDBRANCH  14  21
BRANCH  15  23
ATOM     23  C6' TTZ d          18.617  52.052   6.139  0.00  0.00     0.198 C 
BRANCH  23  24
ATOM     24  O6' TTZ d          20.046  52.180   6.066  0.00  0.00    -0.398 OA
ATOM     25  H18 TTZ d          20.383  52.443   6.914  0.00  0.00     0.209 HD
ENDBRANCH  23  24
ENDBRANCH  15  23
ENDBRANCH   9  11
ENDBRANCH   8   9
BRANCH   3  26
ATOM     26  O3  TTZ d          18.930  46.098  13.574  0.00  0.00    -0.392 OA
ATOM     27  H8  TTZ d          19.115  45.563  12.811  0.00  0.00     0.210 HD
ENDBRANCH   3  26
BRANCH   1  28
ATOM     28  C7  TTZ d          19.228  51.007  14.383  0.00  0.00     0.206 C 
BRANCH  28  29
ATOM     29  O7  TTZ d          18.281  51.298  13.399  0.00  0.00    -0.398 OA
ATOM     30  H1  TTZ d          18.688  51.240  12.543  0.00  0.00     0.209 HD
ENDBRANCH  28  29
ENDBRANCH   1  28
BRANCH   1  31
ATOM     31  O5  TTZ d          20.733  49.559  15.299  0.00  0.00    -0.383 OA
ATOM     32  H4  TTZ d          21.163  48.712  15.299  0.00  0.00     0.210 HD
ENDBRANCH   1  31
BRANCH   2  33
ATOM     33  O4  TTZ d          17.454  48.841  14.380  0.00  0.00    -0.390 OA
ATOM     34  H6  TTZ d          17.257  49.260  13.550  0.00  0.00     0.210 HD
ENDBRANCH   2  33
TORSDOF 12
