REMARK  7 active torsions:
REMARK  status: ('A' for Active; 'I' for Inactive)
REMARK    1  A    between atoms: N1_2  and  C8_16 
REMARK       I    between atoms: C17_25  and  N1_2 
REMARK    2  A    between atoms: O3_8  and  P1_4 
REMARK    3  A    between atoms: C18_26  and  O3_8 
REMARK    4  A    between atoms: C7_15  and  C6_14 
REMARK    5  A    between atoms: C8_16  and  C7_15 
REMARK    6  A    between atoms: C8_16  and  C18_26 
REMARK    7  A    between atoms: C16_24  and  C17_25 
ROOT
ATOM      1  C8  J9Z d          14.483   3.332   1.668  0.00  0.00     0.113 C 
ENDROOT
BRANCH   1   2
ATOM      2  N1  J9Z d          13.132   3.469   1.055  0.00  0.00    -0.349 N 
ATOM      3  C17 J9Z d          12.156   4.042   1.763  0.00  0.00     0.259 C 
ATOM      4  O1  J9Z d          12.377   4.322   2.950  0.00  0.00    -0.267 OA
ATOM      5  H2  J9Z d          12.959   3.137   0.128  0.00  0.00     0.163 HD
BRANCH   3   6
ATOM      6  C16 J9Z d          10.882   4.223   1.235  0.00  0.00     0.074 A 
ATOM      7  S3  J9Z d           9.640   5.220   1.758  0.00  0.00    -0.084 SA
ATOM      8  C13 J9Z d           8.664   4.871   0.374  0.00  0.00     0.016 A 
ATOM      9  C12 J9Z d           7.383   5.329   0.007  0.00  0.00     0.019 A 
ATOM     10  C14 J9Z d           9.331   3.942  -0.484  0.00  0.00    -0.018 A 
ATOM     11  C11 J9Z d           6.753   4.910  -1.178  0.00  0.00     0.001 A 
ATOM     12  C10 J9Z d           7.409   4.002  -2.000  0.00  0.00     0.001 A 
ATOM     13  C9  J9Z d           8.696   3.529  -1.661  0.00  0.00     0.013 A 
ATOM     14  C15 J9Z d          10.604   3.567   0.011  0.00  0.00     0.037 A 
ENDBRANCH   3   6
ENDBRANCH   1   2
BRANCH   1  15
ATOM     15  C7  J9Z d          15.371   4.552   1.288  0.00  0.00     0.065 C 
BRANCH  15  16
ATOM     16  C6  J9Z d          14.935   5.883   1.780  0.00  0.00    -0.056 A 
ATOM     17  C1  J9Z d          13.883   6.574   1.167  0.00  0.00     0.007 A 
ATOM     18  C2  J9Z d          13.523   7.854   1.584  0.00  0.00     0.001 A 
ATOM     19  C3  J9Z d          14.217   8.466   2.626  0.00  0.00     0.000 A 
ATOM     20  C4  J9Z d          15.262   7.773   3.244  0.00  0.00     0.001 A 
ATOM     21  C5  J9Z d          15.621   6.492   2.828  0.00  0.00     0.007 A 
ENDBRANCH  15  16
ENDBRANCH   1  15
BRANCH   1  22
ATOM     22  C18 J9Z d          15.172   1.987   1.282  0.00  0.00     0.208 C 
BRANCH  22  23
ATOM     23  O3  J9Z d          16.414   1.994   2.041  0.00  0.00    -0.281 OA
BRANCH  23  24
ATOM     24  P1  J9Z d          16.803   0.769   2.992  0.00  0.00     0.422 P 
ATOM     25  O2  J9Z d          15.776   0.762   4.140  0.00  0.00    -0.617 OA
ATOM     26  O4  J9Z d          18.090   1.214   3.615  0.00  0.00    -0.617 OA
ATOM     27  O5  J9Z d          16.712  -0.500   2.280  0.00  0.00    -0.617 OA
ENDBRANCH  23  24
ENDBRANCH  22  23
ENDBRANCH   1  22
TORSDOF 7
