REMARK  3 active torsions:
REMARK  status: ('A' for Active; 'I' for Inactive)
REMARK    1  A    between atoms: furan_2  and  C6_4 
REMARK    2  A    between atoms: C14_9  and  O4_10 
REMARK    3  A    between atoms: C14_9  and  C9_12 
ROOT
ATOM      1  C5  MT6 d          12.120  -4.951  -3.443  0.00  0.00     0.057 A 
ATOM      2  C6  MT6 d          11.595  -6.263  -3.553  0.00  0.00     0.087 A 
ATOM      3  N1  MT6 d          13.963  -4.179  -0.247  0.00  0.00    -0.344 N 
ATOM      4  C2  MT6 d          13.492  -5.384   0.402  0.00  0.00     0.093 C 
ATOM      5  C4  MT6 d          12.745  -4.871  -2.234  0.00  0.00     0.054 A 
ATOM      6  O2  MT6 d          11.824  -6.851  -2.344  0.00  0.00    -0.309 OA
ATOM      7  C12 MT6 d          12.469  -6.117  -1.575  0.00  0.00     0.092 A 
ATOM      8  C1  MT6 d          12.720  -6.474  -0.234  0.00  0.00     0.055 C 
ATOM      9  C3  MT6 d          13.519  -3.829  -1.494  0.00  0.00     0.192 C 
ATOM     10  O1  MT6 d          13.765  -2.651  -2.025  0.00  0.00    -0.171 OA
ATOM     11  H3  MT6 d          14.623  -3.593   0.223  0.00  0.00     0.167 HD
ENDROOT
BRANCH   2  12
ATOM     12  fur MT6 d          10.827  -6.996  -4.501  0.00  0.00    -0.001 A 
ATOM     13  C8  MT6 d          10.721  -8.264  -4.432  0.00  0.00     0.032 A 
ATOM     14  C9  MT6 d           9.907  -8.916  -5.332  0.00  0.00     0.040 A 
ATOM     15  C10 MT6 d           9.177  -8.304  -6.307  0.00  0.00     0.017 A 
ATOM     16  C13 MT6 d           9.389  -6.972  -6.419  0.00  0.00     0.002 A 
ATOM     17  C11 MT6 d          10.174  -6.355  -5.472  0.00  0.00     0.014 A 
BRANCH  14  18
ATOM     18  C14 MT6 d           9.833 -10.365  -5.234  0.00  0.00     0.292 C 
ATOM     19  O3  MT6 d          10.704 -11.118  -4.800  0.00  0.00    -0.259 OA
BRANCH  18  20
ATOM     20  O4  MT6 d           8.651 -10.909  -5.659  0.00  0.00    -0.323 OA
ATOM     21  C15 MT6 d           8.203 -12.257  -5.146  0.00  0.00     0.213 C 
ENDBRANCH  18  20
ENDBRANCH  14  18
ENDBRANCH   2  12
TORSDOF 3
