REMARK  4 active torsions:
REMARK  status: ('A' for Active; 'I' for Inactive)
REMARK    1  A    between atoms: CAJ_10  and  SAC_3 
REMARK    2  A    between atoms: CAI_9  and  CAK_11 
REMARK    3  A    between atoms: NAL_12  and  CAI_9 
REMARK    4  A    between atoms: CAJ_10  and  NAL_12 
ROOT
ATOM      1  CAI P58 d          -4.006   2.463  14.559  0.00  0.00     0.162 C 
ENDROOT
BRANCH   1   2
ATOM      2  CAK P58 d          -4.288   2.062  13.108  0.00  0.00    -0.040 A 
ATOM      3  CAG P58 d          -4.470   3.005  12.066  0.00  0.00     0.009 A 
ATOM      4  CAE P58 d          -4.737   2.558  10.755  0.00  0.00     0.001 A 
ATOM      5  CAD P58 d          -4.882   1.159  10.494  0.00  0.00     0.000 A 
ATOM      6  CAF P58 d          -4.698   0.242  11.564  0.00  0.00     0.001 A 
ATOM      7  CAH P58 d          -4.420   0.690  12.878  0.00  0.00     0.009 A 
ENDBRANCH   1   2
BRANCH   1   8
ATOM      8  NAL P58 d          -5.284   2.646  15.276  0.00  0.00    -0.367 N 
ATOM      9  CAA P58 d          -6.056   3.886  15.095  0.00  0.00     0.151 C 
BRANCH   8  10
ATOM     10  CAJ P58 d          -5.682   1.654  16.211  0.00  0.00     0.133 C 
ATOM     11  SAB P58 d          -7.305   1.773  16.842  0.00  0.00    -0.053 SA
BRANCH  10  12
ATOM     12  SAC P58 d          -4.968   0.032  16.224  0.00  0.00    -0.114 SA
ATOM     13  H4  P58 d          -4.036   0.073  15.841  0.00  0.00     0.109 HD
ENDBRANCH  10  12
ENDBRANCH   8  10
ENDBRANCH   1   8
TORSDOF 4
