REMARK  6 active torsions:
REMARK  status: ('A' for Active; 'I' for Inactive)
REMARK    1  A    between atoms: P_1  and  O5_5 
REMARK    2  A    between atoms: O5_5  and  C5_6 
REMARK    3  A    between atoms: C5_6  and  C4_7 
REMARK    4  A    between atoms: C3_9  and  O3_10 
REMARK    5  A    between atoms: C2_11  and  O2_12 
REMARK    6  A    between atoms: C1_13  and  N9_14 
ROOT
ATOM      1  C4  IMP d          43.395  35.596  62.770  0.00  0.00     0.180 C 
ATOM      2  O4  IMP d          43.847  36.823  62.061  0.00  0.00    -0.353 OA
ATOM      3  C3  IMP d          44.633  34.654  62.766  0.00  0.00     0.182 C 
ATOM      4  C2  IMP d          45.721  35.390  62.007  0.00  0.00     0.198 C 
ATOM      5  C1  IMP d          44.894  36.387  61.212  0.00  0.00     0.262 C 
ENDROOT
BRANCH   5   6
ATOM      6  N9  IMP d          45.714  37.580  60.771  0.00  0.00    -0.294 N 
ATOM      7  C8  IMP d          46.052  37.969  59.499  0.00  0.00     0.214 A 
ATOM      8  N7  IMP d          46.773  39.049  59.464  0.00  0.00    -0.234 NA
ATOM      9  C5  IMP d          46.944  39.426  60.763  0.00  0.00     0.172 A 
ATOM     10  C6  IMP d          47.649  40.544  61.339  0.00  0.00     0.279 A 
ATOM     11  C4  IMP d          46.294  38.534  61.615  0.00  0.00     0.169 A 
ATOM     12  O6  IMP d          48.274  41.423  60.738  0.00  0.00    -0.265 OA
ATOM     13  N1  IMP d          47.588  40.584  62.774  0.00  0.00    -0.316 N 
ATOM     14  C2  IMP d          46.902  39.625  63.530  0.00  0.00     0.212 A 
ATOM     15  H10 IMP d          48.055  41.328  63.253  0.00  0.00     0.170 HD
ATOM     16  N3  IMP d          46.240  38.575  62.967  0.00  0.00    -0.223 NA
ENDBRANCH   5   6
BRANCH   4  17
ATOM     17  O2  IMP d          46.546  34.548  61.229  0.00  0.00    -0.388 OA
ATOM     18  H7  IMP d          46.015  34.091  60.587  0.00  0.00     0.210 HD
ENDBRANCH   4  17
BRANCH   1  19
ATOM     19  C5  IMP d          42.868  36.130  64.090  0.00  0.00     0.217 C 
BRANCH  19  20
ATOM     20  O5  IMP d          42.833  35.199  65.209  0.00  0.00    -0.280 OA
BRANCH  20  21
ATOM     21  P   IMP d          42.272  35.804  66.601  0.00  0.00     0.422 P 
ATOM     22  O1P IMP d          41.028  36.605  66.407  0.00  0.00    -0.617 OA
ATOM     23  O2P IMP d          43.334  36.684  67.181  0.00  0.00    -0.617 OA
ATOM     24  O3P IMP d          42.026  34.582  67.502  0.00  0.00    -0.617 OA
ENDBRANCH  20  21
ENDBRANCH  19  20
ENDBRANCH   1  19
BRANCH   3  25
ATOM     25  O3  IMP d          44.364  33.381  62.179  0.00  0.00    -0.390 OA
ATOM     26  H5  IMP d          45.151  32.850  62.203  0.00  0.00     0.210 HD
ENDBRANCH   3  25
TORSDOF 6
