REMARK  10 active torsions:
REMARK  status: ('A' for Active; 'I' for Inactive)
REMARK    1  A    between atoms: N1_1  and  C2_2 
REMARK    2  A    between atoms: C2_2  and  C4_4 
REMARK       I    between atoms: C4_4  and  N6_6 
REMARK    3  A    between atoms: N6_6  and  C7_7 
REMARK    4  A    between atoms: C7_7  and  C8_8 
REMARK    5  A    between atoms: C7_7  and  C11_11 
REMARK       I    between atoms: C11_11  and  N13_13 
REMARK    6  A    between atoms: C14_14  and  C18_18 
REMARK       I    between atoms: C18_18  and  N21_21 
REMARK    7  A    between atoms: N21_21  and  C20_20 
REMARK    8  A    between atoms: C20_20  and  C22_22 
REMARK    9  A    between atoms: C22_22  and  C23_23 
REMARK   10  A    between atoms: C22_22  and  C29_29 
ROOT
ATOM      1  C11 MOL d          22.320  45.543  -2.761  0.00  0.00     0.243 C 
ATOM      2  O12 MOL d          23.185  46.233  -2.214  0.00  0.00    -0.271 OA
ATOM      3  N13 MOL d          21.410  44.844  -2.066  0.00  0.00    -0.337 N 
ATOM      4  C14 MOL d          21.516  44.785  -0.613  0.00  0.00     0.179 C 
ATOM      5  C15 MOL d          20.220  44.080  -0.189  0.00  0.00     0.037 C 
ATOM      6  C16 MOL d          19.752  43.352  -1.384  0.00  0.00     0.022 C 
ATOM      7  C17 MOL d          20.251  44.098  -2.579  0.00  0.00     0.127 C 
ENDROOT
BRANCH   4   8
ATOM      8  C18 MOL d          22.766  44.000  -0.174  0.00  0.00     0.240 C 
ATOM      9  O19 MOL d          23.248  43.152  -0.928  0.00  0.00    -0.271 OA
ATOM     10  N21 MOL d          23.308  44.280   1.014  0.00  0.00    -0.358 N 
ATOM     11  H26 MOL d          22.857  44.920   1.636  0.00  0.00     0.162 HD
BRANCH  10  12
ATOM     12  C20 MOL d          24.571  43.640   1.398  0.00  0.00     0.136 C 
BRANCH  12  13
ATOM     13  C22 MOL d          24.999  43.909   2.835  0.00  0.00     0.069 C 
BRANCH  13  14
ATOM     14  C23 MOL d          26.138  43.011   3.134  0.00  0.00    -0.048 A 
ATOM     15  C24 MOL d          27.430  43.327   2.720  0.00  0.00     0.008 A 
ATOM     16  C25 MOL d          28.483  42.463   3.017  0.00  0.00     0.001 A 
ATOM     17  C26 MOL d          28.244  41.291   3.723  0.00  0.00     0.000 A 
ATOM     18  C27 MOL d          26.950  40.975   4.132  0.00  0.00     0.001 A 
ATOM     19  C28 MOL d          25.898  41.834   3.837  0.00  0.00     0.008 A 
ENDBRANCH  13  14
BRANCH  13  20
ATOM     20  C29 MOL d          25.299  45.339   3.142  0.00  0.00    -0.048 A 
ATOM     21  C30 MOL d          25.506  46.305   2.155  0.00  0.00     0.008 A 
ATOM     22  C31 MOL d          25.759  47.623   2.508  0.00  0.00     0.001 A 
ATOM     23  C32 MOL d          25.808  48.005   3.840  0.00  0.00     0.000 A 
ATOM     24  C33 MOL d          25.598  47.047   4.827  0.00  0.00     0.001 A 
ATOM     25  C34 MOL d          25.344  45.724   4.481  0.00  0.00     0.008 A 
ENDBRANCH  13  20
ENDBRANCH  12  13
ENDBRANCH  10  12
ENDBRANCH   4   8
BRANCH   1  26
ATOM     26  C7  MOL d          22.240  45.467  -4.288  0.00  0.00     0.180 C 
BRANCH  26  27
ATOM     27  N6  MOL d          22.809  46.697  -4.836  0.00  0.00    -0.346 N 
ATOM     28  C4  MOL d          22.209  47.432  -5.771  0.00  0.00     0.248 C 
ATOM     29  O5  MOL d          21.160  47.107  -6.320  0.00  0.00    -0.271 OA
ATOM     30  H8  MOL d          23.696  47.003  -4.490  0.00  0.00     0.163 HD
BRANCH  28  31
ATOM     31  C2  MOL d          22.934  48.709  -6.185  0.00  0.00     0.270 C 
ATOM     32  C3  MOL d          22.683  49.827  -5.182  0.00  0.00     0.050 C 
BRANCH  31  33
ATOM     33  N1  MOL d          22.502  49.118  -7.550  0.00  0.00    -0.067 N 
ATOM     34  H1  MOL d          22.985  49.962  -7.816  0.00  0.00     0.275 HD
ATOM     35  H2  MOL d          21.508  49.285  -7.552  0.00  0.00     0.275 HD
ATOM     36  H3  MOL d          22.721  48.384  -8.206  0.00  0.00     0.275 HD
ENDBRANCH  31  33
ENDBRANCH  28  31
ENDBRANCH  26  27
BRANCH  26  37
ATOM     37  C8  MOL d          22.991  44.188  -4.768  0.00  0.00     0.009 C 
ATOM     38  C9  MOL d          22.697  43.890  -6.247  0.00  0.00     0.012 C 
ATOM     39  C10 MOL d          24.500  44.298  -4.514  0.00  0.00     0.012 C 
ENDBRANCH  26  37
ENDBRANCH   1  26
TORSDOF 10
