REMARK  12 active torsions:
REMARK  status: ('A' for Active; 'I' for Inactive)
REMARK       I    between atoms: N_4  and  C_1 
REMARK    1  A    between atoms: CA_5  and  N_4 
REMARK    2  A    between atoms: C_6  and  CA_5 
REMARK    3  A    between atoms: CA_5  and  CB_8 
REMARK       I    between atoms: N_25  and  C_6 
REMARK    4  A    between atoms: CB_8  and  CG_9 
REMARK    5  A    between atoms: CZ_14  and  OH_15 
REMARK    6  A    between atoms: OH_15  and  P_16 
REMARK    7  A    between atoms: CA_22  and  C_23 
REMARK    8  A    between atoms: CA_22  and  N_25 
REMARK       I    between atoms: C_23  and  N_26 
REMARK    9  A    between atoms: N_26  and  CA_27 
REMARK   10  A    between atoms: CA_27  and  C_28 
REMARK   11  A    between atoms: CA_27  and  CB_30 
REMARK       I    between atoms: C_28  and  N_34 
REMARK   12  A    between atoms: CB_30  and  CG_31 
REMARK       I    between atoms: CG_31  and  ND2_33 
ROOT
ATOM      1  C   ACT d         -13.144  13.692   1.016  0.00  0.00     0.241 C 
ATOM      2  O   ACT d         -12.872  14.889   1.172  0.00  0.00    -0.271 OA
ATOM      3  N   ACT d         -13.764  12.940   1.964  0.00  0.00    -0.341 N 
ATOM      4  H16 ACT d         -13.919  11.959   1.846  0.00  0.00     0.163 HD
ENDROOT
BRANCH   3   5
ATOM      5  CA  ACT d         -14.181  13.637   3.140  0.00  0.00     0.114 A 
ATOM      6  CB  ACT d         -15.516  14.300   3.121  0.00  0.00     0.044 A 
ATOM      7  CG  ACT d         -15.334  13.041   3.931  0.00  0.00     0.044 A 
BRANCH   5   8
ATOM      8  C   ACT d         -13.070  14.140   4.039  0.00  0.00     0.246 C 
ATOM      9  O   ACT d         -13.296  15.048   4.869  0.00  0.00    -0.271 OA
ATOM     10  N   ACT d         -11.853  13.591   3.897  0.00  0.00    -0.345 N 
ATOM     11  H17 ACT d         -11.738  12.835   3.253  0.00  0.00     0.163 HD
BRANCH  10  12
ATOM     12  CA  ACT d         -10.705  14.051   4.639  0.00  0.00     0.185 C 
BRANCH  12  13
ATOM     13  C   ACT d          -9.733  14.792   3.683  0.00  0.00     0.238 C 
ATOM     14  O   ACT d          -8.547  14.965   4.027  0.00  0.00    -0.271 OA
ATOM     15  N   ACT d         -10.210  15.276   2.526  0.00  0.00    -0.368 N 
ATOM     16  H23 ACT d          -9.600  15.757   1.896  0.00  0.00     0.159 HD
ATOM     17  H24 ACT d         -11.175  15.156   2.294  0.00  0.00     0.159 HD
ENDBRANCH  12  13
BRANCH  12  18
ATOM     18  CB  ACT d         -10.033  12.866   5.361  0.00  0.00     0.137 C 
BRANCH  18  19
ATOM     19  CG  ACT d          -9.522  11.793   4.397  0.00  0.00     0.217 C 
ATOM     20  OD1 ACT d          -9.951  11.766   3.250  0.00  0.00    -0.274 OA
ATOM     21  ND2 ACT d          -8.597  10.942   4.890  0.00  0.00    -0.370 N 
ATOM     22  H21 ACT d          -8.224  10.218   4.310  0.00  0.00     0.159 HD
ATOM     23  H22 ACT d          -8.285  11.035   5.836  0.00  0.00     0.159 HD
ENDBRANCH  18  19
ENDBRANCH  12  18
ENDBRANCH  10  12
ENDBRANCH   5   8
ENDBRANCH   3   5
BRANCH   1  24
ATOM     24  CA  ACT d         -12.765  12.941  -0.277  0.00  0.00     0.180 C 
BRANCH  24  25
ATOM     25  N   ACT d         -12.999  13.821  -1.477  0.00  0.00    -0.348 N 
ATOM     26  C   ACT d         -13.659  13.331  -2.489  0.00  0.00     0.214 C 
ATOM     27  O   ACT d         -14.178  12.207  -2.523  0.00  0.00    -0.274 OA
ATOM     28  CH3 ACT d         -13.779  14.253  -3.669  0.00  0.00     0.117 C 
ATOM     29  H4  ACT d         -12.656  14.760  -1.497  0.00  0.00     0.163 HD
ENDBRANCH  24  25
BRANCH  24  30
ATOM     30  CB  ACT d         -11.287  12.573  -0.119  0.00  0.00     0.073 C 
BRANCH  30  31
ATOM     31  CG  ACT d         -10.858  11.838  -1.422  0.00  0.00    -0.056 A 
ATOM     32  CD1 ACT d         -10.374  12.593  -2.472  0.00  0.00     0.010 A 
ATOM     33  CE1 ACT d         -10.020  12.020  -3.669  0.00  0.00     0.038 A 
ATOM     34  CZ  ACT d         -10.214  10.658  -3.891  0.00  0.00     0.082 A 
ATOM     35  CE2 ACT d         -10.712   9.905  -2.825  0.00  0.00     0.038 A 
ATOM     36  CD2 ACT d         -11.031  10.459  -1.571  0.00  0.00     0.010 A 
BRANCH  34  37
ATOM     37  OH  ACT d          -9.895  10.154  -5.158  0.00  0.00    -0.240 OA
BRANCH  37  38
ATOM     38  P   ACT d         -10.227   8.634  -5.658  0.00  0.00     0.427 P 
ATOM     39  O1P ACT d         -10.009   8.815  -7.189  0.00  0.00    -0.617 OA
ATOM     40  O2P ACT d          -9.179   7.754  -5.065  0.00  0.00    -0.617 OA
ATOM     41  O3P ACT d         -11.628   8.406  -5.401  0.00  0.00    -0.617 OA
ENDBRANCH  37  38
ENDBRANCH  34  37
ENDBRANCH  30  31
ENDBRANCH  24  30
ENDBRANCH   1  24
TORSDOF 12
