2qft_ligand

Created by X-TOOL on Fri Sep 26 17:34:35 2014
 16 15  0  0  0  0  0  0  0  0999 V2000
   60.2550    8.7590   26.9360  P 0  0  0  1  0  4
   60.3010   10.2050   27.3000  O 0  0  0  1  0  1
   59.1850    8.4180   25.9600  O 0  0  0  1  0  1
   61.5930    8.2750   26.4780  O 0  0  0  1  0  1
   60.9720    9.9350   31.7150  O 0  0  0  1  0  1
   60.2550    8.4030   33.1350  O 0  0  0  1  0  1
   59.8090    7.8550   28.3380  C 0  0  0  3  0  4
   59.9270    7.9320   30.8730  C 0  0  0  3  0  4
   60.4220    8.8160   31.9980  C 0  5  0  1  0  3
   60.2290    8.5300   29.5610  N 0  3  0  3  0  4
   60.2870    6.8653   28.2930  H 0  0  0  1  0  1
   58.7158    7.7339   28.3532  H 0  0  0  1  0  1
   58.8386    7.8039   30.9681  H 0  0  0  1  0  1
   60.4192    6.9508   30.9431  H 0  0  0  1  0  1
   59.8008    9.4425   29.5516  H 0  0  0  1  0  1
   61.2309    8.6284   29.5098  H 0  0  0  1  0  1
  1  2  2  0  0  2
  1  3  2  0  0  2
  1  4  2  0  0  2
  7  1  1  0  0  2
  9  5  2  0  0  2
  9  6  2  0  0  2
 10  7  1  0  0  2
  8  9  1  0  0  2
  8 10  1  0  0  2
  7 11  1  0  0  2
  7 12  1  0  0  2
  8 13  1  0  0  2
  8 14  1  0  0  2
 10 15  1  0  0  2
 10 16  1  0  0  2
M  END
> <MOLECULAR_FORMULA>
C3H6NO5P

> <MOLECULAR_WEIGHT>
167.0

> <NUM_HB_ATOMS>
6  

> <NUM_ROTOR>
2  

> <XLOGP2>
-3.86

$$$$
