REMARK  4 active torsions:
REMARK  status: ('A' for Active; 'I' for Inactive)
REMARK    1  A    between atoms: C1_7  and  P1_1 
REMARK    2  A    between atoms: N1_10  and  C1_7 
REMARK    3  A    between atoms: C2_8  and  C3_9 
REMARK    4  A    between atoms: C2_8  and  N1_10 
ROOT
ATOM      1  N1  GPJ d          60.229   8.530  29.561  0.00  0.00    -0.053 N 
ATOM      2  H5  GPJ d          59.801   9.443  29.552  0.00  0.00     0.278 HD
ATOM      3  H6  GPJ d          61.231   8.628  29.510  0.00  0.00     0.278 HD
ENDROOT
BRANCH   1   4
ATOM      4  C1  GPJ d          59.809   7.855  28.338  0.00  0.00     0.377 C 
BRANCH   4   5
ATOM      5  P1  GPJ d          60.255   8.759  26.936  0.00  0.00     0.285 P 
ATOM      6  O1  GPJ d          60.301  10.205  27.300  0.00  0.00    -0.638 OA
ATOM      7  O2  GPJ d          59.185   8.418  25.960  0.00  0.00    -0.638 OA
ATOM      8  O3  GPJ d          61.593   8.275  26.478  0.00  0.00    -0.638 OA
ENDBRANCH   4   5
ENDBRANCH   1   4
BRANCH   1   9
ATOM      9  C2  GPJ d          59.927   7.932  30.873  0.00  0.00     0.345 C 
BRANCH   9  10
ATOM     10  C3  GPJ d          60.422   8.816  31.998  0.00  0.00     0.199 C 
ATOM     11  O4  GPJ d          60.972   9.935  31.715  0.00  0.00    -0.647 OA
ATOM     12  O5  GPJ d          60.255   8.403  33.135  0.00  0.00    -0.647 OA
ENDBRANCH   9  10
ENDBRANCH   1   9
TORSDOF 4
