REMARK  2 active torsions:
REMARK  status: ('A' for Active; 'I' for Inactive)
REMARK    1  A    between atoms: C2_2  and  C10_10 
REMARK    2  A    between atoms: C12_12  and  N15_15 
ROOT
ATOM      1  C1  MOL d          -0.652  11.650  -6.540  0.00  0.00     0.053 A 
ATOM      2  C2  MOL d          -0.849  10.470  -5.775  0.00  0.00    -0.003 A 
ATOM      3  C3  MOL d          -1.591  10.501  -4.550  0.00  0.00     0.017 A 
ATOM      4  C4  MOL d          -2.162  11.671  -4.035  0.00  0.00     0.040 A 
ATOM      5  C5  MOL d          -1.985  12.830  -4.764  0.00  0.00     0.105 A 
ATOM      6  C6  MOL d          -1.237  12.816  -6.040  0.00  0.00     0.105 A 
ATOM      7  O7  MOL d          -1.235  14.109  -6.513  0.00  0.00    -0.323 OA
ATOM      8  C8  MOL d          -2.068  14.924  -5.644  0.00  0.00     0.352 C 
ATOM      9  O9  MOL d          -2.396  14.119  -4.504  0.00  0.00    -0.323 OA
ENDROOT
BRANCH   2  10
ATOM     10  C10 MOL d          -0.284   9.162  -6.226  0.00  0.00     0.091 A 
ATOM     11  C11 MOL d          -0.068   8.043  -5.400  0.00  0.00     0.083 A 
ATOM     12  C12 MOL d           0.460   7.054  -6.230  0.00  0.00     0.119 A 
ATOM     13  N13 MOL d           0.562   7.495  -7.482  0.00  0.00    -0.258 N 
ATOM     14  N14 MOL d           0.108   8.836  -7.507  0.00  0.00    -0.171 NA
ATOM     15  C16 MOL d           1.056   6.905  -8.764  0.00  0.00     0.182 C 
BRANCH  12  16
ATOM     16  N15 MOL d           0.821   5.785  -5.837  0.00  0.00    -0.384 N 
ATOM     17  H7  MOL d           0.718   5.502  -4.852  0.00  0.00     0.157 HD
ATOM     18  H8  MOL d           1.194   5.118  -6.528  0.00  0.00     0.157 HD
ENDBRANCH  12  16
ENDBRANCH   2  10
TORSDOF 2
