REMARK  4 active torsions:
REMARK  status: ('A' for Active; 'I' for Inactive)
REMARK    1  A    between atoms: C03_3  and  S11_11 
REMARK    2  A    between atoms: C06_6  and  C07_7 
REMARK       I    between atoms: C07_7  and  N09_9 
REMARK    3  A    between atoms: N09_9  and  C10_10 
REMARK    4  A    between atoms: S11_11  and  NP2_12 
ROOT
ATOM      1  C01 BSB d          -3.848   3.545  14.691  0.00  0.00     0.018 A 
ATOM      2  C02 BSB d          -4.237   2.365  15.365  0.00  0.00     0.026 A 
ATOM      3  C03 BSB d          -5.574   2.335  15.918  0.00  0.00     0.079 A 
ATOM      4  C04 BSB d          -6.412   3.470  15.753  0.00  0.00     0.026 A 
ATOM      5  C05 BSB d          -5.977   4.619  15.071  0.00  0.00     0.018 A 
ATOM      6  C06 BSB d          -4.700   4.659  14.545  0.00  0.00     0.032 A 
ENDROOT
BRANCH   6   7
ATOM      7  C07 BSB d          -4.186   5.888  13.810  0.00  0.00     0.251 C 
ATOM      8  N09 BSB d          -2.895   5.898  13.301  0.00  0.00    -0.353 N 
ATOM      9  H5  BSB d          -2.361   5.065  13.447  0.00  0.00     0.163 HD
ATOM     10  O08 BSB d          -4.913   6.857  13.679  0.00  0.00    -0.268 OA
BRANCH   8  11
ATOM     11  C10 BSB d          -2.219   6.970  12.580  0.00  0.00     0.161 C 
ATOM     12  C15 BSB d          -1.469   7.902  13.382  0.00  0.00    -0.041 A 
ATOM     13  C20 BSB d          -0.368   8.667  12.841  0.00  0.00     0.009 A 
ATOM     14  C16 BSB d          -1.843   8.070  14.766  0.00  0.00     0.009 A 
ATOM     15  C19 BSB d           0.339   9.595  13.720  0.00  0.00     0.001 A 
ATOM     16  C18 BSB d          -0.075   9.730  15.106  0.00  0.00     0.000 A 
ATOM     17  C17 BSB d          -1.159   8.973  15.631  0.00  0.00     0.001 A 
ENDBRANCH   8  11
ENDBRANCH   6   7
BRANCH   3  18
ATOM     18  S11 BSB d          -6.059   0.832  16.784  0.00  0.00     0.256 S 
ATOM     19  O14 BSB d          -5.527   1.129  18.094  0.00  0.00    -0.201 OA
ATOM     20  O13 BSB d          -7.539   1.091  16.839  0.00  0.00    -0.201 OA
BRANCH  18  21
ATOM     21  NP2 BSB d          -5.629  -0.540  16.095  0.00  0.00    -0.324 N 
ATOM     22  H8  BSB d          -5.867  -1.411  16.524  0.00  0.00     0.169 HD
ATOM     23  H9  BSB d          -5.121  -0.529  15.234  0.00  0.00     0.169 HD
ENDBRANCH  18  21
ENDBRANCH   3  18
TORSDOF 4
