REMARK  3 active torsions:
REMARK  status: ('A' for Active; 'I' for Inactive)
REMARK    1  A    between atoms: C5_5  and  C23_23 
REMARK    2  A    between atoms: C10_10  and  N15_15 
REMARK    3  A    between atoms: N15_15  and  C16_16 
ROOT
ATOM      1  C1  MOL d          22.824 -31.100  13.914  0.00  0.00     0.071 A 
ATOM      2  C2  MOL d          22.968 -30.953  12.551  0.00  0.00     0.005 A 
ATOM      3  C3  MOL d          23.014 -32.101  11.711  0.00  0.00     0.016 A 
ATOM      4  C4  MOL d          22.901 -33.376  12.276  0.00  0.00     0.019 A 
ATOM      5  C5  MOL d          22.747 -33.534  13.665  0.00  0.00     0.043 A 
ATOM      6  C6  MOL d          22.712 -32.403  14.484  0.00  0.00     0.051 A 
ATOM      7  C7  MOL d          23.029 -28.533  12.863  0.00  0.00     0.024 A 
ATOM      8  C8  MOL d          23.082 -29.604  11.990  0.00  0.00     0.008 A 
ATOM      9  N9  MOL d          22.763 -29.997  14.761  0.00  0.00    -0.230 NA
ATOM     10  C10 MOL d          22.863 -28.749  14.267  0.00  0.00     0.140 A 
ATOM     11  C11 MOL d          23.286 -27.039  10.950  0.00  0.00     0.117 A 
ATOM     12  N12 MOL d          23.334 -28.106  10.121  0.00  0.00    -0.272 NA
ATOM     13  C13 MOL d          23.231 -29.363  10.598  0.00  0.00     0.129 A 
ATOM     14  C14 MOL d          23.134 -27.213  12.323  0.00  0.00     0.035 A 
ENDROOT
BRANCH  10  15
ATOM     15  N15 MOL d          22.782 -27.581  15.088  0.00  0.00    -0.340 N 
ATOM     16  H7  MOL d          22.833 -26.671  14.607  0.00  0.00     0.167 HD
BRANCH  15  17
ATOM     17  C16 MOL d          22.637 -27.551  16.510  0.00  0.00     0.035 A 
ATOM     18  C17 MOL d          23.077 -28.582  17.335  0.00  0.00     0.053 A 
ATOM     19  C18 MOL d          22.916 -28.471  18.712  0.00  0.00     0.036 A 
ATOM     20  C19 MOL d          22.321 -27.346  19.256  0.00  0.00     0.024 A 
ATOM     21 CL22 MOL d          23.419 -29.736  19.782  0.00  0.00    -0.084 Cl
ATOM     22  C20 MOL d          21.894 -26.322  18.433  0.00  0.00     0.004 A 
ATOM     23  C21 MOL d          22.050 -26.422  17.065  0.00  0.00     0.029 A 
ENDBRANCH  15  17
ENDBRANCH  10  15
BRANCH   5  24
ATOM     24  C23 MOL d          22.563 -34.906  14.246  0.00  0.00     0.209 C 
ATOM     25  O24 MOL d          22.724 -34.903  15.490  0.00  0.00    -0.644 OA
ATOM     26  O25 MOL d          22.150 -35.683  13.355  0.00  0.00    -0.644 OA
ENDBRANCH   5  24
TORSDOF 3
