REMARK  2 active torsions:
REMARK  status: ('A' for Active; 'I' for Inactive)
REMARK    1  A    between atoms: N1_3  and  C4_6 
REMARK    2  A    between atoms: C4_6  and  C5_7 
ROOT
ATOM      1  C5  MOL d         -12.869   3.884  22.822  0.00  0.00    -0.040 A 
ATOM      2  C6  MOL d         -12.736   4.507  21.583  0.00  0.00     0.009 A 
ATOM      3  C7  MOL d         -12.034   4.274  23.862  0.00  0.00     0.009 A 
ATOM      4  C8  MOL d         -11.786   5.521  21.384  0.00  0.00     0.001 A 
ATOM      5  C9  MOL d         -11.085   5.284  23.676  0.00  0.00     0.001 A 
ATOM      6  C10 MOL d         -10.968   5.908  22.427  0.00  0.00     0.000 A 
ENDROOT
BRANCH   1   7
ATOM      7  C4  MOL d         -13.938   2.880  23.059  0.00  0.00     0.167 C 
BRANCH   7   8
ATOM      8  N1  MOL d         -15.219   3.134  22.408  0.00  0.00    -0.346 N 
ATOM      9  C1  MOL d         -15.925   2.188  21.700  0.00  0.00     0.111 A 
ATOM     10  C2  MOL d         -17.160   2.706  21.498  0.00  0.00     0.135 A 
ATOM     11  N2  MOL d         -17.185   3.941  22.090  0.00  0.00    -0.255 NA
ATOM     12  C3  MOL d         -15.998   4.179  22.634  0.00  0.00     0.209 A 
ENDBRANCH   7   8
ENDBRANCH   1   7
TORSDOF 2
