REMARK  7 active torsions:
REMARK  status: ('A' for Active; 'I' for Inactive)
REMARK    1  A    between atoms: S1_3  and  C1_1 
REMARK    2  A    between atoms: C7_15  and  S1_3 
REMARK    3  A    between atoms: C2_4  and  O2_5 
REMARK    4  A    between atoms: C3_6  and  O3_7 
REMARK    5  A    between atoms: C4_8  and  O4_9 
REMARK    6  A    between atoms: C5_10  and  C6_13 
REMARK    7  A    between atoms: C6_13  and  O6_12 
ROOT
ATOM      1  C1  GS9 d          13.604  15.027  67.228  0.00  0.00     0.219 C 
ATOM      2  O5  GS9 d          13.886  15.162  65.820  0.00  0.00    -0.362 OA
ATOM      3  C2  GS9 d          12.386  14.154  67.259  0.00  0.00     0.188 C 
ATOM      4  C3  GS9 d          12.821  12.776  66.737  0.00  0.00     0.181 C 
ATOM      5  C4  GS9 d          13.293  12.873  65.284  0.00  0.00     0.180 C 
ATOM      6  C5  GS9 d          14.353  13.984  65.144  0.00  0.00     0.178 C 
ENDROOT
BRANCH   1   7
ATOM      7  S1  GS9 d          13.246  16.680  67.972  0.00  0.00    -0.095 SA
BRANCH   7   8
ATOM      8  C7  GS9 d          14.705  17.241  68.354  0.00  0.00     0.004 A 
ATOM      9  C80 GS9 d          14.773  18.362  69.204  0.00  0.00     0.019 A 
ATOM     10  C90 GS9 d          16.012  18.891  69.579  0.00  0.00     0.013 A 
ATOM     11  C14 GS9 d          17.210  18.279  69.151  0.00  0.00    -0.026 A 
ATOM     12  C9  GS9 d          17.124  17.076  68.291  0.00  0.00    -0.025 A 
ATOM     13  C13 GS9 d          18.466  18.790  69.559  0.00  0.00     0.012 A 
ATOM     14  C8  GS9 d          15.878  16.594  67.913  0.00  0.00     0.030 A 
ATOM     15  C10 GS9 d          18.300  16.453  67.861  0.00  0.00     0.012 A 
ATOM     16  C11 GS9 d          19.528  17.007  68.272  0.00  0.00     0.001 A 
ATOM     17  C12 GS9 d          19.616  18.126  69.114  0.00  0.00     0.001 A 
ENDBRANCH   7   8
ENDBRANCH   1   7
BRANCH   3  18
ATOM     18  O2  GS9 d          11.922  14.032  68.593  0.00  0.00    -0.389 OA
ATOM     19  H3  GS9 d          11.150  13.478  68.609  0.00  0.00     0.210 HD
ENDBRANCH   3  18
BRANCH   6  20
ATOM     20  C6  GS9 d          14.607  14.457  63.716  0.00  0.00     0.198 C 
BRANCH  20  21
ATOM     21  O6  GS9 d          15.755  15.348  63.735  0.00  0.00    -0.398 OA
ATOM     22  H10 GS9 d          15.569  16.090  64.299  0.00  0.00     0.209 HD
ENDBRANCH  20  21
ENDBRANCH   6  20
BRANCH   4  23
ATOM     23  O3  GS9 d          11.670  11.954  66.861  0.00  0.00    -0.390 OA
ATOM     24  H5  GS9 d          11.406  11.916  67.773  0.00  0.00     0.210 HD
ENDBRANCH   4  23
BRANCH   5  25
ATOM     25  O4  GS9 d          12.153  13.141  64.455  0.00  0.00    -0.390 OA
ATOM     26  H7  GS9 d          11.523  12.435  64.546  0.00  0.00     0.210 HD
ENDBRANCH   5  25
TORSDOF 7
