REMARK  6 active torsions:
REMARK  status: ('A' for Active; 'I' for Inactive)
REMARK    1  A    between atoms: C2_5  and  C10_6 
REMARK    2  A    between atoms: C6_12  and  S1_13 
REMARK    3  A    between atoms: S1_13  and  N2_16 
REMARK    4  A    between atoms: N2_16  and  C11_17 
REMARK    5  A    between atoms: C11_17  and  C12_18 
REMARK    6  A    between atoms: C12_18  and  C13_19 
ROOT
ATOM      1  C7  FTS d          28.005  43.262  16.746  0.00  0.00     0.034 A 
ATOM      2  C8  FTS d          28.597  43.797  17.889  0.00  0.00    -0.025 A 
ATOM      3  C1  FTS d          28.853  42.905  19.107  0.00  0.00     0.272 C 
ATOM      4  N1  FTS d          29.742  43.570  20.060  0.00  0.00    -0.064 N 
ATOM      5  C2  FTS d          29.236  44.909  20.402  0.00  0.00     0.218 C 
ATOM      6  C3  FTS d          29.534  45.779  19.178  0.00  0.00     0.074 C 
ATOM      7  C9  FTS d          28.914  45.153  17.928  0.00  0.00    -0.048 A 
ATOM      8  C4  FTS d          28.635  45.952  16.823  0.00  0.00     0.009 A 
ATOM      9  C5  FTS d          28.044  45.424  15.680  0.00  0.00     0.026 A 
ATOM     10  C6  FTS d          27.730  44.067  15.645  0.00  0.00     0.080 A 
ATOM     11  H4  FTS d          30.659  43.658  19.650  0.00  0.00     0.278 HD
ATOM     12  H5  FTS d          29.801  43.015  20.899  0.00  0.00     0.278 HD
ENDROOT
BRANCH  10  13
ATOM     13  S1  FTS d          26.986  43.348  14.219  0.00  0.00     0.258 S 
ATOM     14  O1  FTS d          25.650  42.983  14.613  0.00  0.00    -0.201 OA
ATOM     15  O2  FTS d          27.870  42.303  13.768  0.00  0.00    -0.201 OA
BRANCH  13  16
ATOM     16  N2  FTS d          26.834  44.424  13.025  0.00  0.00    -0.315 N 
ATOM     17  H13 FTS d          25.987  44.942  12.906  0.00  0.00     0.172 HD
BRANCH  16  18
ATOM     18  C11 FTS d          27.974  44.623  12.116  0.00  0.00     0.141 C 
BRANCH  18  19
ATOM     19  C12 FTS d          27.714  44.279  10.663  0.00  0.00     0.137 C 
BRANCH  19  20
ATOM     20  C13 FTS d          27.042  45.294   9.787  0.00  0.00     0.389 C 
ATOM     21  F1  FTS d          27.020  44.992   8.479  0.00  0.00    -0.171 F 
ATOM     22  F2  FTS d          27.645  46.489   9.800  0.00  0.00    -0.171 F 
ATOM     23  F3  FTS d          25.774  45.577  10.117  0.00  0.00    -0.171 F 
ENDBRANCH  19  20
ENDBRANCH  18  19
ENDBRANCH  16  18
ENDBRANCH  13  16
ENDBRANCH  10  13
BRANCH   5  24
ATOM     24  C10 FTS d          29.896  45.434  21.680  0.00  0.00     0.255 C 
ATOM     25  F4  FTS d          29.346  46.600  22.048  0.00  0.00    -0.253 F 
ENDBRANCH   5  24
TORSDOF 6
