REMARK  16 active torsions:
REMARK  status: ('A' for Active; 'I' for Inactive)
REMARK    1  A    between atoms: C4_4  and  S8_8 
REMARK    2  A    between atoms: S8_8  and  C9_9 
REMARK    3  A    between atoms: C9_9  and  C10_10 
REMARK       I    between atoms: C10_10  and  N12_12 
REMARK    4  A    between atoms: N12_12  and  C13_13 
REMARK    5  A    between atoms: C13_13  and  C14_14 
REMARK    6  A    between atoms: C13_13  and  C25_25 
REMARK    7  A    between atoms: C14_14  and  C15_15 
REMARK    8  A    between atoms: C18_18  and  N21_21 
REMARK       I    between atoms: N21_21  and  C22_22 
REMARK       I    between atoms: C22_22  and  N24_24 
REMARK       I    between atoms: C25_25  and  N27_27 
REMARK    9  A    between atoms: N27_27  and  C28_28 
REMARK   10  A    between atoms: C28_28  and  C29_29 
REMARK   11  A    between atoms: C29_29  and  O30_30 
REMARK   12  A    between atoms: O30_30  and  C31_31 
REMARK   13  A    between atoms: C31_31  and  C32_32 
REMARK   14  A    between atoms: C32_32  and  O33_33 
REMARK   15  A    between atoms: O33_33  and  C34_34 
REMARK   16  A    between atoms: C34_34  and  C35_35 
REMARK       I    between atoms: C35_35  and  N37_37 
ROOT
ATOM      1  C13 MOL d          13.203 -15.669  14.203  0.00  0.00     0.180 C 
ENDROOT
BRANCH   1   2
ATOM      2  N12 MOL d          14.445 -14.932  14.550  0.00  0.00    -0.347 N 
ATOM      3  C10 MOL d          15.719 -15.488  14.420  0.00  0.00     0.228 C 
ATOM      4  O11 MOL d          15.813 -16.629  14.022  0.00  0.00    -0.273 OA
ATOM      5  H7  MOL d          14.365 -13.996  14.892  0.00  0.00     0.163 HD
BRANCH   3   6
ATOM      6  C9  MOL d          17.008 -14.747  14.741  0.00  0.00     0.182 C 
BRANCH   6   7
ATOM      7  S8  MOL d          16.671 -13.082  15.371  0.00  0.00    -0.121 SA
BRANCH   7   8
ATOM      8  C4  MOL d          16.674 -11.833  14.133  0.00  0.00     0.001 A 
ATOM      9  C3  MOL d          15.726 -10.794  14.219  0.00  0.00     0.020 A 
ATOM     10  C2  MOL d          15.703  -9.778  13.241  0.00  0.00     0.025 A 
ATOM     11  C1  MOL d          16.621  -9.790  12.174  0.00  0.00     0.034 A 
ATOM     12  C6  MOL d          17.568 -10.825  12.079  0.00  0.00     0.025 A 
ATOM     13 CL7  MOL d          16.584  -8.542  10.994  0.00  0.00    -0.084 Cl
ATOM     14  C5  MOL d          17.593 -11.841  13.055  0.00  0.00     0.020 A 
ENDBRANCH   7   8
ENDBRANCH   6   7
ENDBRANCH   3   6
ENDBRANCH   1   2
BRANCH   1  15
ATOM     15  C14 MOL d          12.459 -16.077  15.500  0.00  0.00     0.073 C 
BRANCH  15  16
ATOM     16  C15 MOL d          13.166 -17.048  16.453  0.00  0.00    -0.056 A 
ATOM     17  C16 MOL d          13.574 -16.597  17.732  0.00  0.00     0.009 A 
ATOM     18  C17 MOL d          14.231 -17.481  18.631  0.00  0.00     0.030 A 
ATOM     19  C18 MOL d          14.493 -18.837  18.258  0.00  0.00     0.049 A 
ATOM     20  C19 MOL d          14.080 -19.274  16.975  0.00  0.00     0.030 A 
ATOM     21  C20 MOL d          13.423 -18.390  16.079  0.00  0.00     0.009 A 
BRANCH  19  22
ATOM     22  N21 MOL d          15.156 -19.796  19.122  0.00  0.00    -0.193 N 
ATOM     23  C22 MOL d          15.657 -19.619  20.430  0.00  0.00     0.669 C 
ATOM     24  N23 MOL d          15.571 -18.481  21.056  0.00  0.00    -0.235 N 
ATOM     25  N24 MOL d          16.261 -20.696  21.066  0.00  0.00    -0.235 N 
ATOM     26  H16 MOL d          15.948 -18.388  22.010  0.00  0.00     0.174 HD
ATOM     27  H17 MOL d          15.126 -17.673  20.597  0.00  0.00     0.174 HD
ATOM     28  H18 MOL d          16.337 -21.603  20.583  0.00  0.00     0.174 HD
ATOM     29  H19 MOL d          16.633 -20.588  22.020  0.00  0.00     0.174 HD
ATOM     30  H15 MOL d          15.278 -20.739  18.725  0.00  0.00     0.184 HD
ENDBRANCH  19  22
ENDBRANCH  15  16
ENDBRANCH   1  15
BRANCH   1  31
ATOM     31  C25 MOL d          12.340 -14.743  13.366  0.00  0.00     0.240 C 
ATOM     32  O26 MOL d          12.694 -13.586  13.213  0.00  0.00    -0.271 OA
ATOM     33  N27 MOL d          11.203 -15.199  12.733  0.00  0.00    -0.357 N 
ATOM     34  H20 MOL d          10.922 -16.145  12.893  0.00  0.00     0.162 HD
BRANCH  33  35
ATOM     35  C28 MOL d          10.385 -14.380  11.843  0.00  0.00     0.148 C 
BRANCH  35  36
ATOM     36  C29 MOL d           8.915 -14.809  11.803  0.00  0.00     0.187 C 
BRANCH  36  37
ATOM     37  O30 MOL d           8.444 -15.266  13.071  0.00  0.00    -0.387 OA
BRANCH  37  38
ATOM     38  C31 MOL d           8.655 -14.317  14.115  0.00  0.00     0.193 C 
BRANCH  38  39
ATOM     39  C32 MOL d           8.229 -14.857  15.490  0.00  0.00     0.194 C 
BRANCH  39  40
ATOM     40  O33 MOL d           7.088 -14.160  15.979  0.00  0.00    -0.380 OA
BRANCH  40  41
ATOM     41  C34 MOL d           7.412 -13.322  17.084  0.00  0.00     0.270 C 
BRANCH  41  42
ATOM     42  C35 MOL d           8.796 -12.725  16.915  0.00  0.00     0.239 C 
ATOM     43  O36 MOL d           9.330 -12.746  15.824  0.00  0.00    -0.271 OA
ATOM     44  N37 MOL d           9.469 -12.176  17.995  0.00  0.00    -0.368 N 
ATOM     45  H31 MOL d          10.381 -11.786  17.870  0.00  0.00     0.159 HD
ATOM     46  H32 MOL d           9.043 -12.170  18.899  0.00  0.00     0.159 HD
ENDBRANCH  41  42
ENDBRANCH  40  41
ENDBRANCH  39  40
ENDBRANCH  38  39
ENDBRANCH  37  38
ENDBRANCH  36  37
ENDBRANCH  35  36
ENDBRANCH  33  35
ENDBRANCH   1  31
TORSDOF 16
