REMARK  6 active torsions:
REMARK  status: ('A' for Active; 'I' for Inactive)
REMARK    1  A    between atoms: N18_1  and  C17_2 
REMARK    2  A    between atoms: C17_2  and  C12_4 
REMARK    3  A    between atoms: C6_9  and  C23_14 
REMARK       I    between atoms: C23_14  and  N24_16 
REMARK    4  A    between atoms: N24_16  and  C25_17 
REMARK    5  A    between atoms: C28_20  and  C37_23 
REMARK    6  A    between atoms: C37_23  and  N38_24 
ROOT
ATOM      1  C12 MOL d          19.240  18.684  33.674  0.00  0.00     0.008 A 
ATOM      2  C13 MOL d          20.563  18.536  34.195  0.00  0.00     0.027 A 
ATOM      3  C3  MOL d          21.475  17.539  33.839  0.00  0.00    -0.025 A 
ATOM      4  C4  MOL d          22.692  17.462  34.520  0.00  0.00     0.013 A 
ATOM      5  C5  MOL d          23.510  16.380  34.139  0.00  0.00     0.018 A 
ATOM      6  C6  MOL d          23.301  15.431  33.117  0.00  0.00     0.033 A 
ATOM      7  C1  MOL d          22.028  15.590  32.547  0.00  0.00     0.029 A 
ATOM      8  C2  MOL d          21.074  16.588  32.863  0.00  0.00    -0.025 A 
ATOM      9  C10 MOL d          19.807  16.578  32.268  0.00  0.00     0.013 A 
ATOM     10  C11 MOL d          18.944  17.615  32.692  0.00  0.00     0.016 A 
ENDROOT
BRANCH   6  11
ATOM     11  C23 MOL d          24.306  14.477  32.678  0.00  0.00     0.256 C 
ATOM     12  O35 MOL d          25.100  14.103  33.550  0.00  0.00    -0.267 OA
ATOM     13  N24 MOL d          24.448  14.164  31.364  0.00  0.00    -0.323 N 
ATOM     14  H11 MOL d          23.784  14.594  30.753  0.00  0.00     0.169 HD
BRANCH  13  15
ATOM     15  C25 MOL d          25.386  13.327  30.730  0.00  0.00     0.035 C 
ATOM     16  C30 MOL d          25.977  12.239  31.415  0.00  0.00     0.030 C 
ATOM     17  C29 MOL d          26.942  11.473  30.723  0.00  0.00     0.011 C 
ATOM     18  C28 MOL d          27.199  11.781  29.363  0.00  0.00    -0.033 C 
ATOM     19  C27 MOL d          26.555  12.822  28.663  0.00  0.00     0.011 C 
ATOM     20  C26 MOL d          25.709  13.660  29.411  0.00  0.00     0.030 C 
BRANCH  18  21
ATOM     21  C37 MOL d          28.261  10.974  28.654  0.00  0.00     0.268 C 
BRANCH  21  22
ATOM     22  N38 MOL d          29.608  11.426  28.955  0.00  0.00    -0.075 N 
ATOM     23  H18 MOL d          30.273  10.855  28.457  0.00  0.00     0.274 HD
ATOM     24  H19 MOL d          29.774  11.349  29.946  0.00  0.00     0.274 HD
ATOM     25  H20 MOL d          29.711  12.387  28.670  0.00  0.00     0.274 HD
ENDBRANCH  21  22
ENDBRANCH  18  21
ENDBRANCH  13  15
ENDBRANCH   6  11
BRANCH   1  26
ATOM     26  C17 MOL d          18.342  19.779  34.021  0.00  0.00     0.102 C 
ATOM     27  N19 MOL d          18.899  20.944  34.416  0.00  0.00    -0.385 N 
ATOM     28  H3  MOL d          19.919  21.012  34.539  0.00  0.00     0.157 HD
ATOM     29  H4  MOL d          18.303  21.765  34.595  0.00  0.00     0.157 HD
BRANCH  26  30
ATOM     30  N18 MOL d          17.026  19.534  33.817  0.00  0.00    -0.385 N 
ATOM     31  H1  MOL d          16.717  18.599  33.514  0.00  0.00     0.157 HD
ATOM     32  H2  MOL d          16.334  20.282  33.965  0.00  0.00     0.157 HD
ENDBRANCH  26  30
ENDBRANCH   1  26
TORSDOF 6
