REMARK  12 active torsions:
REMARK  status: ('A' for Active; 'I' for Inactive)
REMARK    1  A    between atoms: N7_7  and  C18_18 
REMARK    2  A    between atoms: C8_8  and  C11_11 
REMARK       I    between atoms: C11_11  and  N12_12 
REMARK    3  A    between atoms: N12_12  and  C13_13 
REMARK    4  A    between atoms: C18_18  and  C19_19 
REMARK    5  A    between atoms: C19_19  and  C20_20 
REMARK    6  A    between atoms: C19_19  and  O21_21 
REMARK    7  A    between atoms: C20_20  and  N22_22 
REMARK    8  A    between atoms: C20_20  and  C23_23 
REMARK       I    between atoms: N22_22  and  C24_24 
REMARK    9  A    between atoms: C23_23  and  S74_34 
REMARK   10  A    between atoms: C24_24  and  C29_26 
REMARK   11  A    between atoms: C33_30  and  O38_32 
REMARK   12  A    between atoms: S74_34  and  C77_35 
ROOT
ATOM      1  C19 MOL d         -11.199  54.230   3.787  0.00  0.00     0.167 C 
ENDROOT
BRANCH   1   2
ATOM      2  C18 MOL d         -11.253  55.015   5.097  0.00  0.00     0.269 C 
BRANCH   2   3
ATOM      3  N7  MOL d         -12.327  56.025   5.042  0.00  0.00    -0.055 N 
ATOM      4  C8  MOL d         -12.786  56.398   6.406  0.00  0.00     0.279 C 
ATOM      5  C9  MOL d         -13.901  57.447   6.328  0.00  0.00     0.048 C 
ATOM      6  C2  MOL d         -13.399  58.688   5.593  0.00  0.00    -0.006 C 
ATOM      7  C1  MOL d         -12.866  58.317   4.206  0.00  0.00     0.016 C 
ATOM      8  C3  MOL d         -14.481  59.772   5.523  0.00  0.00     0.005 C 
ATOM      9  C6  MOL d         -13.989  57.958   3.226  0.00  0.00     0.007 C 
ATOM     10  C10 MOL d         -11.830  57.200   4.295  0.00  0.00     0.241 C 
ATOM     11  C5  MOL d         -14.946  59.140   3.120  0.00  0.00     0.000 C 
ATOM     12  C4  MOL d         -15.560  59.476   4.480  0.00  0.00     0.000 C 
ATOM     13  H11 MOL d         -13.112  55.635   4.543  0.00  0.00     0.281 HD
BRANCH   4  14
ATOM     14  C11 MOL d         -13.323  55.215   7.153  0.00  0.00     0.249 C 
ATOM     15  N12 MOL d         -13.044  55.177   8.467  0.00  0.00    -0.351 N 
ATOM     16  H17 MOL d         -12.502  55.930   8.840  0.00  0.00     0.163 HD
ATOM     17  O17 MOL d         -13.977  54.380   6.553  0.00  0.00    -0.271 OA
BRANCH  15  18
ATOM     18  C13 MOL d         -13.463  54.134   9.396  0.00  0.00     0.022 C 
ATOM     19  C14 MOL d         -13.026  52.746   8.914  0.00  0.00     0.037 C 
ATOM     20  C15 MOL d         -14.979  54.165   9.573  0.00  0.00     0.037 C 
ATOM     21  C16 MOL d         -12.788  54.430  10.726  0.00  0.00     0.037 C 
ENDBRANCH  15  18
ENDBRANCH   4  14
ENDBRANCH   2   3
ENDBRANCH   1   2
BRANCH   1  22
ATOM     22  C20 MOL d         -12.303  53.187   3.665  0.00  0.00     0.124 C 
BRANCH  22  23
ATOM     23  N22 MOL d         -12.239  52.653   2.317  0.00  0.00    -0.349 N 
ATOM     24  C24 MOL d         -13.235  52.823   1.458  0.00  0.00     0.252 C 
ATOM     25  O25 MOL d         -14.283  53.357   1.768  0.00  0.00    -0.268 OA
ATOM     26  H32 MOL d         -11.426  52.146   2.030  0.00  0.00     0.163 HD
BRANCH  24  27
ATOM     27  C29 MOL d         -13.053  52.344   0.053  0.00  0.00     0.040 A 
ATOM     28  C30 MOL d         -12.956  50.985  -0.232  0.00  0.00     0.018 A 
ATOM     29  C31 MOL d         -12.776  50.538  -1.540  0.00  0.00     0.004 A 
ATOM     30  C32 MOL d         -12.694  51.429  -2.612  0.00  0.00     0.037 A 
ATOM     31  C33 MOL d         -12.778  52.805  -2.410  0.00  0.00     0.072 A 
ATOM     32  C34 MOL d         -12.965  53.331  -1.045  0.00  0.00    -0.013 A 
ATOM     33  C39 MOL d         -13.067  54.818  -0.772  0.00  0.00     0.052 C 
BRANCH  31  34
ATOM     34  O38 MOL d         -12.695  53.665  -3.460  0.00  0.00    -0.360 OA
ATOM     35  H38 MOL d         -12.576  53.172  -4.263  0.00  0.00     0.217 HD
ENDBRANCH  31  34
ENDBRANCH  24  27
ENDBRANCH  22  23
BRANCH  22  36
ATOM     36  C23 MOL d         -12.234  52.074   4.711  0.00  0.00     0.107 C 
BRANCH  36  37
ATOM     37  S74 MOL d         -13.589  50.951   4.579  0.00  0.00    -0.128 SA
BRANCH  37  38
ATOM     38  C77 MOL d         -13.524  49.751   3.379  0.00  0.00     0.000 A 
ATOM     39  C78 MOL d         -14.703  49.302   2.778  0.00  0.00     0.018 A 
ATOM     40  C79 MOL d         -14.667  48.317   1.788  0.00  0.00     0.001 A 
ATOM     41  C80 MOL d         -13.441  47.775   1.398  0.00  0.00     0.000 A 
ATOM     42  C81 MOL d         -12.264  48.226   1.994  0.00  0.00     0.001 A 
ATOM     43  C82 MOL d         -12.301  49.211   2.985  0.00  0.00     0.018 A 
ENDBRANCH  37  38
ENDBRANCH  36  37
ENDBRANCH  22  36
ENDBRANCH   1  22
BRANCH   1  44
ATOM     44  O21 MOL d          -9.909  53.616   3.619  0.00  0.00    -0.392 OA
ATOM     45  H31 MOL d          -9.232  54.278   3.698  0.00  0.00     0.210 HD
ENDBRANCH   1  44
TORSDOF 12
