REMARK  3 active torsions:
REMARK  status: ('A' for Active; 'I' for Inactive)
REMARK    1  A    between atoms: C4_4  and  C7_6 
REMARK    2  A    between atoms: C7_6  and  C10_7 
REMARK    3  A    between atoms: C18_12  and  O21_14 
ROOT
ATOM      1  O1  MS0 d          13.702  10.709  -0.255  0.00  0.00    -0.321 OA
ATOM      2  C2  MS0 d          14.005  10.407  -1.596  0.00  0.00     0.088 A 
ATOM      3  C3  MS0 d          15.356  10.332  -1.654  0.00  0.00     0.006 A 
ATOM      4  C4  MS0 d          15.830  10.568  -0.394  0.00  0.00    -0.013 A 
ATOM      5  C5  MS0 d          14.821  10.767   0.455  0.00  0.00     0.151 A 
ATOM      6  C14 MS0 d          15.959  10.081  -2.840  0.00  0.00     0.017 A 
ATOM      7  C16 MS0 d          15.211   9.889  -4.007  0.00  0.00     0.038 A 
ATOM      8  C18 MS0 d          13.823   9.956  -3.935  0.00  0.00     0.070 A 
ATOM      9  C19 MS0 d          13.207  10.249  -2.691  0.00  0.00     0.074 A 
ENDROOT
BRANCH   4  10
ATOM     10  C7  MS0 d          17.292  10.482   0.167  0.00  0.00     0.154 C 
BRANCH  10  11
ATOM     11  C10 MS0 d          18.340  11.356  -0.350  0.00  0.00     0.177 C 
ATOM     12  O11 MS0 d          19.443  10.784  -0.465  0.00  0.00    -0.648 OA
ATOM     13  O12 MS0 d          18.082  12.578  -0.529  0.00  0.00    -0.648 OA
ENDBRANCH  10  11
ENDBRANCH   4  10
BRANCH   8  14
ATOM     14  O21 MS0 d          13.103   9.745  -5.077  0.00  0.00    -0.356 OA
ATOM     15  C22 MS0 d          11.675   9.586  -4.855  0.00  0.00     0.210 C 
ENDBRANCH   8  14
TORSDOF 3
