REMARK  3 active torsions:
REMARK  status: ('A' for Active; 'I' for Inactive)
REMARK    1  A    between atoms: C1_1  and  C2_2 
REMARK    2  A    between atoms: C7_21  and  C12_28 
REMARK    3  A    between atoms: C12_28  and  C13_24 
ROOT
ATOM      1  C12 MOL d          39.917  13.991  84.245  0.00  0.00     0.192 C 
ATOM      2  O3  MOL d          39.514  12.797  84.310  0.00  0.00    -0.287 OA
ENDROOT
BRANCH   1   3
ATOM      3  C7  MOL d          39.009  14.988  84.870  0.00  0.00     0.016 A 
ATOM      4  C8  MOL d          38.887  16.313  84.390  0.00  0.00     0.016 A 
ATOM      5  C9  MOL d          38.031  17.234  84.956  0.00  0.00     0.013 A 
ATOM      6  C10 MOL d          37.234  16.870  86.053  0.00  0.00    -0.025 A 
ATOM      7  C5  MOL d          37.313  15.574  86.559  0.00  0.00    -0.025 A 
ATOM      8  C11 MOL d          36.356  17.805  86.630  0.00  0.00     0.030 A 
ATOM      9  C4  MOL d          36.506  15.212  87.669  0.00  0.00     0.013 A 
ATOM     10  C6  MOL d          38.200  14.650  85.949  0.00  0.00     0.028 A 
ATOM     11  C3  MOL d          35.622  16.112  88.253  0.00  0.00     0.019 A 
ATOM     12  C2  MOL d          35.552  17.441  87.713  0.00  0.00     0.041 A 
BRANCH  12  13
ATOM     13  C1  MOL d          34.633  18.379  88.337  0.00  0.00     0.209 C 
ATOM     14  O2  MOL d          34.340  19.452  87.662  0.00  0.00    -0.644 OA
ATOM     15  O1  MOL d          34.188  18.116  89.416  0.00  0.00    -0.644 OA
ENDBRANCH  12  13
ENDBRANCH   1   3
BRANCH   1  16
ATOM     16  C13 MOL d          41.155  14.329  83.598  0.00  0.00     0.015 A 
ATOM     17  C22 MOL d          41.966  15.378  84.003  0.00  0.00     0.016 A 
ATOM     18  C21 MOL d          43.115  15.696  83.400  0.00  0.00     0.009 A 
ATOM     19  C20 MOL d          43.540  14.940  82.310  0.00  0.00    -0.043 A 
ATOM     20  C15 MOL d          42.780  13.863  81.847  0.00  0.00    -0.042 A 
ATOM     21  C19 MOL d          44.877  15.337  81.641  0.00  0.00    -0.020 C 
ATOM     22  C14 MOL d          41.588  13.566  82.499  0.00  0.00     0.024 A 
ATOM     23  C16 MOL d          43.192  13.000  80.664  0.00  0.00    -0.020 C 
ATOM     24  C24 MOL d          43.164  11.534  81.031  0.00  0.00     0.020 C 
ATOM     25  C23 MOL d          42.211  13.296  79.520  0.00  0.00     0.020 C 
ATOM     26  C17 MOL d          44.605  13.308  80.211  0.00  0.00     0.015 C 
ATOM     27  C18 MOL d          45.002  14.727  80.269  0.00  0.00     0.015 C 
ATOM     28  C26 MOL d          46.030  15.021  82.606  0.00  0.00     0.020 C 
ATOM     29  C25 MOL d          44.857  16.825  81.331  0.00  0.00     0.020 C 
ENDBRANCH   1  16
TORSDOF 3
