REMARK  6 active torsions:
REMARK  status: ('A' for Active; 'I' for Inactive)
REMARK    1  A    between atoms: C6_4  and  N6_15 
REMARK    2  A    between atoms: C5'_7  and  S_6 
REMARK    3  A    between atoms: C4'_8  and  C5'_7 
REMARK    4  A    between atoms: C10_11  and  N1'_10 
REMARK    5  A    between atoms: C10_11  and  C9_12 
REMARK    6  A    between atoms: C3'_19  and  O3'_20 
ROOT
ATOM      1  C2  TDI d          14.724  -6.753  19.123  0.00  0.00     0.236 A 
ATOM      2  C4  TDI d          12.999  -7.687  20.337  0.00  0.00     0.098 A 
ATOM      3  C5  TDI d          13.796  -8.882  20.572  0.00  0.00     0.107 A 
ATOM      4  C6  TDI d          15.136  -8.884  20.025  0.00  0.00     0.151 A 
ATOM      5  C9  TDI d          11.707  -7.927  20.956  0.00  0.00     0.014 A 
ATOM      6  C8  TDI d          11.823  -9.169  21.547  0.00  0.00     0.099 A 
ATOM      7  N7  TDI d          13.045  -9.711  21.309  0.00  0.00    -0.360 N 
ATOM      8  N1  TDI d          15.543  -7.824  19.321  0.00  0.00    -0.223 NA
ATOM      9  N3  TDI d          13.471  -6.649  19.601  0.00  0.00    -0.239 NA
ATOM     10  H14 TDI d          13.352 -10.633  21.649  0.00  0.00     0.165 HD
ENDROOT
BRANCH   5  11
ATOM     11  C10 TDI d          10.518  -7.018  21.086  0.00  0.00     0.277 C 
BRANCH  11  12
ATOM     12  N1' TDI d           9.652  -6.790  19.908  0.00  0.00    -0.064 N 
ATOM     13  C1' TDI d           9.132  -8.024  19.254  0.00  0.00     0.243 C 
ATOM     14  C4' TDI d           9.080  -7.691  17.756  0.00  0.00     0.051 C 
ATOM     15  C3' TDI d           9.327  -6.195  17.689  0.00  0.00     0.150 C 
ATOM     16  C2' TDI d          10.296  -5.977  18.837  0.00  0.00     0.267 C 
ATOM     17  H10 TDI d           8.856  -6.272  20.246  0.00  0.00     0.280 HD
BRANCH  14  18
ATOM     18  C5' TDI d          10.151  -8.487  17.008  0.00  0.00     0.082 C 
BRANCH  18  19
ATOM     19  S   TDI d          10.012  -8.412  15.251  0.00  0.00    -0.173 SA
ATOM     20  CS5 TDI d           8.790  -9.632  14.925  0.00  0.00     0.089 C 
ENDBRANCH  18  19
ENDBRANCH  14  18
BRANCH  15  21
ATOM     21  O3' TDI d           8.070  -5.540  17.947  0.00  0.00    -0.393 OA
ATOM     22  H20 TDI d           8.216  -4.607  18.052  0.00  0.00     0.210 HD
ENDBRANCH  15  21
ENDBRANCH  11  12
ENDBRANCH   5  11
BRANCH   4  23
ATOM     23  N6  TDI d          15.946  -9.951  20.207  0.00  0.00    -0.382 N 
ATOM     24  H15 TDI d          16.899  -9.947  19.816  0.00  0.00     0.157 HD
ATOM     25  H16 TDI d          15.610 -10.768  20.737  0.00  0.00     0.157 HD
ENDBRANCH   4  23
TORSDOF 6
