REMARK  15 active torsions:
REMARK  status: ('A' for Active; 'I' for Inactive)
REMARK    1  A    between atoms: CA_2  and  N_1 
REMARK    2  A    between atoms: CA_2  and  CB_5 
REMARK    3  A    between atoms: C_3  and  CA_2 
REMARK       I    between atoms: N_10  and  C_3 
REMARK    4  A    between atoms: CB_5  and  CG_6 
REMARK    5  A    between atoms: CG_6  and  CD_7 
REMARK    6  A    between atoms: CD_7  and  CE_8 
REMARK    7  A    between atoms: CE_8  and  NZ_9 
REMARK    8  A    between atoms: C_12  and  CA_11 
REMARK       I    between atoms: C_12  and  N_17 
REMARK    9  A    between atoms: N_17  and  CA_18 
REMARK   10  A    between atoms: CA_18  and  CB_21 
REMARK   11  A    between atoms: CA_18  and  C_19 
REMARK   12  A    between atoms: CB_21  and  CG_22 
REMARK   13  A    between atoms: CG_22  and  CD_23 
REMARK   14  A    between atoms: CD_23  and  CE_24 
REMARK   15  A    between atoms: CE_24  and  NZ_25 
ROOT
ATOM      1  C   MOL d           5.083  18.157  15.420  0.00  0.00     0.251 C 
ATOM      2  O   MOL d           4.145  17.381  15.658  0.00  0.00    -0.271 OA
ATOM      3  N   MOL d           4.970  19.416  15.820  0.00  0.00    -0.337 N 
ATOM      4  CA  MOL d           3.736  19.922  16.428  0.00  0.00     0.179 C 
ATOM      5  CB  MOL d           4.077  21.396  16.723  0.00  0.00     0.037 C 
ATOM      6  CG  MOL d           5.580  21.340  16.893  0.00  0.00     0.022 C 
ATOM      7  CD  MOL d           6.019  20.454  15.725  0.00  0.00     0.127 C 
ENDROOT
BRANCH   4   8
ATOM      8  C   MOL d           2.547  19.863  15.481  0.00  0.00     0.241 C 
ATOM      9  O   MOL d           2.626  20.143  14.266  0.00  0.00    -0.271 OA
ATOM     10  N   MOL d           1.376  19.538  16.032  0.00  0.00    -0.345 N 
ATOM     11  H23 MOL d           1.358  19.332  17.010  0.00  0.00     0.163 HD
BRANCH  10  12
ATOM     12  CA  MOL d           0.136  19.466  15.303  0.00  0.00     0.185 C 
BRANCH  12  13
ATOM     13  CB  MOL d          -0.403  18.034  15.164  0.00  0.00     0.036 C 
BRANCH  13  14
ATOM     14  CG  MOL d          -1.462  18.040  14.031  0.00  0.00     0.004 C 
BRANCH  14  15
ATOM     15  CD  MOL d          -2.174  16.698  14.075  0.00  0.00     0.027 C 
BRANCH  15  16
ATOM     16  CE  MOL d          -3.474  16.795  13.267  0.00  0.00     0.229 C 
BRANCH  16  17
ATOM     17  NZ  MOL d          -3.076  16.744  11.838  0.00  0.00    -0.079 N 
ATOM     18  H33 MOL d          -3.898  16.805  11.258  0.00  0.00     0.274 HD
ATOM     19  H34 MOL d          -2.598  15.876  11.653  0.00  0.00     0.274 HD
ATOM     20  H35 MOL d          -2.462  17.517  11.632  0.00  0.00     0.274 HD
ENDBRANCH  16  17
ENDBRANCH  15  16
ENDBRANCH  14  15
ENDBRANCH  13  14
ENDBRANCH  12  13
BRANCH  12  21
ATOM     21  C   MOL d          -0.946  20.284  16.033  0.00  0.00     0.196 C 
ATOM     22  O   MOL d          -1.904  20.680  15.366  0.00  0.00    -0.646 OA
ATOM     23  OXT MOL d          -0.761  20.636  17.211  0.00  0.00    -0.646 OA
ENDBRANCH  12  21
ENDBRANCH  10  12
ENDBRANCH   4   8
BRANCH   1  24
ATOM     24  CA  MOL d           6.314  17.728  14.660  0.00  0.00     0.275 C 
BRANCH  24  25
ATOM     25  N   MOL d           6.766  16.387  15.139  0.00  0.00    -0.067 N 
ATOM     26  H1  MOL d           7.588  16.107  14.627  0.00  0.00     0.275 HD
ATOM     27  H2  MOL d           6.032  15.712  14.991  0.00  0.00     0.275 HD
ATOM     28  H3  MOL d           6.983  16.437  16.122  0.00  0.00     0.275 HD
ENDBRANCH  24  25
BRANCH  24  29
ATOM     29  CB  MOL d           6.039  17.623  13.128  0.00  0.00     0.042 C 
BRANCH  29  30
ATOM     30  CG  MOL d           5.077  16.523  12.691  0.00  0.00     0.004 C 
BRANCH  30  31
ATOM     31  CD  MOL d           4.985  16.404  11.150  0.00  0.00     0.027 C 
BRANCH  31  32
ATOM     32  CE  MOL d           6.205  15.736  10.534  0.00  0.00     0.229 C 
BRANCH  32  33
ATOM     33  NZ  MOL d           6.372  14.308  10.970  0.00  0.00    -0.079 N 
ATOM     34  H13 MOL d           7.192  13.917  10.533  0.00  0.00     0.274 HD
ATOM     35  H14 MOL d           5.560  13.776  10.697  0.00  0.00     0.274 HD
ATOM     36  H15 MOL d           6.476  14.273  11.972  0.00  0.00     0.274 HD
ENDBRANCH  32  33
ENDBRANCH  31  32
ENDBRANCH  30  31
ENDBRANCH  29  30
ENDBRANCH  24  29
ENDBRANCH   1  24
TORSDOF 15
