REMARK  6 active torsions:
REMARK  status: ('A' for Active; 'I' for Inactive)
REMARK    1  A    between atoms: C2_1  and  N7_18 
REMARK    2  A    between atoms: C4_4  and  C8_6 
REMARK    3  A    between atoms: N11_16  and  C6_5 
REMARK       I    between atoms: C8_6  and  N9_15 
REMARK    4  A    between atoms: C12_7  and  N11_16 
REMARK    5  A    between atoms: N7_18  and  C19_19 
REMARK    6  A    between atoms: C24_20  and  N25_21 
ROOT
ATOM      1  C2  P5C d           3.533   2.684  13.505  0.00  0.00     0.724 A 
ATOM      2  C3  P5C d           5.305   1.783  14.732  0.00  0.00     0.157 A 
ATOM      3  N1  P5C d           2.788   1.591  13.806  0.00  0.00    -0.044 NA
ATOM      4  C4  P5C d           4.550   0.652  15.057  0.00  0.00     0.096 A 
ATOM      5  C6  P5C d           3.254   0.564  14.573  0.00  0.00     0.164 A 
ATOM      6  N5  P5C d           4.796   2.772  13.971  0.00  0.00    -0.074 NA
ENDROOT
BRANCH   1   7
ATOM      7  N7  P5C d           3.025   3.684  12.743  0.00  0.00    -0.216 N 
ATOM      8  H12 P5C d           3.655   4.437  12.431  0.00  0.00     0.178 HD
BRANCH   7   9
ATOM      9  C19 P5C d           1.623   3.736  12.347  0.00  0.00     0.130 C 
ATOM     10  C24 P5C d           0.733   4.398  13.423  0.00  0.00     0.206 C 
ATOM     11  C23 P5C d          -0.727   4.442  12.971  0.00  0.00     0.035 C 
ATOM     12  C22 P5C d          -0.888   5.107  11.595  0.00  0.00     0.002 C 
ATOM     13  C21 P5C d           0.033   4.518  10.526  0.00  0.00     0.002 C 
ATOM     14  C20 P5C d           1.493   4.439  10.986  0.00  0.00     0.027 C 
BRANCH  10  15
ATOM     15  N25 P5C d           1.173   5.759  13.705  0.00  0.00    -0.073 N 
ATOM     16  H15 P5C d           0.577   6.166  14.408  0.00  0.00     0.274 HD
ATOM     17  H16 P5C d           1.123   6.310  12.862  0.00  0.00     0.274 HD
ATOM     18  H17 P5C d           2.124   5.742  14.039  0.00  0.00     0.274 HD
ENDBRANCH  10  15
ENDBRANCH   7   9
ENDBRANCH   1   7
BRANCH   5  19
ATOM     19  N11 P5C d           2.488  -0.528  14.871  0.00  0.00    -0.340 N 
ATOM     20  H11 P5C d           2.944  -1.266  15.426  0.00  0.00     0.167 HD
BRANCH  19  21
ATOM     21  C12 P5C d           1.187  -0.755  14.518  0.00  0.00     0.034 A 
ATOM     22  C13 P5C d           0.520  -0.025  13.526  0.00  0.00     0.029 A 
ATOM     23  C16 P5C d          -0.815  -0.285  13.202  0.00  0.00     0.003 A 
ATOM     24  C14 P5C d          -1.496  -1.303  13.877  0.00  0.00     0.007 A 
ATOM     25  C15 P5C d          -0.839  -2.039  14.861  0.00  0.00    -0.060 A 
ATOM     26  C17 P5C d           0.491  -1.764  15.182  0.00  0.00     0.036 A 
ATOM     27  C18 P5C d          -1.567  -3.150  15.579  0.00  0.00     0.048 C 
ENDBRANCH  19  21
ENDBRANCH   5  19
BRANCH   4  28
ATOM     28  C8  P5C d           5.153  -0.433  15.914  0.00  0.00     0.254 C 
ATOM     29  O10 P5C d           4.509  -1.429  16.227  0.00  0.00    -0.268 OA
ATOM     30  N9  P5C d           6.406  -0.278  16.326  0.00  0.00    -0.366 N 
ATOM     31  H9  P5C d           6.835  -0.979  16.895  0.00  0.00     0.159 HD
ATOM     32  H10 P5C d           6.920   0.540  16.067  0.00  0.00     0.159 HD
ENDBRANCH   4  28
TORSDOF 6
