REMARK  7 active torsions:
REMARK  status: ('A' for Active; 'I' for Inactive)
REMARK    1  A    between atoms: C1_1  and  C7_7 
REMARK    2  A    between atoms: O4_17  and  C4_4 
REMARK    3  A    between atoms: C7_7  and  C8_8 
REMARK    4  A    between atoms: C8_8  and  C9_9 
REMARK    5  A    between atoms: C8_8  and  N8_16 
REMARK    6  A    between atoms: O4_17  and  C1'_10 
REMARK    7  A    between atoms: C4'_13  and  O4'_18 
ROOT
ATOM      1  C1  T44 d          19.939  10.571  28.470  0.00  0.00    -0.053 A 
ATOM      2  C2  T44 d          21.146  10.187  27.862  0.00  0.00     0.028 A 
ATOM      3  C3  T44 d          21.381  10.359  26.482  0.00  0.00     0.042 A 
ATOM      4  C4  T44 d          20.359  10.950  25.655  0.00  0.00     0.109 A 
ATOM      5  C5  T44 d          19.167  11.329  26.256  0.00  0.00     0.042 A 
ATOM      6  C6  T44 d          18.928  11.158  27.648  0.00  0.00     0.028 A 
ATOM      7  I3  T44 d          23.213   9.765  25.674  0.00  0.00    -0.042 I 
ATOM      8  I5  T44 d          17.648  12.201  25.082  0.00  0.00    -0.042 I 
ENDROOT
BRANCH   4   9
ATOM      9  O4  T44 d          20.596  11.119  24.295  0.00  0.00    -0.308 OA
BRANCH   9  10
ATOM     10  C1' T44 d          21.259  12.244  23.761  0.00  0.00     0.078 A 
ATOM     11  C2' T44 d          21.464  12.222  22.366  0.00  0.00     0.058 A 
ATOM     12  C3' T44 d          22.122  13.317  21.768  0.00  0.00     0.043 A 
ATOM     13  C4' T44 d          22.600  14.482  22.519  0.00  0.00     0.098 A 
ATOM     14  I3' T44 d          22.434  13.323  19.699  0.00  0.00    -0.042 I 
ATOM     15  C5' T44 d          22.347  14.407  23.911  0.00  0.00     0.043 A 
ATOM     16  C6' T44 d          21.697  13.341  24.550  0.00  0.00     0.058 A 
ATOM     17  I5' T44 d          22.968  15.987  25.111  0.00  0.00    -0.042 I 
BRANCH  13  18
ATOM     18  O4' T44 d          23.205  15.486  21.937  0.00  0.00    -0.358 OA
ATOM     19  H11 T44 d          23.264  15.321  21.003  0.00  0.00     0.217 HD
ENDBRANCH  13  18
ENDBRANCH   9  10
ENDBRANCH   4   9
BRANCH   1  20
ATOM     20  C7  T44 d          19.755  10.365  29.974  0.00  0.00     0.082 C 
BRANCH  20  21
ATOM     21  C8  T44 d          20.059   8.988  30.547  0.00  0.00     0.287 C 
BRANCH  21  22
ATOM     22  C9  T44 d          20.256   8.939  32.091  0.00  0.00     0.204 C 
ATOM     23  O9  T44 d          19.500   9.638  32.786  0.00  0.00    -0.646 OA
ATOM     24  O10 T44 d          21.151   8.204  32.521  0.00  0.00    -0.646 OA
ENDBRANCH  21  22
BRANCH  21  25
ATOM     25  N8  T44 d          18.917   8.072  30.206  0.00  0.00    -0.065 N 
ATOM     26  H8  T44 d          19.101   7.153  30.578  0.00  0.00     0.275 HD
ATOM     27  H9  T44 d          18.819   8.015  29.204  0.00  0.00     0.275 HD
ATOM     28  H10 T44 d          18.066   8.433  30.607  0.00  0.00     0.275 HD
ENDBRANCH  21  25
ENDBRANCH  20  21
ENDBRANCH   1  20
TORSDOF 7
