REMARK  14 active torsions:
REMARK  status: ('A' for Active; 'I' for Inactive)
REMARK    1  A    between atoms: C4_9  and  O4_2 
REMARK    2  A    between atoms: C5_10  and  O5_3 
REMARK    3  A    between atoms: N2_4  and  C2_7 
REMARK    4  A    between atoms: N7_5  and  C7_12 
REMARK    5  A    between atoms: C2_7  and  C20_27 
REMARK    6  A    between atoms: C3_8  and  C31_13 
REMARK    7  A    between atoms: C6_11  and  C61_20 
REMARK    8  A    between atoms: C7_12  and  C70_41 
REMARK    9  A    between atoms: C31_13  and  C32_14 
REMARK   10  A    between atoms: C61_20  and  C62_21 
REMARK   11  A    between atoms: C22_29  and  C26_33 
REMARK       I    between atoms: C26_33  and  N26_35 
REMARK   12  A    between atoms: N26_35  and  C27_37 
REMARK   13  A    between atoms: C72_43  and  C76_47 
REMARK       I    between atoms: C76_47  and  N76_49 
REMARK   14  A    between atoms: N76_49  and  C77_51 
ROOT
ATOM      1  O1  XV6 d          -8.358  14.369  27.859  0.00  0.00    -0.247 OA
ATOM      2  N2  XV6 d          -9.793  15.728  28.920  0.00  0.00    -0.322 N 
ATOM      3  N7  XV6 d          -8.784  16.290  26.840  0.00  0.00    -0.322 N 
ATOM      4  C1  XV6 d          -8.973  15.437  27.873  0.00  0.00     0.322 C 
ATOM      5  C3  XV6 d         -10.950  16.637  28.886  0.00  0.00     0.124 C 
ATOM      6  C4  XV6 d         -10.687  18.103  28.625  0.00  0.00     0.172 C 
ATOM      7  C5  XV6 d         -10.274  18.352  27.195  0.00  0.00     0.172 C 
ATOM      8  C6  XV6 d          -8.912  17.763  26.920  0.00  0.00     0.124 C 
ENDROOT
BRANCH   2   9
ATOM      9  C2  XV6 d          -9.653  14.909  30.120  0.00  0.00     0.166 C 
BRANCH   9  10
ATOM     10  C20 XV6 d          -9.615  15.624  31.439  0.00  0.00    -0.039 A 
ATOM     11  C25 XV6 d          -8.788  16.753  31.639  0.00  0.00     0.009 A 
ATOM     12  C24 XV6 d          -8.728  17.367  32.904  0.00  0.00     0.002 A 
ATOM     13  C23 XV6 d          -9.498  16.844  33.961  0.00  0.00     0.017 A 
ATOM     14  C22 XV6 d         -10.315  15.718  33.746  0.00  0.00     0.033 A 
ATOM     15  C21 XV6 d         -10.383  15.108  32.486  0.00  0.00     0.026 A 
BRANCH  14  16
ATOM     16  C26 XV6 d         -11.040  15.127  34.908  0.00  0.00     0.257 C 
ATOM     17  N26 XV6 d         -11.163  13.797  34.842  0.00  0.00    -0.301 N 
ATOM     18  H29 XV6 d         -10.843  13.303  34.034  0.00  0.00     0.171 HD
ATOM     19  O26 XV6 d         -11.438  15.773  35.864  0.00  0.00    -0.267 OA
BRANCH  17  20
ATOM     20  C27 XV6 d         -11.764  13.073  35.950  0.00  0.00     0.173 A 
ATOM     21  N27 XV6 d         -11.821  11.735  36.072  0.00  0.00    -0.236 NA
ATOM     22  C28 XV6 d         -12.449  11.339  37.227  0.00  0.00     0.126 A 
ATOM     23  C29 XV6 d         -12.908  12.387  38.052  0.00  0.00     0.072 A 
ATOM     24  S29 XV6 d         -12.496  13.825  37.269  0.00  0.00    -0.062 SA
ENDBRANCH  17  20
ENDBRANCH  14  16
ENDBRANCH   9  10
ENDBRANCH   2   9
BRANCH   5  25
ATOM     25  C31 XV6 d         -12.078  16.009  28.029  0.00  0.00     0.066 C 
BRANCH  25  26
ATOM     26  C32 XV6 d         -12.589  14.725  28.635  0.00  0.00    -0.056 A 
ATOM     27  C37 XV6 d         -13.412  14.779  29.786  0.00  0.00     0.007 A 
ATOM     28  C36 XV6 d         -13.783  13.579  30.438  0.00  0.00     0.001 A 
ATOM     29  C35 XV6 d         -13.344  12.332  29.934  0.00  0.00     0.000 A 
ATOM     30  C34 XV6 d         -12.537  12.283  28.772  0.00  0.00     0.001 A 
ATOM     31  C33 XV6 d         -12.159  13.476  28.118  0.00  0.00     0.007 A 
ENDBRANCH  25  26
ENDBRANCH   5  25
BRANCH   3  32
ATOM     32  C7  XV6 d          -8.148  15.778  25.623  0.00  0.00     0.166 C 
BRANCH  32  33
ATOM     33  C70 XV6 d          -8.852  16.060  24.321  0.00  0.00    -0.039 A 
ATOM     34  C75 XV6 d         -10.250  15.920  24.178  0.00  0.00     0.009 A 
ATOM     35  C74 XV6 d         -10.851  16.159  22.930  0.00  0.00     0.002 A 
ATOM     36  C73 XV6 d         -10.062  16.550  21.831  0.00  0.00     0.017 A 
ATOM     37  C72 XV6 d          -8.674  16.687  21.991  0.00  0.00     0.033 A 
ATOM     38  C71 XV6 d          -8.061  16.437  23.234  0.00  0.00     0.026 A 
BRANCH  37  39
ATOM     39  C76 XV6 d          -7.834  17.114  20.842  0.00  0.00     0.257 C 
ATOM     40  N76 XV6 d          -6.572  16.656  20.940  0.00  0.00    -0.301 N 
ATOM     41  H36 XV6 d          -6.319  16.175  21.780  0.00  0.00     0.171 HD
ATOM     42  O76 XV6 d          -8.243  17.792  19.912  0.00  0.00    -0.267 OA
BRANCH  40  43
ATOM     43  C77 XV6 d          -5.541  16.808  19.911  0.00  0.00     0.173 A 
ATOM     44  N77 XV6 d          -4.400  16.096  19.912  0.00  0.00    -0.236 NA
ATOM     45  C78 XV6 d          -3.646  16.333  18.785  0.00  0.00     0.126 A 
ATOM     46  C79 XV6 d          -4.191  17.253  17.861  0.00  0.00     0.072 A 
ATOM     47  S79 XV6 d          -5.664  17.769  18.503  0.00  0.00    -0.062 SA
ENDBRANCH  40  43
ENDBRANCH  37  39
ENDBRANCH  32  33
ENDBRANCH   3  32
BRANCH   6  48
ATOM     48  O4  XV6 d         -11.891  18.762  28.890  0.00  0.00    -0.391 OA
ATOM     49  H1  XV6 d         -11.777  19.695  28.753  0.00  0.00     0.210 HD
ENDBRANCH   6  48
BRANCH   8  50
ATOM     50  C61 XV6 d          -7.763  18.339  27.790  0.00  0.00     0.066 C 
BRANCH  50  51
ATOM     51  C62 XV6 d          -6.393  18.243  27.151  0.00  0.00    -0.056 A 
ATOM     52  C67 XV6 d          -5.402  17.433  27.745  0.00  0.00     0.007 A 
ATOM     53  C66 XV6 d          -4.114  17.368  27.168  0.00  0.00     0.001 A 
ATOM     54  C65 XV6 d          -3.836  18.118  26.004  0.00  0.00     0.000 A 
ATOM     55  C64 XV6 d          -4.830  18.931  25.404  0.00  0.00     0.001 A 
ATOM     56  C63 XV6 d          -6.114  18.991  25.978  0.00  0.00     0.007 A 
ENDBRANCH  50  51
ENDBRANCH   8  50
BRANCH   7  57
ATOM     57  O5  XV6 d         -10.137  19.728  26.943  0.00  0.00    -0.391 OA
ATOM     58  H2  XV6 d         -10.968  20.162  27.099  0.00  0.00     0.210 HD
ENDBRANCH   7  57
TORSDOF 14
