REMARK  4 active torsions:
REMARK  status: ('A' for Active; 'I' for Inactive)
REMARK    1  A    between atoms: NAK_11  and  CAJ_10 
REMARK    2  A    between atoms: CAJ_10  and  CAN_14 
REMARK    3  A    between atoms: CAO_15  and  NAK_11 
REMARK    4  A    between atoms: CAM_13  and  CAP_16 
ROOT
ATOM      1  CAC FUZ d          21.370 -17.952  31.276  0.00  0.00     0.002 A 
ATOM      2  CAD FUZ d          21.350 -18.979  32.232  0.00  0.00     0.001 A 
ATOM      3  CAH FUZ d          22.484 -17.774  30.443  0.00  0.00     0.030 A 
ATOM      4  CAI FUZ d          22.481 -19.816  32.369  0.00  0.00     0.021 A 
ATOM      5  CAO FUZ d          23.603 -18.600  30.546  0.00  0.00     0.045 A 
ATOM      6  CAP FUZ d          23.604 -19.614  31.525  0.00  0.00     0.067 A 
ENDROOT
BRANCH   5   7
ATOM      7  NAK FUZ d          24.684 -18.422  29.743  0.00  0.00    -0.383 N 
ATOM      8  H10 FUZ d          25.526 -18.999  29.883  0.00  0.00     0.160 HD
BRANCH   7   9
ATOM      9  CAJ FUZ d          24.659 -17.391  28.654  0.00  0.00     0.184 C 
BRANCH   9  10
ATOM     10  CAN FUZ d          23.903 -17.883  27.404  0.00  0.00     0.070 A 
ATOM     11  CAG FUZ d          22.796 -17.351  26.876  0.00  0.00     0.036 A 
ATOM     12  CAE FUZ d          22.445 -18.046  25.769  0.00  0.00     0.027 A 
ATOM     13  CAF FUZ d          23.328 -19.030  25.581  0.00  0.00     0.142 A 
ATOM     14  OAL FUZ d          24.309 -18.959  26.614  0.00  0.00    -0.325 OA
ENDBRANCH   9  10
ENDBRANCH   7   9
ENDBRANCH   5   7
BRANCH   6  15
ATOM     15  CAM FUZ d          24.852 -20.546  31.666  0.00  0.00     0.211 C 
ATOM     16  OAA FUZ d          25.802 -20.375  30.861  0.00  0.00    -0.644 OA
ATOM     17  OAB FUZ d          24.819 -21.422  32.572  0.00  0.00    -0.644 OA
ENDBRANCH   6  15
TORSDOF 4
