REMARK  23 active torsions:
REMARK  status: ('A' for Active; 'I' for Inactive)
REMARK    1  A    between atoms: C2_2  and  O2_3 
REMARK    2  A    between atoms: C3_4  and  O3_5 
REMARK    3  A    between atoms: O4_7  and  C4_6 
REMARK    4  A    between atoms: C1_12  and  O4_7 
REMARK    5  A    between atoms: C5_8  and  C6_10 
REMARK    6  A    between atoms: C6_10  and  O6_11 
REMARK    7  A    between atoms: C2_13  and  N2_20 
REMARK    8  A    between atoms: C3_14  and  O3_21 
REMARK    9  A    between atoms: O4_22  and  C4_15 
REMARK   10  A    between atoms: C5_16  and  C6_17 
REMARK   11  A    between atoms: C6_17  and  O6_24 
REMARK       I    between atoms: N2_20  and  C7_18 
REMARK   12  A    between atoms: C1_26  and  O4_22 
REMARK   13  A    between atoms: C2_27  and  N2_34 
REMARK   14  A    between atoms: C3_28  and  O3_35 
REMARK   15  A    between atoms: O4_36  and  C4_29 
REMARK   16  A    between atoms: C5_30  and  C6_31 
REMARK   17  A    between atoms: C6_31  and  O6_38 
REMARK       I    between atoms: N2_34  and  C7_32 
REMARK   18  A    between atoms: C1_40  and  O4_36 
REMARK   19  A    between atoms: N2_48  and  C2_41 
REMARK   20  A    between atoms: C3_42  and  O3_49 
REMARK   21  A    between atoms: C4_43  and  O4_50 
REMARK   22  A    between atoms: C5_44  and  C6_45 
REMARK   23  A    between atoms: C6_45  and  O6_52 
REMARK       I    between atoms: C7_46  and  N2_48 
ROOT
ATOM      1  C1  NOJ d          25.367   3.933 -11.815  0.00  0.00     0.286 C 
ATOM      2  C2  NOJ d          26.768   3.861 -12.417  0.00  0.00     0.170 C 
ATOM      3  C3  NOJ d          26.752   3.350 -13.852  0.00  0.00     0.177 C 
ATOM      4  C4  NOJ d          25.857   2.119 -14.000  0.00  0.00     0.186 C 
ATOM      5  C5  NOJ d          24.477   2.409 -13.411  0.00  0.00     0.180 C 
ATOM      6  O5  NOJ d          24.632   2.744 -12.048  0.00  0.00    -0.349 OA
ENDROOT
BRANCH   1   7
ATOM      7  O4  NOJ d          25.579   4.158 -10.413  0.00  0.00    -0.348 OA
BRANCH   7   8
ATOM      8  C4  NOJ d          24.443   4.631  -9.737  0.00  0.00     0.186 C 
ATOM      9  C3  NOJ d          23.982   3.495  -8.809  0.00  0.00     0.177 C 
ATOM     10  C2  NOJ d          23.092   4.031  -7.710  0.00  0.00     0.170 C 
ATOM     11  C1  NOJ d          23.738   5.251  -7.062  0.00  0.00     0.286 C 
ATOM     12  O5  NOJ d          23.933   6.283  -8.008  0.00  0.00    -0.349 OA
ATOM     13  C5  NOJ d          24.878   5.908  -8.987  0.00  0.00     0.180 C 
BRANCH   9  14
ATOM     14  O3  NOJ d          23.257   2.497  -9.497  0.00  0.00    -0.391 OA
ATOM     15  H25 NOJ d          23.806   2.119 -10.174  0.00  0.00     0.210 HD
ENDBRANCH   9  14
BRANCH  10  16
ATOM     16  N2  NOJ d          22.841   3.051  -6.668  0.00  0.00    -0.349 N 
ATOM     17  C7  NOJ d          21.613   2.661  -6.316  0.00  0.00     0.214 C 
ATOM     18  C8  NOJ d          21.558   1.687  -5.185  0.00  0.00     0.117 C 
ATOM     19  O7  NOJ d          20.576   3.045  -6.857  0.00  0.00    -0.274 OA
ATOM     20  H24 NOJ d          23.624   2.650  -6.192  0.00  0.00     0.163 HD
ENDBRANCH  10  16
BRANCH  11  21
ATOM     21  O4  NOJ d          23.083   5.939  -6.011  0.00  0.00    -0.349 OA
BRANCH  21  22
ATOM     22  C4  NOJ d          23.693   6.645  -4.926  0.00  0.00     0.188 C 
ATOM     23  C3  NOJ d          23.746   8.151  -5.160  0.00  0.00     0.179 C 
ATOM     24  C2  NOJ d          24.403   8.857  -3.974  0.00  0.00     0.175 C 
ATOM     25  C1  NOJ d          23.616   8.630  -2.692  0.00  0.00     0.267 C 
ATOM     26  N5  NOJ d          23.294   7.217  -2.567  0.00  0.00    -0.064 N 
ATOM     27  C5  NOJ d          22.863   6.387  -3.690  0.00  0.00     0.240 C 
ATOM     28  H9  NOJ d          22.555   7.162  -1.884  0.00  0.00     0.277 HD
ATOM     29  H10 NOJ d          24.123   6.777  -2.201  0.00  0.00     0.277 HD
BRANCH  23  30
ATOM     30  O3  NOJ d          24.505   8.382  -6.334  0.00  0.00    -0.390 OA
ATOM     31  H6  NOJ d          24.093   7.941  -7.068  0.00  0.00     0.210 HD
ENDBRANCH  23  30
BRANCH  24  32
ATOM     32  O2  NOJ d          24.480  10.267  -4.184  0.00  0.00    -0.391 OA
ATOM     33  H4  NOJ d          24.968  10.441  -4.980  0.00  0.00     0.210 HD
ENDBRANCH  24  32
BRANCH  27  34
ATOM     34  C6  NOJ d          22.962   4.915  -3.313  0.00  0.00     0.199 C 
BRANCH  34  35
ATOM     35  O6  NOJ d          24.299   4.687  -2.874  0.00  0.00    -0.399 OA
ATOM     36  H13 NOJ d          24.399   3.775  -2.629  0.00  0.00     0.209 HD
ENDBRANCH  34  35
ENDBRANCH  27  34
ENDBRANCH  21  22
ENDBRANCH  11  21
BRANCH  13  37
ATOM     37  C6  NOJ d          25.144   7.108  -9.907  0.00  0.00     0.198 C 
BRANCH  37  38
ATOM     38  O6  NOJ d          23.987   7.462 -10.643  0.00  0.00    -0.398 OA
ATOM     39  H26 NOJ d          23.288   7.692 -10.042  0.00  0.00     0.209 HD
ENDBRANCH  37  38
ENDBRANCH  13  37
ENDBRANCH   7   8
ENDBRANCH   1   7
BRANCH   2  40
ATOM     40  N2  NOJ d          27.425   5.162 -12.350  0.00  0.00    -0.349 N 
ATOM     41  C7  NOJ d          28.385   5.447 -11.466  0.00  0.00     0.214 C 
ATOM     42  C8  NOJ d          28.963   6.833 -11.524  0.00  0.00     0.117 C 
ATOM     43  O7  NOJ d          28.801   4.642 -10.631  0.00  0.00    -0.274 OA
ATOM     44  H37 NOJ d          27.144   5.872 -12.995  0.00  0.00     0.163 HD
ENDBRANCH   2  40
BRANCH   3  45
ATOM     45  O3  NOJ d          28.077   3.038 -14.219  0.00  0.00    -0.391 OA
ATOM     46  H38 NOJ d          28.094   2.748 -15.124  0.00  0.00     0.210 HD
ENDBRANCH   3  45
BRANCH   5  47
ATOM     47  C6  NOJ d          23.497   1.246 -13.570  0.00  0.00     0.198 C 
BRANCH  47  48
ATOM     48  O6  NOJ d          23.947   0.103 -12.872  0.00  0.00    -0.398 OA
ATOM     49  H39 NOJ d          24.028   0.309 -11.948  0.00  0.00     0.209 HD
ENDBRANCH  47  48
ENDBRANCH   5  47
BRANCH   4  50
ATOM     50  O4  NOJ d          25.717   1.783 -15.361  0.00  0.00    -0.348 OA
BRANCH  50  51
ATOM     51  C1  NOJ d          26.210   0.459 -15.619  0.00  0.00     0.286 C 
ATOM     52  C2  NOJ d          25.590  -0.072 -16.914  0.00  0.00     0.170 C 
ATOM     53  C3  NOJ d          26.181  -1.431 -17.276  0.00  0.00     0.177 C 
ATOM     54  C4  NOJ d          27.705  -1.354 -17.263  0.00  0.00     0.180 C 
ATOM     55  C5  NOJ d          28.174  -0.834 -15.906  0.00  0.00     0.179 C 
ATOM     56  O5  NOJ d          27.623   0.455 -15.698  0.00  0.00    -0.349 OA
BRANCH  52  57
ATOM     57  N2  NOJ d          24.140  -0.129 -16.814  0.00  0.00    -0.349 N 
ATOM     58  C7  NOJ d          23.354   0.666 -17.539  0.00  0.00     0.214 C 
ATOM     59  C8  NOJ d          21.877   0.508 -17.341  0.00  0.00     0.117 C 
ATOM     60  O7  NOJ d          23.780   1.497 -18.348  0.00  0.00    -0.274 OA
ATOM     61  H50 NOJ d          23.721  -0.783 -16.184  0.00  0.00     0.163 HD
ENDBRANCH  52  57
BRANCH  53  62
ATOM     62  O3  NOJ d          25.732  -1.823 -18.552  0.00  0.00    -0.391 OA
ATOM     63  H51 NOJ d          26.091  -2.676 -18.765  0.00  0.00     0.210 HD
ENDBRANCH  53  62
BRANCH  54  64
ATOM     64  O4  NOJ d          28.251  -2.626 -17.520  0.00  0.00    -0.390 OA
ATOM     65  H52 NOJ d          27.949  -2.934 -18.367  0.00  0.00     0.210 HD
ENDBRANCH  54  64
BRANCH  55  66
ATOM     66  C6  NOJ d          29.695  -0.784 -15.807  0.00  0.00     0.198 C 
BRANCH  66  67
ATOM     67  O6  NOJ d          30.169   0.395 -16.418  0.00  0.00    -0.398 OA
ATOM     68  H53 NOJ d          29.798   1.150 -15.977  0.00  0.00     0.209 HD
ENDBRANCH  66  67
ENDBRANCH  55  66
ENDBRANCH  50  51
ENDBRANCH   4  50
TORSDOF 23
