REMARK  13 active torsions:
REMARK  status: ('A' for Active; 'I' for Inactive)
REMARK    1  A    between atoms: C2_5  and  C1_1 
REMARK    2  A    between atoms: C1_1  and  O3_10 
REMARK    3  A    between atoms: S1_4  and  N1_2 
REMARK    4  A    between atoms: O3_10  and  S1_4 
REMARK    5  A    between atoms: C3_9  and  C2_5 
REMARK    6  A    between atoms: S2_8  and  N2_6 
REMARK    7  A    between atoms: O4_12  and  S2_8 
REMARK    8  A    between atoms: C4_11  and  C3_9 
REMARK    9  A    between atoms: C5_13  and  C4_11 
REMARK   10  A    between atoms: C8_18  and  O4_12 
REMARK   11  A    between atoms: C6_15  and  C5_13 
REMARK   12  A    between atoms: C7_17  and  C6_15 
REMARK   13  A    between atoms: C7_17  and  C8_18 
ROOT
ATOM      1  C4  O59 d          -4.370   5.621  13.521  0.00  0.00     0.000 C 
ENDROOT
BRANCH   1   2
ATOM      2  C3  O59 d          -4.988   4.397  14.149  0.00  0.00     0.002 C 
BRANCH   2   3
ATOM      3  C2  O59 d          -4.101   3.180  14.126  0.00  0.00     0.028 C 
BRANCH   3   4
ATOM      4  C1  O59 d          -4.771   1.923  14.597  0.00  0.00     0.192 C 
BRANCH   4   5
ATOM      5  O3  O59 d          -5.020   2.069  16.050  0.00  0.00    -0.260 OA
BRANCH   5   6
ATOM      6  S1  O59 d          -5.835   0.930  16.769  0.00  0.00     0.355 S 
ATOM      7  O1  O59 d          -7.192   1.155  16.395  0.00  0.00    -0.176 OA
ATOM      8  O2  O59 d          -5.450   1.031  18.145  0.00  0.00    -0.176 OA
BRANCH   6   9
ATOM      9  N1  O59 d          -5.370  -0.466  16.223  0.00  0.00    -0.306 N 
ATOM     10  H3  O59 d          -5.787  -1.304  16.574  0.00  0.00     0.171 HD
ATOM     11  H4  O59 d          -4.657  -0.517  15.524  0.00  0.00     0.171 HD
ENDBRANCH   6   9
ENDBRANCH   5   6
ENDBRANCH   4   5
ENDBRANCH   3   4
ENDBRANCH   2   3
ENDBRANCH   1   2
BRANCH   1  12
ATOM     12  C5  O59 d          -3.231   6.215  14.305  0.00  0.00     0.000 C 
BRANCH  12  13
ATOM     13  C6  O59 d          -2.436   7.238  13.551  0.00  0.00     0.002 C 
BRANCH  13  14
ATOM     14  C7  O59 d          -1.501   8.030  14.423  0.00  0.00     0.028 C 
BRANCH  14  15
ATOM     15  C8  O59 d          -0.955   9.267  13.769  0.00  0.00     0.192 C 
BRANCH  15  16
ATOM     16  O4  O59 d          -1.985  10.321  13.901  0.00  0.00    -0.260 OA
BRANCH  16  17
ATOM     17  S2  O59 d          -1.633  11.778  13.405  0.00  0.00     0.355 S 
ATOM     18  O5  O59 d          -0.681  12.273  14.352  0.00  0.00    -0.176 OA
ATOM     19  O6  O59 d          -2.900  12.420  13.253  0.00  0.00    -0.176 OA
BRANCH  17  20
ATOM     20  N2  O59 d          -0.946  11.696  11.991  0.00  0.00    -0.306 N 
ATOM     21  H7  O59 d          -0.656  12.533  11.527  0.00  0.00     0.171 HD
ATOM     22  H8  O59 d          -0.800  10.807  11.557  0.00  0.00     0.171 HD
ENDBRANCH  17  20
ENDBRANCH  16  17
ENDBRANCH  15  16
ENDBRANCH  14  15
ENDBRANCH  13  14
ENDBRANCH  12  13
ENDBRANCH   1  12
TORSDOF 13
