REMARK  8 active torsions:
REMARK  status: ('A' for Active; 'I' for Inactive)
REMARK    1  A    between atoms: P_1  and  S2P_3 
REMARK    2  A    between atoms: P_1  and  O5'_5 
REMARK    3  A    between atoms: O5'_5  and  C5'_6 
REMARK    4  A    between atoms: C5'_6  and  C4'_7 
REMARK    5  A    between atoms: C3'_9  and  O3'_10 
REMARK    6  A    between atoms: C2'_11  and  O2'_23 
REMARK    7  A    between atoms: C1'_12  and  N9_13 
REMARK    8  A    between atoms: C6_17  and  N6_18 
ROOT
ATOM      1  C4' SRA d          45.309 -14.679  -9.397  0.00  0.00     0.180 C 
ATOM      2  O4' SRA d          46.448 -13.834  -9.624  0.00  0.00    -0.353 OA
ATOM      3  C3' SRA d          45.792 -15.698  -8.376  0.00  0.00     0.182 C 
ATOM      4  C2' SRA d          47.243 -15.901  -8.779  0.00  0.00     0.198 C 
ATOM      5  C1' SRA d          47.622 -14.497  -9.231  0.00  0.00     0.262 C 
ENDROOT
BRANCH   5   6
ATOM      6  N9  SRA d          48.251 -13.720  -8.165  0.00  0.00    -0.294 N 
ATOM      7  C8  SRA d          48.197 -13.867  -6.769  0.00  0.00     0.214 A 
ATOM      8  N7  SRA d          49.005 -12.893  -6.245  0.00  0.00    -0.236 NA
ATOM      9  C5  SRA d          49.559 -12.136  -7.354  0.00  0.00     0.149 A 
ATOM     10  C6  SRA d          50.468 -11.038  -7.420  0.00  0.00     0.155 A 
ATOM     11  C4  SRA d          49.088 -12.643  -8.496  0.00  0.00     0.167 A 
ATOM     12  N1  SRA d          50.814 -10.517  -8.655  0.00  0.00    -0.222 NA
ATOM     13  C2  SRA d          50.303 -11.049  -9.847  0.00  0.00     0.237 A 
ATOM     14  N3  SRA d          49.444 -12.122  -9.794  0.00  0.00    -0.222 NA
BRANCH  10  15
ATOM     15  N6  SRA d          51.042 -10.526  -6.201  0.00  0.00    -0.382 N 
ATOM     16  H10 SRA d          51.700  -9.734  -6.234  0.00  0.00     0.157 HD
ATOM     17  H11 SRA d          50.795 -10.952  -5.296  0.00  0.00     0.157 HD
ENDBRANCH  10  15
ENDBRANCH   5   6
BRANCH   4  18
ATOM     18  O2' SRA d          47.337 -16.758  -9.903  0.00  0.00    -0.388 OA
ATOM     19  H13 SRA d          47.105 -17.642  -9.646  0.00  0.00     0.210 HD
ENDBRANCH   4  18
BRANCH   1  20
ATOM     20  C5' SRA d          44.151 -13.832  -8.981  0.00  0.00     0.214 C 
BRANCH  20  21
ATOM     21  O5' SRA d          42.949 -14.440  -9.367  0.00  0.00    -0.301 OA
BRANCH  21  22
ATOM     22  P   SRA d          41.617 -13.614  -9.460  0.00  0.00     0.313 P 
ATOM     23  OP1 SRA d          41.409 -12.827  -8.064  0.00  0.00    -0.638 OA
ATOM     24  OP3 SRA d          40.577 -14.527  -9.913  0.00  0.00    -0.638 OA
BRANCH  22  25
ATOM     25  S2P SRA d          41.904 -12.258 -11.028  0.00  0.00    -0.055 SA
ATOM     26  H1  SRA d          42.032 -12.765 -11.890  0.00  0.00     0.114 HD
ENDBRANCH  22  25
ENDBRANCH  21  22
ENDBRANCH  20  21
ENDBRANCH   1  20
BRANCH   3  27
ATOM     27  O3' SRA d          45.032 -16.897  -8.384  0.00  0.00    -0.390 OA
ATOM     28  H6  SRA d          45.088 -17.300  -9.242  0.00  0.00     0.210 HD
ENDBRANCH   3  27
TORSDOF 8
