REMARK  14 active torsions:
REMARK  status: ('A' for Active; 'I' for Inactive)
REMARK    1  A    between atoms: C4_6  and  C7_7 
REMARK    2  A    between atoms: C7_7  and  O1_8 
REMARK    3  A    between atoms: O1_8  and  C8_9 
REMARK    4  A    between atoms: C11_14  and  C14_15 
REMARK    5  A    between atoms: C14_15  and  C15_16 
REMARK    6  A    between atoms: C15_16  and  N2_17 
REMARK    7  A    between atoms: C15_16  and  C16_18 
REMARK    8  A    between atoms: C16_18  and  N3_19 
REMARK    9  A    between atoms: N3_19  and  O2_20 
REMARK       I    between atoms: N3_19  and  C17_21 
REMARK   10  A    between atoms: C17_21  and  C18_23 
REMARK   11  A    between atoms: C18_23  and  C19_24 
REMARK   12  A    between atoms: C19_24  and  C20_25 
REMARK   13  A    between atoms: C20_25  and  C21_26 
REMARK   14  A    between atoms: C21_26  and  C22_27 
ROOT
ATOM      1  C15 HA2 d          14.090  42.090  63.717  0.00  0.00     0.208 C 
ENDROOT
BRANCH   1   2
ATOM      2  C14 HA2 d          13.793  42.792  65.076  0.00  0.00     0.073 C 
BRANCH   2   3
ATOM      3  C11 HA2 d          12.342  42.564  65.525  0.00  0.00    -0.056 A 
ATOM      4  C12 HA2 d          11.292  43.346  65.007  0.00  0.00     0.010 A 
ATOM      5  C13 HA2 d           9.975  43.150  65.475  0.00  0.00     0.037 A 
ATOM      6  C8  HA2 d           9.712  42.170  66.455  0.00  0.00     0.069 A 
ATOM      7  C9  HA2 d          10.774  41.375  66.961  0.00  0.00     0.037 A 
ATOM      8  C10 HA2 d          12.085  41.578  66.495  0.00  0.00     0.010 A 
BRANCH   6   9
ATOM      9  O1  HA2 d           8.377  41.964  66.927  0.00  0.00    -0.347 OA
BRANCH   9  10
ATOM     10  C7  HA2 d           8.042  41.738  68.296  0.00  0.00     0.214 C 
BRANCH  10  11
ATOM     11  C4  HA2 d           7.951  40.251  68.608  0.00  0.00    -0.034 A 
ATOM     12  C3  HA2 d           8.101  39.279  67.591  0.00  0.00     0.009 A 
ATOM     13  C2  HA2 d           8.002  37.916  67.926  0.00  0.00     0.001 A 
ATOM     14  C1  HA2 d           7.770  37.500  69.245  0.00  0.00     0.000 A 
ATOM     15  C6  HA2 d           7.632  38.470  70.261  0.00  0.00     0.001 A 
ATOM     16  C5  HA2 d           7.719  39.838  69.930  0.00  0.00     0.009 A 
ENDBRANCH  10  11
ENDBRANCH   9  10
ENDBRANCH   6   9
ENDBRANCH   2   3
ENDBRANCH   1   2
BRANCH   1  17
ATOM     17  N2  HA2 d          13.562  40.725  63.729  0.00  0.00    -0.073 N 
ATOM     18  H15 HA2 d          13.759  40.281  62.846  0.00  0.00     0.274 HD
ATOM     19  H16 HA2 d          12.565  40.752  63.876  0.00  0.00     0.274 HD
ATOM     20  H17 HA2 d          13.998  40.203  64.473  0.00  0.00     0.274 HD
ENDBRANCH   1  17
BRANCH   1  21
ATOM     21  C16 HA2 d          15.612  42.038  63.458  0.00  0.00     0.192 C 
BRANCH  21  22
ATOM     22  N3  HA2 d          16.370  41.745  64.704  0.00  0.00    -0.227 N 
ATOM     23  C17 HA2 d          17.298  42.621  65.148  0.00  0.00     0.243 C 
ATOM     24  O3  HA2 d          17.516  43.681  64.539  0.00  0.00    -0.271 OA
BRANCH  22  25
ATOM     25  O2  HA2 d          16.112  40.619  65.395  0.00  0.00    -0.285 OA
ATOM     26  H20 HA2 d          16.676  40.581  66.158  0.00  0.00     0.245 HD
ENDBRANCH  22  25
BRANCH  23  27
ATOM     27  C18 HA2 d          18.054  42.301  66.424  0.00  0.00     0.105 C 
BRANCH  27  28
ATOM     28  C19 HA2 d          18.963  43.456  66.829  0.00  0.00     0.010 C 
BRANCH  28  29
ATOM     29  C20 HA2 d          18.475  44.068  68.138  0.00  0.00     0.011 C 
BRANCH  29  30
ATOM     30  C21 HA2 d          18.849  45.548  68.201  0.00  0.00     0.113 C 
BRANCH  30  31
ATOM     31  C22 HA2 d          17.625  46.402  68.479  0.00  0.00     0.172 C 
ATOM     32  O5  HA2 d          17.779  47.341  69.266  0.00  0.00    -0.648 OA
ATOM     33  O4  HA2 d          16.554  46.098  67.891  0.00  0.00    -0.648 OA
ENDBRANCH  30  31
ENDBRANCH  29  30
ENDBRANCH  28  29
ENDBRANCH  27  28
ENDBRANCH  23  27
ENDBRANCH  21  22
ENDBRANCH   1  21
TORSDOF 14
