REMARK  3 active torsions:
REMARK  status: ('A' for Active; 'I' for Inactive)
REMARK    1  A    between atoms: C1_4  and  N1_5 
REMARK    2  A    between atoms: C5_8  and  C1_4 
REMARK    3  A    between atoms: C15_12  and  C16_13 
ROOT
ATOM      1  C4  Z13 d         -23.678  43.475  15.692  0.00  0.00     0.009 A 
ATOM      2  C5  Z13 d         -24.675  42.771  16.423  0.00  0.00    -0.033 A 
ATOM      3  C6  Z13 d         -25.613  42.034  15.695  0.00  0.00     0.009 A 
ATOM      4  C7  Z13 d         -25.604  42.046  14.291  0.00  0.00     0.017 A 
ATOM      5  C8  Z13 d         -23.688  43.491  14.314  0.00  0.00     0.017 A 
ATOM      6  C15 Z13 d         -24.660  42.770  13.566  0.00  0.00     0.047 A 
ENDROOT
BRANCH   2   7
ATOM      7  C1  Z13 d         -24.625  42.709  17.886  0.00  0.00     0.270 C 
BRANCH   7   8
ATOM      8  N1  Z13 d         -23.611  41.764  18.234  0.00  0.00    -0.075 N 
ATOM      9  C2  Z13 d         -22.302  42.376  18.148  0.00  0.00     0.267 C 
ATOM     10  H   Z13 d         -23.654  40.981  17.600  0.00  0.00     0.277 HD
ATOM     11  H   Z13 d         -23.766  41.442  19.177  0.00  0.00     0.277 HD
ENDBRANCH   7   8
ENDBRANCH   2   7
BRANCH   6  12
ATOM     12  C16 Z13 d         -24.656  42.762  12.076  0.00  0.00     0.417 C 
ATOM     13  F2  Z13 d         -23.439  42.925  11.599  0.00  0.00    -0.166 F 
ATOM     14  F3  Z13 d         -25.093  41.566  11.653  0.00  0.00    -0.166 F 
ATOM     15  F4  Z13 d         -25.419  43.736  11.631  0.00  0.00    -0.166 F 
ENDBRANCH   6  12
TORSDOF 3
