REMARK  21 active torsions:
REMARK  status: ('A' for Active; 'I' for Inactive)
REMARK    1  A    between atoms: C_2  and  O2_3 
REMARK       I    between atoms: C_2  and  N_8 
REMARK    2  A    between atoms: O2_3  and  CT_4 
REMARK    3  A    between atoms: N_8  and  CA_9 
REMARK    4  A    between atoms: CA_9  and  C_10 
REMARK    5  A    between atoms: CA_9  and  CB_11 
REMARK    6  A    between atoms: C_10  and  CM_18 
REMARK    7  A    between atoms: CB_11  and  CG_12 
REMARK    8  A    between atoms: CM_18  and  N_19 
REMARK    9  A    between atoms: N_19  and  CA_20 
REMARK   10  A    between atoms: CA_20  and  C_21 
REMARK   11  A    between atoms: CA_20  and  CB_23 
REMARK       I    between atoms: C_21  and  N_30 
REMARK   12  A    between atoms: CB_23  and  CG_24 
REMARK   13  A    between atoms: N_30  and  CA_31 
REMARK   14  A    between atoms: CA_31  and  C_32 
REMARK   15  A    between atoms: CA_31  and  CB_34 
REMARK       I    between atoms: C_32  and  N_39 
REMARK   16  A    between atoms: CB_34  and  CG_35 
REMARK   17  A    between atoms: CG_35  and  CD_36 
REMARK   18  A    between atoms: N_39  and  CA_40 
REMARK   19  A    between atoms: CA_40  and  C_41 
REMARK   20  A    between atoms: CA_40  and  CB_43 
REMARK       I    between atoms: C_41  and  N_50 
REMARK   21  A    between atoms: CB_43  and  CG_44 
ROOT
ATOM      1  CA  MOL d         -11.262  15.914   0.418  0.00  0.00     0.281 C 
ENDROOT
BRANCH   1   2
ATOM      2  N   MOL d         -10.676  17.027  -0.334  0.00  0.00    -0.062 N 
ATOM      3  H23 MOL d         -10.332  16.664  -1.209  0.00  0.00     0.278 HD
ATOM      4  H24 MOL d         -11.405  17.699  -0.512  0.00  0.00     0.278 HD
BRANCH   2   5
ATOM      5  CM  MOL d          -9.576  17.722   0.327  0.00  0.00     0.235 C 
BRANCH   5   6
ATOM      6  C   MOL d          -8.806  18.625  -0.634  0.00  0.00     0.053 C 
BRANCH   6   7
ATOM      7  CA  MOL d          -7.634  17.926  -1.327  0.00  0.00     0.092 C 
BRANCH   7   8
ATOM      8  N   MOL d          -7.901  17.752  -2.751  0.00  0.00    -0.332 N 
ATOM      9  C   MOL d          -8.237  16.533  -3.254  0.00  0.00     0.361 C 
ATOM     10  O1  MOL d          -8.388  15.529  -2.595  0.00  0.00    -0.238 OA
ATOM     11  H10 MOL d          -7.836  18.539  -3.365  0.00  0.00     0.165 HD
BRANCH   9  12
ATOM     12  O2  MOL d          -8.370  16.644  -4.615  0.00  0.00    -0.294 OA
BRANCH  12  13
ATOM     13  CT  MOL d          -9.002  15.595  -5.493  0.00  0.00     0.061 C 
ATOM     14  C1  MOL d          -8.915  16.140  -6.914  0.00  0.00     0.046 C 
ATOM     15  C2  MOL d         -10.479  15.388  -5.086  0.00  0.00     0.046 C 
ATOM     16  C3  MOL d          -8.198  14.287  -5.369  0.00  0.00     0.046 C 
ENDBRANCH  12  13
ENDBRANCH   9  12
ENDBRANCH   7   8
BRANCH   7  17
ATOM     17  CB  MOL d          -6.320  18.694  -1.131  0.00  0.00     0.063 C 
BRANCH  17  18
ATOM     18  CG  MOL d          -5.140  18.028  -1.776  0.00  0.00    -0.056 A 
ATOM     19  CD1 MOL d          -4.692  18.439  -3.033  0.00  0.00     0.007 A 
ATOM     20  CE1 MOL d          -3.653  17.771  -3.676  0.00  0.00     0.001 A 
ATOM     21  CZ  MOL d          -3.049  16.678  -3.059  0.00  0.00     0.000 A 
ATOM     22  CE2 MOL d          -3.483  16.259  -1.802  0.00  0.00     0.001 A 
ATOM     23  CD2 MOL d          -4.523  16.935  -1.166  0.00  0.00     0.007 A 
ENDBRANCH  17  18
ENDBRANCH   7  17
ENDBRANCH   6   7
ENDBRANCH   5   6
ENDBRANCH   2   5
ENDBRANCH   1   2
BRANCH   1  24
ATOM     24  C   MOL d         -10.419  15.295   1.546  0.00  0.00     0.249 C 
ATOM     25  O   MOL d          -9.373  14.698   1.296  0.00  0.00    -0.271 OA
ATOM     26  N   MOL d         -10.903  15.425   2.780  0.00  0.00    -0.346 N 
ATOM     27  H33 MOL d         -11.760  15.925   2.902  0.00  0.00     0.163 HD
BRANCH  26  28
ATOM     28  CA  MOL d         -10.246  14.875   3.965  0.00  0.00     0.177 C 
BRANCH  28  29
ATOM     29  C   MOL d         -11.335  14.610   5.001  0.00  0.00     0.241 C 
ATOM     30  O   MOL d         -12.191  15.460   5.225  0.00  0.00    -0.271 OA
ATOM     31  N   MOL d         -11.310  13.439   5.631  0.00  0.00    -0.346 N 
ATOM     32  H39 MOL d         -10.595  12.776   5.410  0.00  0.00     0.163 HD
BRANCH  31  33
ATOM     33  CA  MOL d         -12.309  13.108   6.637  0.00  0.00     0.180 C 
BRANCH  33  34
ATOM     34  C   MOL d         -11.740  12.424   7.882  0.00  0.00     0.238 C 
ATOM     35  O   MOL d         -10.619  11.918   7.878  0.00  0.00    -0.271 OA
ATOM     36  N   MOL d         -12.522  12.416   8.955  0.00  0.00    -0.368 N 
ATOM     37  H48 MOL d         -12.207  11.984   9.800  0.00  0.00     0.159 HD
ATOM     38  H49 MOL d         -13.426  12.842   8.918  0.00  0.00     0.159 HD
ENDBRANCH  33  34
BRANCH  33  39
ATOM     39  CB  MOL d         -13.414  12.243   6.011  0.00  0.00     0.073 C 
BRANCH  39  40
ATOM     40  CG  MOL d         -12.926  10.937   5.442  0.00  0.00    -0.056 A 
ATOM     41  CD1 MOL d         -13.059   9.758   6.159  0.00  0.00     0.007 A 
ATOM     42  CE1 MOL d         -12.622   8.545   5.623  0.00  0.00     0.001 A 
ATOM     43  CZ  MOL d         -12.043   8.506   4.356  0.00  0.00     0.000 A 
ATOM     44  CE2 MOL d         -11.902   9.675   3.631  0.00  0.00     0.001 A 
ATOM     45  CD2 MOL d         -12.343  10.886   4.176  0.00  0.00     0.007 A 
ENDBRANCH  39  40
ENDBRANCH  33  39
ENDBRANCH  31  33
ENDBRANCH  28  29
BRANCH  28  46
ATOM     46  CB  MOL d          -9.221  15.867   4.527  0.00  0.00     0.045 C 
BRANCH  46  47
ATOM     47  CG  MOL d          -8.497  15.386   5.783  0.00  0.00     0.116 C 
BRANCH  47  48
ATOM     48  CD  MOL d          -9.376  15.421   7.034  0.00  0.00     0.172 C 
ATOM     49  OE1 MOL d          -8.992  14.827   8.069  0.00  0.00    -0.648 OA
ATOM     50  OE2 MOL d         -10.451  16.056   6.988  0.00  0.00    -0.648 OA
ENDBRANCH  47  48
ENDBRANCH  46  47
ENDBRANCH  28  46
ENDBRANCH  26  28
ENDBRANCH   1  24
BRANCH   1  51
ATOM     51  CB  MOL d         -11.657  14.793  -0.543  0.00  0.00     0.081 C 
BRANCH  51  52
ATOM     52  CG  MOL d         -12.383  13.663   0.120  0.00  0.00    -0.056 A 
ATOM     53  CD1 MOL d         -12.108  12.350  -0.229  0.00  0.00     0.007 A 
ATOM     54  CE1 MOL d         -12.752  11.293   0.399  0.00  0.00     0.001 A 
ATOM     55  CZ  MOL d         -13.691  11.549   1.395  0.00  0.00     0.000 A 
ATOM     56  CE2 MOL d         -13.979  12.859   1.752  0.00  0.00     0.001 A 
ATOM     57  CD2 MOL d         -13.325  13.912   1.113  0.00  0.00     0.007 A 
ENDBRANCH  51  52
ENDBRANCH   1  51
TORSDOF 21
