REMARK  3 active torsions:
REMARK  status: ('A' for Active; 'I' for Inactive)
REMARK    1  A    between atoms: C1'_19  and  C2_1 
REMARK    2  A    between atoms: C6_5  and  O5_12 
REMARK    3  A    between atoms: C8_7  and  O7_13 
ROOT
ATOM      1  C2  MOL d          38.008  34.818  29.228  0.00  0.00     0.090 A 
ATOM      2  C3  MOL d          37.126  34.262  30.162  0.00  0.00     0.094 A 
ATOM      3  C4  MOL d          36.925  34.899  31.389  0.00  0.00     0.190 A 
ATOM      4  C5  MOL d          37.628  36.080  31.663  0.00  0.00     0.081 A 
ATOM      5  C6  MOL d          37.532  36.736  32.895  0.00  0.00     0.085 A 
ATOM      6  C7  MOL d          38.263  37.900  33.125  0.00  0.00     0.074 A 
ATOM      7  C8  MOL d          39.107  38.405  32.141  0.00  0.00     0.071 A 
ATOM      8  C9  MOL d          39.226  37.752  30.925  0.00  0.00     0.075 A 
ATOM      9  C10 MOL d          38.493  36.589  30.690  0.00  0.00     0.095 A 
ATOM     10  O1  MOL d          38.666  35.986  29.487  0.00  0.00    -0.309 OA
ATOM     11  O4  MOL d          36.145  34.418  32.216  0.00  0.00    -0.287 OA
ENDROOT
BRANCH   1  12
ATOM     12  C1' MOL d          38.277  34.231  27.991  0.00  0.00    -0.002 A 
ATOM     13  C2' MOL d          38.683  35.041  26.923  0.00  0.00     0.014 A 
ATOM     14  C3' MOL d          38.982  34.475  25.686  0.00  0.00     0.001 A 
ATOM     15  C4' MOL d          38.889  33.096  25.512  0.00  0.00     0.000 A 
ATOM     16  C5' MOL d          38.496  32.282  26.576  0.00  0.00     0.001 A 
ATOM     17  C6' MOL d          38.201  32.846  27.816  0.00  0.00     0.014 A 
ENDBRANCH   1  12
BRANCH   5  18
ATOM     18  O5  MOL d          36.719  36.281  33.890  0.00  0.00    -0.360 OA
ATOM     19  H4  MOL d          36.283  35.487  33.603  0.00  0.00     0.217 HD
ENDBRANCH   5  18
BRANCH   7  20
ATOM     20  O7  MOL d          39.820  39.538  32.369  0.00  0.00    -0.361 OA
ATOM     21  H5  MOL d          39.629  39.861  33.242  0.00  0.00     0.217 HD
ENDBRANCH   7  20
TORSDOF 3
