REMARK  9 active torsions:
REMARK  status: ('A' for Active; 'I' for Inactive)
REMARK    1  A    between atoms: C7_4  and  C12_7 
REMARK    2  A    between atoms: C12_7  and  S15_8 
REMARK    3  A    between atoms: S15_8  and  N18_11 
REMARK    4  A    between atoms: N18_11  and  C20_12 
REMARK    5  A    between atoms: C37_21  and  C39_22 
REMARK       I    between atoms: C39_22  and  N41_24 
REMARK    6  A    between atoms: N41_24  and  C43_25 
REMARK    7  A    between atoms: C43_25  and  C46_26 
REMARK    8  A    between atoms: C46_26  and  C49_27 
REMARK    9  A    between atoms: C49_27  and  N52_28 
REMARK       I    between atoms: N52_28  and  C54_29 
REMARK       I    between atoms: C54_29  and  N55_30 
ROOT
ATOM      1  C20 R56 d          18.055 -15.582  22.804  0.00  0.00     0.185 C 
ATOM      2  C22 R56 d          17.348 -14.345  22.310  0.00  0.00     0.245 C 
ATOM      3  O23 R56 d          16.354 -13.915  22.914  0.00  0.00    -0.271 OA
ATOM      4  N24 R56 d          17.848 -13.772  21.187  0.00  0.00    -0.323 N 
ATOM      5  C25 R56 d          19.009 -14.336  20.548  0.00  0.00     0.150 C 
ATOM      6  C27 R56 d          20.106 -14.608  21.547  0.00  0.00     0.039 C 
ATOM      7  C30 R56 d          19.596 -15.416  22.758  0.00  0.00     0.038 C 
ATOM      8  S33 R56 d          19.577 -13.030  19.526  0.00  0.00    -0.141 SA
ATOM      9  C34 R56 d          17.910 -12.366  19.287  0.00  0.00     0.111 C 
ATOM     10  C37 R56 d          17.224 -12.562  20.598  0.00  0.00     0.190 C 
ENDROOT
BRANCH  10  11
ATOM     11  C39 R56 d          15.682 -12.739  20.379  0.00  0.00     0.241 C 
ATOM     12  N41 R56 d          14.894 -11.653  20.671  0.00  0.00    -0.359 N 
ATOM     13  H18 R56 d          15.296 -10.800  21.005  0.00  0.00     0.162 HD
ATOM     14  O40 R56 d          15.227 -13.784  19.928  0.00  0.00    -0.271 OA
BRANCH  12  15
ATOM     15  C43 R56 d          13.460 -11.779  20.481  0.00  0.00     0.124 C 
BRANCH  15  16
ATOM     16  C46 R56 d          12.747 -10.602  21.115  0.00  0.00     0.040 C 
BRANCH  16  17
ATOM     17  C49 R56 d          12.860 -10.724  22.616  0.00  0.00     0.139 C 
BRANCH  17  18
ATOM     18  N52 R56 d          12.062 -11.866  23.111  0.00  0.00    -0.227 N 
ATOM     19  C54 R56 d          11.195 -11.710  24.088  0.00  0.00     0.665 C 
ATOM     20  N58 R56 d          10.507 -12.725  24.524  0.00  0.00    -0.235 N 
ATOM     21  N55 R56 d          11.032 -10.556  24.639  0.00  0.00    -0.235 N 
ATOM     22  H28 R56 d          10.628 -13.652  24.093  0.00  0.00     0.174 HD
ATOM     23  H29 R56 d           9.842 -12.601  25.300  0.00  0.00     0.174 HD
ATOM     24  H26 R56 d          10.351 -10.442  25.403  0.00  0.00     0.174 HD
ATOM     25  H27 R56 d          11.583  -9.748  24.315  0.00  0.00     0.174 HD
ATOM     26  H25 R56 d          12.187 -12.796  22.685  0.00  0.00     0.177 HD
ENDBRANCH  17  18
ENDBRANCH  16  17
ENDBRANCH  15  16
ENDBRANCH  12  15
ENDBRANCH  10  11
BRANCH   1  27
ATOM     27  N18 R56 d          17.652 -15.855  24.186  0.00  0.00    -0.305 N 
ATOM     28  H8  R56 d          17.260 -15.122  24.741  0.00  0.00     0.173 HD
BRANCH  27  29
ATOM     29  S15 R56 d          17.843 -17.394  24.850  0.00  0.00     0.231 S 
ATOM     30  O17 R56 d          16.590 -17.997  25.066  0.00  0.00    -0.206 OA
ATOM     31  O16 R56 d          18.881 -18.123  24.036  0.00  0.00    -0.206 OA
BRANCH  29  32
ATOM     32  C12 R56 d          18.567 -16.922  26.487  0.00  0.00     0.201 C 
BRANCH  32  33
ATOM     33  C7  R56 d          19.839 -16.096  26.206  0.00  0.00    -0.043 A 
ATOM     34  C5  R56 d          20.971 -16.703  25.629  0.00  0.00     0.008 A 
ATOM     35  C3  R56 d          22.145 -15.940  25.379  0.00  0.00     0.001 A 
ATOM     36  C1  R56 d          22.169 -14.592  25.720  0.00  0.00     0.000 A 
ATOM     37  C10 R56 d          21.025 -14.002  26.310  0.00  0.00     0.001 A 
ATOM     38  C8  R56 d          19.879 -14.754  26.550  0.00  0.00     0.008 A 
ENDBRANCH  32  33
ENDBRANCH  29  32
ENDBRANCH  27  29
ENDBRANCH   1  27
TORSDOF 9
