REMARK  6 active torsions:
REMARK  status: ('A' for Active; 'I' for Inactive)
REMARK    1  A    between atoms: C1_1  and  C7_8 
REMARK    2  A    between atoms: C7_8  and  N1_9 
REMARK    3  A    between atoms: C1'_14  and  C8_13 
REMARK    4  A    between atoms: O5'_21  and  C5'_18 
REMARK    5  A    between atoms: C6'_19  and  O6'_20 
REMARK    6  A    between atoms: C6''_27  and  O5'_21 
ROOT
ATOM      1  C1  CR9 d          43.903  -3.169  25.814  0.00  0.00     0.048 A 
ATOM      2  C2  CR9 d          43.839  -1.762  25.662  0.00  0.00     0.132 A 
ATOM      3  F2  CR9 d          43.935  -1.180  24.420  0.00  0.00    -0.205 F 
ATOM      4  C3  CR9 d          43.649  -0.939  26.768  0.00  0.00     0.075 A 
ATOM      5  C4  CR9 d          43.514  -1.532  28.006  0.00  0.00     0.066 A 
ATOM      6  C5  CR9 d          43.569  -2.863  28.186  0.00  0.00     0.087 A 
ATOM      7  C6  CR9 d          43.767  -3.718  27.095  0.00  0.00     0.052 A 
ATOM      8  N3  CR9 d          43.337  -1.043  29.181  0.00  0.00    -0.338 N 
ATOM      9  N4  CR9 d          43.428  -3.225  29.450  0.00  0.00    -0.228 NA
ATOM     10  C8  CR9 d          43.289  -2.036  30.017  0.00  0.00     0.142 A 
ATOM     11  H7  CR9 d          43.249  -0.044  29.417  0.00  0.00     0.167 HD
ENDROOT
BRANCH  10  12
ATOM     12  C1' CR9 d          43.042  -1.840  31.398  0.00  0.00     0.046 A 
ATOM     13  C2' CR9 d          42.888  -2.947  32.242  0.00  0.00     0.018 A 
ATOM     14  C3' CR9 d          42.641  -2.779  33.607  0.00  0.00     0.004 A 
ATOM     15  C4' CR9 d          42.549  -1.514  34.142  0.00  0.00     0.040 A 
ATOM     16  C5' CR9 d          42.695  -0.375  33.348  0.00  0.00     0.103 A 
ATOM     17  C6' CR9 d          42.947  -0.540  31.959  0.00  0.00     0.113 A 
BRANCH  16  18
ATOM     18  O5' CR9 d          42.577   0.877  33.960  0.00  0.00    -0.343 OA
BRANCH  18  19
ATOM     19  C6' CR9 d          43.161   1.236  35.230  0.00  0.00     0.132 C 
ATOM     20  C1' CR9 d          42.488   2.505  35.822  0.00  0.00     0.011 C 
ATOM     21  C2' CR9 d          43.153   2.944  37.192  0.00  0.00     0.007 C 
ATOM     22  C1A CR9 d          41.050   2.180  36.136  0.00  0.00     0.012 C 
ATOM     23  C3' CR9 d          44.658   3.124  37.036  0.00  0.00     0.001 C 
ATOM     24  C4' CR9 d          45.258   1.844  36.380  0.00  0.00     0.002 C 
ATOM     25  C5' CR9 d          44.632   1.595  34.973  0.00  0.00     0.033 C 
ENDBRANCH  18  19
ENDBRANCH  16  18
BRANCH  17  26
ATOM     26  O6' CR9 d          43.096   0.559  31.123  0.00  0.00    -0.357 OA
ATOM     27  H11 CR9 d          43.257   0.261  30.235  0.00  0.00     0.217 HD
ENDBRANCH  17  26
ENDBRANCH  10  12
BRANCH   1  28
ATOM     28  C7  CR9 d          44.107  -4.007  24.708  0.00  0.00     0.105 C 
ATOM     29  N2  CR9 d          44.742  -3.508  23.668  0.00  0.00    -0.385 N 
ATOM     30  H5  CR9 d          45.064  -2.530  23.682  0.00  0.00     0.157 HD
ATOM     31  H6  CR9 d          44.917  -4.096  22.841  0.00  0.00     0.157 HD
BRANCH  28  32
ATOM     32  N1  CR9 d          43.687  -5.255  24.711  0.00  0.00    -0.385 N 
ATOM     33  H3  CR9 d          43.847  -5.854  23.889  0.00  0.00     0.157 HD
ATOM     34  H4  CR9 d          43.199  -5.632  25.536  0.00  0.00     0.157 HD
ENDBRANCH  28  32
ENDBRANCH   1  28
TORSDOF 6
