REMARK  13 active torsions:
REMARK  status: ('A' for Active; 'I' for Inactive)
REMARK    1  A    between atoms: N1_1  and  CA1_2 
REMARK    2  A    between atoms: CA1_2  and  CB1_6 
REMARK    3  A    between atoms: CA1_2  and  C1_3 
REMARK    4  A    between atoms: CB1_6  and  CG1_7 
REMARK    5  A    between atoms: CG1_7  and  CD1_8 
REMARK       I    between atoms: CD1_8  and  N2_10 
REMARK    6  A    between atoms: N2_10  and  CA2_11 
REMARK    7  A    between atoms: CA2_11  and  CB2_14 
REMARK    8  A    between atoms: CA2_11  and  C2_12 
REMARK       I    between atoms: C2_12  and  N3_16 
REMARK    9  A    between atoms: CB2_14  and  SG2_15 
REMARK   10  A    between atoms: SG2_15  and  CA4_21 
REMARK   11  A    between atoms: N3_16  and  CA3_17 
REMARK   12  A    between atoms: CA3_17  and  C3_18 
REMARK   13  A    between atoms: CA5_34  and  O5_35 
ROOT
ATOM      1  CA2 GPR d          17.209  16.969  31.269  0.00  0.00     0.185 C 
ENDROOT
BRANCH   1   2
ATOM      2  N2  GPR d          16.295  16.279  30.330  0.00  0.00    -0.347 N 
ATOM      3  CD1 GPR d          16.767  15.690  29.219  0.00  0.00     0.218 C 
ATOM      4  OE1 GPR d          17.975  15.518  28.921  0.00  0.00    -0.274 OA
ATOM      5  H9  GPR d          15.315  16.251  30.526  0.00  0.00     0.163 HD
BRANCH   3   6
ATOM      6  CG1 GPR d          15.793  15.185  28.229  0.00  0.00     0.105 C 
BRANCH   6   7
ATOM      7  CB1 GPR d          15.374  16.075  27.108  0.00  0.00     0.053 C 
BRANCH   7   8
ATOM      8  CA1 GPR d          14.151  15.377  26.399  0.00  0.00     0.283 C 
BRANCH   8   9
ATOM      9  N1  GPR d          14.562  14.745  25.092  0.00  0.00    -0.065 N 
ATOM     10  H1  GPR d          15.224  14.006  25.270  0.00  0.00     0.275 HD
ATOM     11  H2  GPR d          14.987  15.442  24.501  0.00  0.00     0.275 HD
ATOM     12  H3  GPR d          13.749  14.365  24.633  0.00  0.00     0.275 HD
ENDBRANCH   8   9
BRANCH   8  13
ATOM     13  C1  GPR d          13.144  16.508  26.189  0.00  0.00     0.204 C 
ATOM     14  OT1 GPR d          13.140  17.033  24.968  0.00  0.00    -0.646 OA
ATOM     15  O1  GPR d          12.438  16.898  27.111  0.00  0.00    -0.646 OA
ENDBRANCH   8  13
ENDBRANCH   7   8
ENDBRANCH   6   7
ENDBRANCH   3   6
ENDBRANCH   1   2
BRANCH   1  16
ATOM     16  CB2 GPR d          17.091  18.508  31.271  0.00  0.00     0.109 C 
BRANCH  16  17
ATOM     17  SG2 GPR d          17.325  19.156  29.649  0.00  0.00    -0.154 SA
BRANCH  17  18
ATOM     18  CA4 GPR d          19.012  19.064  29.878  0.00  0.00     0.114 C 
ATOM     19  CB4 GPR d          19.467  20.427  30.327  0.00  0.00    -0.030 A 
ATOM     20  CH4 GPR d          19.792  21.444  29.393  0.00  0.00    -0.018 A 
ATOM     21  CG4 GPR d          19.636  20.666  31.717  0.00  0.00     0.009 A 
ATOM     22  CH5 GPR d          19.588  21.160  27.929  0.00  0.00    -0.017 A 
ATOM     23  CZ4 GPR d          20.218  22.699  29.862  0.00  0.00     0.013 A 
ATOM     24  CB5 GPR d          19.500  19.850  27.487  0.00  0.00    -0.017 A 
ATOM     25  CZ5 GPR d          19.534  22.230  26.987  0.00  0.00     0.013 A 
ATOM     26  CA5 GPR d          19.528  18.683  28.471  0.00  0.00     0.170 C 
ATOM     27  CG5 GPR d          19.305  19.551  26.140  0.00  0.00     0.011 A 
ATOM     28  CD5 GPR d          19.197  20.595  25.217  0.00  0.00     0.001 A 
ATOM     29  CE5 GPR d          19.335  21.912  25.651  0.00  0.00     0.001 A 
ATOM     30  CE4 GPR d          20.359  22.910  31.234  0.00  0.00     0.001 A 
ATOM     31  CD4 GPR d          20.088  21.898  32.180  0.00  0.00     0.001 A 
BRANCH  26  32
ATOM     32  O5  GPR d          20.920  18.346  28.610  0.00  0.00    -0.389 OA
ATOM     33  H26 GPR d          21.273  18.105  27.761  0.00  0.00     0.210 HD
ENDBRANCH  26  32
ENDBRANCH  17  18
ENDBRANCH  16  17
ENDBRANCH   1  16
BRANCH   1  34
ATOM     34  C2  GPR d          16.964  16.399  32.694  0.00  0.00     0.241 C 
ATOM     35  N3  GPR d          16.267  15.309  32.780  0.00  0.00    -0.349 N 
ATOM     36  H13 GPR d          15.989  14.812  31.958  0.00  0.00     0.163 HD
ATOM     37  O2  GPR d          17.555  16.926  33.609  0.00  0.00    -0.271 OA
BRANCH  35  38
ATOM     38  CA3 GPR d          15.891  14.817  34.134  0.00  0.00     0.235 C 
BRANCH  38  39
ATOM     39  C3  GPR d          16.651  13.581  34.467  0.00  0.00     0.191 C 
ATOM     40  OT3 GPR d          16.422  12.951  35.613  0.00  0.00    -0.647 OA
ATOM     41  O3  GPR d          17.523  13.037  33.773  0.00  0.00    -0.647 OA
ENDBRANCH  38  39
ENDBRANCH  35  38
ENDBRANCH   1  34
TORSDOF 13
