REMARK  11 active torsions:
REMARK  status: ('A' for Active; 'I' for Inactive)
REMARK    1  A    between atoms: C21_2  and  C20_4 
REMARK    2  A    between atoms: C20_4  and  C22_5 
REMARK    3  A    between atoms: C20_4  and  N19_11 
REMARK    4  A    between atoms: C22_5  and  S23_6 
REMARK    5  A    between atoms: S23_6  and  C24_7 
REMARK    6  A    between atoms: C24_7  and  C25_8 
REMARK       I    between atoms: N19_11  and  C19_12 
REMARK       I    between atoms: C19_12  and  N15_14 
REMARK    7  A    between atoms: N15_14  and  C16_15 
REMARK       I    between atoms: N15_14  and  C15_18 
REMARK    8  A    between atoms: C16_15  and  C17_16 
REMARK    9  A    between atoms: C15_18  and  C11_20 
REMARK   10  A    between atoms: C9_25  and  C8_26 
REMARK   11  A    between atoms: C7_27  and  C1_28 
ROOT
ATOM      1  N19 X0D d         -17.200 -27.347 -14.477  0.00  0.00    -0.327 N 
ATOM      2  C19 X0D d         -17.811 -26.188 -14.230  0.00  0.00     0.326 C 
ATOM      3  O19 X0D d         -18.796 -25.928 -14.895  0.00  0.00    -0.247 OA
ATOM      4  N15 X0D d         -17.378 -25.283 -13.326  0.00  0.00    -0.266 N 
ATOM      5  C15 X0D d         -16.164 -25.435 -12.760  0.00  0.00     0.261 C 
ATOM      6  O15 X0D d         -15.491 -26.446 -12.892  0.00  0.00    -0.267 OA
ATOM      7  H   X0D d         -16.386 -27.588 -13.949  0.00  0.00     0.165 HD
ENDROOT
BRANCH   4   8
ATOM      8  C16 X0D d         -18.173 -24.072 -13.129  0.00  0.00     0.137 C 
BRANCH   8   9
ATOM      9  C17 X0D d         -17.787 -23.037 -14.178  0.00  0.00     0.016 C 
ATOM     10  C18 X0D d         -18.621 -21.784 -13.980  0.00  0.00     0.006 C 
ENDBRANCH   8   9
ENDBRANCH   4   8
BRANCH   5  11
ATOM     11  C11 X0D d         -15.491 -24.357 -11.943  0.00  0.00     0.034 A 
ATOM     12  C10 X0D d         -14.578 -23.483 -12.555  0.00  0.00     0.037 A 
ATOM     13  C9  X0D d         -13.898 -22.488 -11.830  0.00  0.00     0.019 A 
ATOM     14  C14 X0D d         -14.152 -22.382 -10.467  0.00  0.00     0.020 A 
ATOM     15  C13 X0D d         -15.048 -23.261  -9.855  0.00  0.00     0.002 A 
ATOM     16  C12 X0D d         -15.715 -24.251 -10.580  0.00  0.00     0.017 A 
BRANCH  13  17
ATOM     17  C8  X0D d         -13.074 -21.680 -12.444  0.00  0.00    -0.061 C 
ATOM     18  C7  X0D d         -12.331 -20.944 -13.033  0.00  0.00    -0.058 C 
BRANCH  18  19
ATOM     19  C1  X0D d         -11.527 -20.146 -13.687  0.00  0.00     0.056 A 
ATOM     20  C6  X0D d         -11.598 -18.755 -13.626  0.00  0.00     0.027 A 
ATOM     21  C5  X0D d         -10.697 -17.989 -14.378  0.00  0.00     0.044 A 
ATOM     22  C4  X0D d          -9.728 -18.571 -15.191  0.00  0.00     0.119 A 
ATOM     23  F4  X0D d          -8.862 -17.828 -15.929  0.00  0.00    -0.206 F 
ATOM     24  C3  X0D d          -9.662 -19.953 -15.241  0.00  0.00     0.086 A 
ATOM     25  C2  X0D d         -10.559 -20.719 -14.495  0.00  0.00     0.138 A 
ATOM     26  F2  X0D d         -10.492 -22.059 -14.542  0.00  0.00    -0.204 F 
ENDBRANCH  18  19
ENDBRANCH  13  17
ENDBRANCH   5  11
BRANCH   1  27
ATOM     27  C20 X0D d         -17.684 -28.276 -15.496  0.00  0.00     0.196 C 
BRANCH  27  28
ATOM     28  C21 X0D d         -18.579 -29.312 -14.879  0.00  0.00     0.197 C 
ATOM     29  O2  X0D d         -19.058 -30.202 -15.613  0.00  0.00    -0.646 OA
ATOM     30  O1  X0D d         -18.825 -29.239 -13.653  0.00  0.00    -0.646 OA
ENDBRANCH  27  28
BRANCH  27  31
ATOM     31  C22 X0D d         -16.468 -28.926 -16.168  0.00  0.00     0.110 C 
BRANCH  31  32
ATOM     32  S23 X0D d         -15.229 -29.416 -15.011  0.00  0.00    -0.166 SA
BRANCH  32  33
ATOM     33  C24 X0D d         -15.590 -31.125 -14.764  0.00  0.00     0.077 C 
BRANCH  33  34
ATOM     34  C25 X0D d         -14.294 -31.940 -14.861  0.00  0.00    -0.013 C 
ATOM     35  C27 X0D d         -13.123 -31.183 -15.489  0.00  0.00     0.010 C 
ATOM     36  C26 X0D d         -14.507 -33.246 -15.609  0.00  0.00     0.010 C 
ENDBRANCH  33  34
ENDBRANCH  32  33
ENDBRANCH  31  32
ENDBRANCH  27  31
ENDBRANCH   1  27
TORSDOF 11
