REMARK  4 active torsions:
REMARK  status: ('A' for Active; 'I' for Inactive)
REMARK    1  A    between atoms: C20_2  and  C3_5 
REMARK    2  A    between atoms: C6_10  and  N11_11 
REMARK       I    between atoms: N11_11  and  C12_12 
REMARK    3  A    between atoms: C12_12  and  C13_14 
REMARK    4  A    between atoms: C13_14  and  C16_17 
ROOT
ATOM      1  C3  G1L d          34.717   1.486  25.266  0.00  0.00     0.048 A 
ATOM      2  C2  G1L d          34.897   2.398  24.263  0.00  0.00     0.018 A 
ATOM      3  C1  G1L d          34.850   3.746  24.536  0.00  0.00     0.030 A 
ATOM      4  C4  G1L d          34.523   1.925  26.558  0.00  0.00     0.018 A 
ATOM      5  C5  G1L d          34.460   3.269  26.832  0.00  0.00     0.030 A 
ATOM      6  C6  G1L d          34.605   4.204  25.824  0.00  0.00     0.034 A 
ENDROOT
BRANCH   6   7
ATOM      7  N11 G1L d          34.551   5.503  26.168  0.00  0.00    -0.327 N 
ATOM      8  C12 G1L d          34.765   6.494  25.332  0.00  0.00     0.231 C 
ATOM      9  O18 G1L d          34.996   6.240  24.172  0.00  0.00    -0.272 OA
ATOM     10  H5  G1L d          34.335   5.729  27.118  0.00  0.00     0.169 HD
BRANCH   8  11
ATOM     11  C13 G1L d          34.677   7.972  25.696  0.00  0.00     0.046 C 
ATOM     12  C14 G1L d          34.372   8.389  27.151  0.00  0.00     0.026 C 
ATOM     13  C15 G1L d          36.018   8.576  25.180  0.00  0.00     0.026 C 
BRANCH  11  14
ATOM     14  C16 G1L d          33.497   8.408  24.883  0.00  0.00     0.133 C 
ATOM     15 CL17 G1L d          33.326   7.586  23.339  0.00  0.00    -0.129 Cl
ENDBRANCH  11  14
ENDBRANCH   8  11
ENDBRANCH   6   7
BRANCH   1  16
ATOM     16  C20 G1L d          34.862   0.031  24.955  0.00  0.00     0.417 C 
ATOM     17  F23 G1L d          35.299  -0.610  25.993  0.00  0.00    -0.166 F 
ATOM     18  F21 G1L d          35.844  -0.078  24.083  0.00  0.00    -0.166 F 
ATOM     19  F22 G1L d          33.826  -0.568  24.486  0.00  0.00    -0.166 F 
ENDBRANCH   1  16
TORSDOF 4
