REMARK  4 active torsions:
REMARK  status: ('A' for Active; 'I' for Inactive)
REMARK    1  A    between atoms: SAS_18  and  NAD_3 
REMARK    2  A    between atoms: CAN_13  and  OAK_10 
REMARK    3  A    between atoms: CAO_14  and  OAL_11 
REMARK    4  A    between atoms: NAR_17  and  SAS_18 
ROOT
ATOM      1  CAG DT7 d          -4.703   5.521  13.272  0.00  0.00     0.047 A 
ATOM      2  CAH DT7 d          -2.569   3.894  13.989  0.00  0.00     0.049 A 
ATOM      3  CAI DT7 d          -6.329   4.008  14.281  0.00  0.00     0.060 C 
ATOM      4  CAJ DT7 d          -6.440   3.221  15.569  0.00  0.00     0.142 C 
ATOM      5  CAM DT7 d          -4.913   4.329  13.969  0.00  0.00    -0.046 A 
ATOM      6  CAN DT7 d          -3.410   5.897  12.932  0.00  0.00     0.102 A 
ATOM      7  CAO DT7 d          -2.346   5.082  13.296  0.00  0.00     0.102 A 
ATOM      8  CAP DT7 d          -3.847   3.511  14.332  0.00  0.00    -0.030 A 
ATOM      9  CAQ DT7 d          -4.105   2.175  15.078  0.00  0.00     0.176 C 
ATOM     10  NAR DT7 d          -5.308   2.314  15.932  0.00  0.00    -0.290 N 
ENDROOT
BRANCH  10  11
ATOM     11  SAS DT7 d          -5.852   0.962  16.765  0.00  0.00     0.315 S 
ATOM     12  OAE DT7 d          -5.236   1.214  18.071  0.00  0.00    -0.183 OA
ATOM     13  OAF DT7 d          -7.345   0.948  16.703  0.00  0.00    -0.183 OA
BRANCH  11  14
ATOM     14  NAD DT7 d          -5.291  -0.401  16.181  0.00  0.00    -0.311 N 
ATOM     15  H7  DT7 d          -4.305  -0.562  16.146  0.00  0.00     0.170 HD
ATOM     16  H8  DT7 d          -5.923  -1.100  15.847  0.00  0.00     0.170 HD
ENDBRANCH  11  14
ENDBRANCH  10  11
BRANCH   7  17
ATOM     17  OAL DT7 d          -1.076   5.460  12.963  0.00  0.00    -0.353 OA
ATOM     18  CAB DT7 d          -0.262   4.357  12.533  0.00  0.00     0.210 C 
ENDBRANCH   7  17
BRANCH   6  19
ATOM     19  OAK DT7 d          -3.171   7.070  12.254  0.00  0.00    -0.353 OA
ATOM     20  CAA DT7 d          -4.061   7.234  11.124  0.00  0.00     0.210 C 
ENDBRANCH   6  19
TORSDOF 4
