REMARK  14 active torsions:
REMARK  status: ('A' for Active; 'I' for Inactive)
REMARK    1  A    between atoms: CAO_2  and  CBG_3 
REMARK    2  A    between atoms: CBG_3  and  CAZ_4 
REMARK    3  A    between atoms: CBG_3  and  OAX_8 
REMARK    4  A    between atoms: OAX_8  and  CBB_9 
REMARK    5  A    between atoms: CBA_14  and  CAT_15 
REMARK    6  A    between atoms: CAT_15  and  CAV_16 
REMARK    7  A    between atoms: CAV_16  and  NBF_17 
REMARK    8  A    between atoms: NBF_17  and  CAU_18 
REMARK    9  A    between atoms: NBF_17  and  CBC_25 
REMARK   10  A    between atoms: CAU_18  and  CAS_19 
REMARK   11  A    between atoms: CAS_19  and  CAR_20 
REMARK   12  A    between atoms: CAR_20  and  CAQ_21 
REMARK   13  A    between atoms: CAQ_21  and  CAP_22 
REMARK   14  A    between atoms: CAP_22  and  CAN_23 
ROOT
ATOM      1  NBF DRH d          15.734  15.279  13.598  0.00  0.00    -0.345 N 
ENDROOT
BRANCH   1   2
ATOM      2  CAV DRH d          16.369  14.501  14.676  0.00  0.00     0.131 C 
BRANCH   2   3
ATOM      3  CAT DRH d          17.899  14.457  14.624  0.00  0.00     0.058 C 
BRANCH   3   4
ATOM      4  CBA DRH d          18.596  15.441  15.570  0.00  0.00    -0.057 A 
ATOM      5  CAI DRH d          18.057  15.774  16.810  0.00  0.00     0.010 A 
ATOM      6  CAK DRH d          18.752  16.620  17.672  0.00  0.00     0.037 A 
ATOM      7  CBB DRH d          19.992  17.137  17.303  0.00  0.00     0.070 A 
ATOM      8  CAJ DRH d          20.523  16.809  16.059  0.00  0.00     0.037 A 
ATOM      9  CAH DRH d          19.830  15.964  15.197  0.00  0.00     0.010 A 
BRANCH   7  10
ATOM     10  OAX DRH d          20.749  17.911  18.135  0.00  0.00    -0.330 OA
BRANCH  10  11
ATOM     11  CBG DRH d          20.208  18.845  19.078  0.00  0.00     0.151 C 
ATOM     12  CAC DRH d          21.387  19.465  19.833  0.00  0.00     0.059 C 
BRANCH  11  13
ATOM     13  CAO DRH d          19.426  19.937  18.342  0.00  0.00     0.045 C 
ATOM     14  CAB DRH d          20.300  20.665  17.319  0.00  0.00     0.009 C 
ENDBRANCH  11  13
BRANCH  11  15
ATOM     15  CAZ DRH d          19.313  18.137  20.100  0.00  0.00     0.209 C 
ATOM     16  OAE DRH d          19.881  17.557  21.051  0.00  0.00    -0.646 OA
ATOM     17  OAD DRH d          18.078  18.178  19.911  0.00  0.00    -0.646 OA
ENDBRANCH  11  15
ENDBRANCH  10  11
ENDBRANCH   7  10
ENDBRANCH   3   4
ENDBRANCH   2   3
ENDBRANCH   1   2
BRANCH   1  18
ATOM     18  CAU DRH d          14.271  15.232  13.437  0.00  0.00     0.126 C 
BRANCH  18  19
ATOM     19  CAS DRH d          13.584  14.544  14.618  0.00  0.00     0.020 C 
BRANCH  19  20
ATOM     20  CAR DRH d          12.075  14.418  14.402  0.00  0.00     0.002 C 
BRANCH  20  21
ATOM     21  CAQ DRH d          11.429  13.883  15.681  0.00  0.00     0.000 C 
BRANCH  21  22
ATOM     22  CAP DRH d           9.914  13.721  15.542  0.00  0.00    -0.000 C 
BRANCH  22  23
ATOM     23  CAN DRH d           9.282  13.341  16.883  0.00  0.00    -0.005 C 
ATOM     24  CAA DRH d           9.849  12.028  17.429  0.00  0.00     0.005 C 
ENDBRANCH  22  23
ENDBRANCH  21  22
ENDBRANCH  20  21
ENDBRANCH  19  20
ENDBRANCH  18  19
ENDBRANCH   1  18
BRANCH   1  25
ATOM     25  CBC DRH d          16.422  15.879  12.627  0.00  0.00     0.250 A 
ATOM     26  OAY DRH d          17.770  15.787  12.421  0.00  0.00    -0.276 OA
ATOM     27  CBE DRH d          18.022  16.468  11.265  0.00  0.00     0.108 A 
ATOM     28  CAM DRH d          19.188  16.699  10.542  0.00  0.00     0.040 A 
ATOM     29  CBD DRH d          16.807  16.964  10.803  0.00  0.00     0.095 A 
ATOM     30  CAG DRH d          19.137  17.428   9.357  0.00  0.00     0.003 A 
ATOM     31  CAF DRH d          17.921  17.926   8.899  0.00  0.00     0.002 A 
ATOM     32  CAL DRH d          16.754  17.696   9.621  0.00  0.00     0.034 A 
ATOM     33  NAW DRH d          15.858  16.589  11.655  0.00  0.00    -0.206 NA
ENDBRANCH   1  25
TORSDOF 14
