REMARK  5 active torsions:
REMARK  status: ('A' for Active; 'I' for Inactive)
REMARK    1  A    between atoms: C3_9  and  O3_10 
REMARK    2  A    between atoms: C17_19  and  O17_20 
REMARK    3  A    between atoms: C17_19  and  C19_21 
REMARK    4  A    between atoms: C20_22  and  C21_23 
REMARK    5  A    between atoms: C26_28  and  C27_29 
ROOT
ATOM      1  C18 EZT d         -36.769   1.474  21.441  0.00  0.00     0.019 C 
ATOM      2  C13 EZT d         -36.733   2.975  21.060  0.00  0.00    -0.005 C 
ATOM      3  C12 EZT d         -36.474   3.080  19.529  0.00  0.00     0.013 C 
ATOM      4  C11 EZT d         -35.026   2.648  19.135  0.00  0.00     0.010 C 
ATOM      5  C9  EZT d         -33.971   3.452  19.977  0.00  0.00     0.023 C 
ATOM      6  C10 EZT d         -32.493   3.246  19.551  0.00  0.00    -0.047 A 
ATOM      7  C1  EZT d         -32.185   3.022  18.218  0.00  0.00     0.011 A 
ATOM      8  C2  EZT d         -30.848   2.871  17.849  0.00  0.00     0.037 A 
ATOM      9  C3  EZT d         -29.839   2.943  18.816  0.00  0.00     0.066 A 
ATOM     10  C4  EZT d         -30.147   3.167  20.144  0.00  0.00     0.044 A 
ATOM     11  C5  EZT d         -31.469   3.348  20.516  0.00  0.00    -0.049 A 
ATOM     12  C6  EZT d         -31.728   3.561  22.026  0.00  0.00     0.039 C 
ATOM     13  C7  EZT d         -33.135   4.144  22.266  0.00  0.00     0.010 C 
ATOM     14  C8  EZT d         -34.185   3.279  21.513  0.00  0.00    -0.001 C 
ATOM     15  C14 EZT d         -35.635   3.763  21.819  0.00  0.00     0.002 C 
ATOM     16  C15 EZT d         -36.152   3.754  23.282  0.00  0.00     0.009 C 
ATOM     17  C16 EZT d         -37.671   3.929  23.100  0.00  0.00     0.043 C 
ATOM     18  C17 EZT d         -37.977   3.781  21.586  0.00  0.00     0.083 C 
ENDROOT
BRANCH  18  19
ATOM     19  O17 EZT d         -39.221   3.082  21.376  0.00  0.00    -0.385 OA
ATOM     20  H23 EZT d         -39.386   3.004  20.444  0.00  0.00     0.211 HD
ENDBRANCH  18  19
BRANCH  18  21
ATOM     21  C19 EZT d         -38.023   5.058  20.944  0.00  0.00     0.012 C 
ATOM     22  C20 EZT d         -37.773   6.308  21.541  0.00  0.00     0.011 C 
BRANCH  22  23
ATOM     23  C21 EZT d         -37.750   7.533  20.831  0.00  0.00    -0.021 A 
ATOM     24  C22 EZT d         -38.621   7.770  19.763  0.00  0.00     0.012 A 
ATOM     25  C23 EZT d         -38.555   8.977  19.045  0.00  0.00     0.001 A 
ATOM     26  C24 EZT d         -37.622   9.969  19.395  0.00  0.00     0.001 A 
ATOM     27  C25 EZT d         -36.740   9.739  20.445  0.00  0.00     0.017 A 
ATOM     28  C26 EZT d         -36.798   8.531  21.162  0.00  0.00     0.058 A 
BRANCH  28  29
ATOM     29  C27 EZT d         -35.796   8.365  22.338  0.00  0.00     0.418 C 
ATOM     30  F02 EZT d         -34.992   9.406  22.359  0.00  0.00    -0.166 F 
ATOM     31  F03 EZT d         -36.394   8.352  23.537  0.00  0.00    -0.166 F 
ATOM     32  F01 EZT d         -35.069   7.254  22.250  0.00  0.00    -0.166 F 
ENDBRANCH  28  29
ENDBRANCH  22  23
ENDBRANCH  18  21
BRANCH   9  33
ATOM     33  O3  EZT d         -28.539   2.785  18.480  0.00  0.00    -0.361 OA
ATOM     34  H11 EZT d         -28.000   2.865  19.258  0.00  0.00     0.217 HD
ENDBRANCH   9  33
TORSDOF 5
