REMARK  3 active torsions:
REMARK  status: ('A' for Active; 'I' for Inactive)
REMARK    1  A    between atoms: N5_1  and  C17_2 
REMARK    2  A    between atoms: C8_7  and  C9_15 
REMARK    3  A    between atoms: C9_15  and  C10_16 
ROOT
ATOM      1  C17 TV2 d          -1.140  11.332  24.570  0.00  0.00     0.717 A 
ATOM      2  N3  TV2 d           0.045  11.362  23.902  0.00  0.00     0.027 NA
ATOM      3  N1  TV2 d           0.788  10.562  24.769  0.00  0.00    -0.186 N 
ATOM      4  C7  TV2 d           0.081  10.142  25.827  0.00  0.00     0.159 A 
ATOM      5  N4  TV2 d          -1.179  10.628  25.729  0.00  0.00    -0.171 N 
ATOM      6  C8  TV2 d           2.080  10.209  24.607  0.00  0.00     0.135 A 
ATOM      7  N2  TV2 d           2.685   9.431  25.542  0.00  0.00    -0.232 NA
ATOM      8  C4  TV2 d           1.978   8.985  26.643  0.00  0.00     0.072 A 
ATOM      9  C3  TV2 d           2.598   8.189  27.612  0.00  0.00     0.032 A 
ATOM     10  C2  TV2 d           1.881   7.736  28.721  0.00  0.00     0.002 A 
ATOM     11  C1  TV2 d           0.539   8.084  28.879  0.00  0.00     0.001 A 
ATOM     12  C6  TV2 d          -0.086   8.902  27.929  0.00  0.00     0.018 A 
ATOM     13  C5  TV2 d           0.636   9.347  26.821  0.00  0.00     0.039 A 
ATOM     14  H1  TV2 d          -1.971  10.496  26.374  0.00  0.00     0.186 HD
ENDROOT
BRANCH   6  15
ATOM     15  C9  TV2 d           2.882  10.679  23.423  0.00  0.00     0.119 C 
BRANCH  15  16
ATOM     16  C10 TV2 d           3.784  11.815  23.849  0.00  0.00    -0.048 A 
ATOM     17  C11 TV2 d           5.187  11.683  23.758  0.00  0.00     0.010 A 
ATOM     18  C12 TV2 d           6.033  12.750  24.132  0.00  0.00     0.040 A 
ATOM     19  C13 TV2 d           5.415  13.903  24.613  0.00  0.00     0.105 A 
ATOM     20  C14 TV2 d           4.056  13.993  24.722  0.00  0.00     0.105 A 
ATOM     21  O2  TV2 d           5.984  15.085  25.061  0.00  0.00    -0.323 OA
ATOM     22  C15 TV2 d           3.189  12.977  24.344  0.00  0.00     0.047 A 
ATOM     23  O1  TV2 d           3.724  15.206  25.220  0.00  0.00    -0.323 OA
ATOM     24  C16 TV2 d           4.922  15.969  25.471  0.00  0.00     0.352 A 
ENDBRANCH  15  16
ENDBRANCH   6  15
BRANCH   1  25
ATOM     25  N5  TV2 d          -2.251  11.955  24.098  0.00  0.00    -0.231 N 
ATOM     26  H   TV2 d          -2.208  12.486  23.217  0.00  0.00     0.174 HD
ATOM     27  H   TV2 d          -3.136  11.896  24.621  0.00  0.00     0.174 HD
ENDBRANCH   1  25
TORSDOF 3
