REMARK  14 active torsions:
REMARK  status: ('A' for Active; 'I' for Inactive)
REMARK    1  A    between atoms: C_1  and  CT_3 
REMARK       I    between atoms: N_7  and  C_1 
REMARK    2  A    between atoms: N_7  and  CA_8 
REMARK    3  A    between atoms: CA_8  and  CB_11 
REMARK    4  A    between atoms: CA_8  and  C_9 
REMARK       I    between atoms: C_9  and  N_16 
REMARK    5  A    between atoms: CB_11  and  CG_12 
REMARK    6  A    between atoms: CG_12  and  CD_13 
REMARK    7  A    between atoms: CD_13  and  CE_14 
REMARK    8  A    between atoms: CE_14  and  NZ_15 
REMARK    9  A    between atoms: N_16  and  CA_17 
REMARK   10  A    between atoms: CA_17  and  CB_20 
REMARK   11  A    between atoms: CA_17  and  C_18 
REMARK       I    between atoms: C_18  and  N1_27 
REMARK   12  A    between atoms: CB_20  and  CG_21 
REMARK   13  A    between atoms: N1_27  and  C1_28 
REMARK   14  A    between atoms: C4_31  and  C1'_34 
ROOT
ATOM      1  C   MOL d          39.935  20.247  38.359  0.00  0.00     0.241 C 
ATOM      2  O   MOL d          39.550  20.135  39.514  0.00  0.00    -0.271 OA
ATOM      3  N   MOL d          39.282  20.849  37.371  0.00  0.00    -0.346 N 
ATOM      4  H14 MOL d          39.491  20.537  36.444  0.00  0.00     0.163 HD
ENDROOT
BRANCH   3   5
ATOM      5  CA  MOL d          38.309  21.899  37.487  0.00  0.00     0.181 C 
BRANCH   5   6
ATOM      6  CB  MOL d          39.071  22.963  36.731  0.00  0.00     0.073 C 
BRANCH   6   7
ATOM      7  CG  MOL d          39.510  24.067  37.606  0.00  0.00    -0.056 A 
ATOM      8  CD1 MOL d          40.413  23.839  38.629  0.00  0.00     0.007 A 
ATOM      9  CE1 MOL d          40.789  24.885  39.452  0.00  0.00     0.001 A 
ATOM     10  CZ  MOL d          40.246  26.145  39.232  0.00  0.00     0.000 A 
ATOM     11  CE2 MOL d          39.347  26.355  38.216  0.00  0.00     0.001 A 
ATOM     12  CD2 MOL d          38.975  25.311  37.390  0.00  0.00     0.007 A 
ENDBRANCH   6   7
ENDBRANCH   5   6
BRANCH   5  13
ATOM     13  C   MOL d          36.888  21.576  36.992  0.00  0.00     0.245 C 
ATOM     14  O   MOL d          36.186  20.730  37.586  0.00  0.00    -0.271 OA
ATOM     15  N1  MOL d          36.546  22.481  36.005  0.00  0.00    -0.325 N 
ATOM     16  H23 MOL d          37.109  23.305  35.946  0.00  0.00     0.169 HD
BRANCH  15  17
ATOM     17  C1  MOL d          35.544  22.381  35.115  0.00  0.00     0.034 A 
ATOM     18  C2  MOL d          35.229  21.147  34.542  0.00  0.00     0.030 A 
ATOM     19  C3  MOL d          34.376  21.089  33.453  0.00  0.00     0.010 A 
ATOM     20  C4  MOL d          33.809  22.258  32.915  0.00  0.00    -0.055 A 
ATOM     21  C5  MOL d          34.107  23.502  33.497  0.00  0.00     0.010 A 
ATOM     22  C6  MOL d          34.969  23.558  34.592  0.00  0.00     0.030 A 
BRANCH  20  23
ATOM     23  C1' MOL d          32.905  22.125  31.665  0.00  0.00     0.010 C 
ATOM     24  C2' MOL d          33.741  21.437  30.571  0.00  0.00     0.015 C 
ATOM     25  C3' MOL d          32.337  23.462  31.243  0.00  0.00     0.015 C 
ENDBRANCH  20  23
ENDBRANCH  15  17
ENDBRANCH   5  13
ENDBRANCH   3   5
BRANCH   1  26
ATOM     26  CA  MOL d          41.147  19.547  37.739  0.00  0.00     0.176 C 
BRANCH  26  27
ATOM     27  N   MOL d          41.985  20.712  37.311  0.00  0.00    -0.340 N 
ATOM     28  C   MOL d          42.805  20.757  36.212  0.00  0.00     0.326 C 
ATOM     29  O   MOL d          43.222  19.660  35.785  0.00  0.00    -0.263 OA
ATOM     30  H1  MOL d          41.943  21.534  37.879  0.00  0.00     0.163 HD
BRANCH  28  31
ATOM     31  CT  MOL d          43.335  22.169  35.598  0.00  0.00     0.472 C 
ATOM     32  F1  MOL d          44.576  22.588  35.904  0.00  0.00    -0.162 F 
ATOM     33  F2  MOL d          43.340  22.138  34.231  0.00  0.00    -0.162 F 
ATOM     34  F3  MOL d          42.545  23.236  35.907  0.00  0.00    -0.162 F 
ENDBRANCH  28  31
ENDBRANCH  26  27
BRANCH  26  35
ATOM     35  CB  MOL d          41.695  18.634  38.836  0.00  0.00     0.035 C 
BRANCH  35  36
ATOM     36  CG  MOL d          41.731  17.193  38.309  0.00  0.00     0.004 C 
BRANCH  36  37
ATOM     37  CD  MOL d          42.052  16.194  39.409  0.00  0.00     0.027 C 
BRANCH  37  38
ATOM     38  CE  MOL d          42.419  14.810  38.854  0.00  0.00     0.229 C 
BRANCH  38  39
ATOM     39  NZ  MOL d          43.764  14.782  38.303  0.00  0.00    -0.079 N 
ATOM     40  H11 MOL d          43.964  13.859  37.951  0.00  0.00     0.274 HD
ATOM     41  H12 MOL d          44.428  15.017  39.024  0.00  0.00     0.274 HD
ATOM     42  H13 MOL d          43.833  15.450  37.552  0.00  0.00     0.274 HD
ENDBRANCH  38  39
ENDBRANCH  37  38
ENDBRANCH  36  37
ENDBRANCH  35  36
ENDBRANCH  26  35
ENDBRANCH   1  26
TORSDOF 14
