REMARK  7 active torsions:
REMARK  status: ('A' for Active; 'I' for Inactive)
REMARK    1  A    between atoms: CAR_3  and  OAN_2 
REMARK    2  A    between atoms: CAL_9  and  CAQ_8 
REMARK    3  A    between atoms: CAU_13  and  CAL_9 
REMARK    4  A    between atoms: CAT_12  and  OAF_14 
REMARK    5  A    between atoms: CAS_15  and  OAE_16 
REMARK    6  A    between atoms: CAV_18  and  CAO_19 
REMARK    7  A    between atoms: CAV_18  and  OAG_22 
ROOT
ATOM      1  CAP MOL d          22.937  47.605 -13.711  0.00  0.00     0.165 C 
ATOM      2  OAC MOL d          23.016  46.776 -14.613  0.00  0.00    -0.294 OA
ATOM      3  CAT MOL d          21.620  48.105 -13.151  0.00  0.00     0.216 C 
ATOM      4  CAU MOL d          24.204  48.172 -13.177  0.00  0.00     0.108 C 
ATOM      5  CAS MOL d          21.637  48.159 -11.619  0.00  0.00     0.157 C 
ATOM      6  CAM MOL d          22.849  48.992 -11.086  0.00  0.00     0.084 C 
ATOM      7  CAV MOL d          24.160  48.356 -11.634  0.00  0.00     0.158 C 
ENDROOT
BRANCH   4   8
ATOM      8  CAL MOL d          24.299  49.468 -13.989  0.00  0.00     0.054 C 
BRANCH   8   9
ATOM      9  CAQ MOL d          24.531  49.352 -15.514  0.00  0.00    -0.057 A 
ATOM     10  CAI MOL d          23.468  49.363 -16.453  0.00  0.00     0.010 A 
ATOM     11  CAK MOL d          23.708  49.295 -17.841  0.00  0.00     0.037 A 
ATOM     12  CAR MOL d          25.034  49.236 -18.302  0.00  0.00     0.068 A 
ATOM     13  CAJ MOL d          26.088  49.220 -17.390  0.00  0.00     0.037 A 
ATOM     14  CAH MOL d          25.834  49.286 -16.015  0.00  0.00     0.010 A 
BRANCH  12  15
ATOM     15  OAN MOL d          25.316  49.170 -19.640  0.00  0.00    -0.356 OA
ATOM     16  CAA MOL d          26.142  50.160 -20.262  0.00  0.00     0.210 C 
ENDBRANCH  12  15
ENDBRANCH   8   9
ENDBRANCH   4   8
BRANCH   7  17
ATOM     17  CAO MOL d          25.390  49.126 -11.196  0.00  0.00     0.210 C 
ATOM     18  OAB MOL d          25.281  50.285 -10.725  0.00  0.00    -0.646 OA
ATOM     19  OAD MOL d          26.472  48.544 -11.341  0.00  0.00    -0.646 OA
ENDBRANCH   7  17
BRANCH   7  20
ATOM     20  OAG MOL d          24.275  47.125 -10.926  0.00  0.00    -0.378 OA
ATOM     21  H17 MOL d          25.061  46.671 -11.208  0.00  0.00     0.211 HD
ENDBRANCH   7  20
BRANCH   3  22
ATOM     22  OAF MOL d          20.514  47.333 -13.651  0.00  0.00    -0.385 OA
ATOM     23  H12 MOL d          19.704  47.668 -13.284  0.00  0.00     0.210 HD
ENDBRANCH   3  22
BRANCH   5  24
ATOM     24  OAE MOL d          20.434  48.791 -11.242  0.00  0.00    -0.392 OA
ATOM     25  H14 MOL d          19.697  48.283 -11.561  0.00  0.00     0.210 HD
ENDBRANCH   5  24
TORSDOF 7
