REMARK  10 active torsions:
REMARK  status: ('A' for Active; 'I' for Inactive)
REMARK    1  A    between atoms: C1_7  and  C29_13 
REMARK    2  A    between atoms: C10_19  and  C2_10 
REMARK    3  A    between atoms: C14_14  and  C16_20 
REMARK       I    between atoms: N13_25  and  C14_14 
REMARK    4  A    between atoms: C11_17  and  C10_19 
REMARK    5  A    between atoms: C12_18  and  N13_25 
REMARK    6  A    between atoms: C16_20  and  C17_21 
REMARK    7  A    between atoms: C17_21  and  C18_22 
REMARK    8  A    between atoms: C18_22  and  C19_23 
REMARK    9  A    between atoms: C19_23  and  C20_24 
REMARK   10  A    between atoms: C20_24  and  N21_26 
ROOT
ATOM      1  C27 NZL d          75.089  34.024   0.839  0.00  0.00     0.001 A 
ATOM      2  C26 NZL d          75.909  33.159   1.531  0.00  0.00     0.001 A 
ATOM      3  C28 NZL d          75.597  34.846  -0.137  0.00  0.00     0.007 A 
ATOM      4  C25 NZL d          77.250  33.081   1.261  0.00  0.00     0.008 A 
ATOM      5  C23 NZL d          76.934  34.767  -0.400  0.00  0.00    -0.049 A 
ATOM      6  C24 NZL d          77.742  33.904   0.281  0.00  0.00    -0.045 A 
ATOM      7  C22 NZL d          77.669  35.560  -1.397  0.00  0.00     0.065 C 
ATOM      8  C11 NZL d          79.128  34.004  -0.175  0.00  0.00     0.046 C 
ATOM      9  C12 NZL d          79.075  35.350  -0.877  0.00  0.00     0.097 C 
ENDROOT
BRANCH   8  10
ATOM     10  C10 NZL d          80.076  34.163   0.962  0.00  0.00     0.051 C 
BRANCH  10  11
ATOM     11  C2  NZL d          80.475  32.930   1.709  0.00  0.00    -0.037 A 
ATOM     12  C3  NZL d          80.052  32.928   3.028  0.00  0.00     0.011 A 
ATOM     13  C4  NZL d          80.343  31.896   3.882  0.00  0.00     0.040 A 
ATOM     14  C5  NZL d          81.082  30.866   3.384  0.00  0.00     0.106 A 
ATOM     15  C6  NZL d          81.503  30.860   2.091  0.00  0.00     0.122 A 
ATOM     16  O9  NZL d          81.458  29.769   4.097  0.00  0.00    -0.323 OA
ATOM     17  C1  NZL d          81.226  31.876   1.202  0.00  0.00     0.083 A 
ATOM     18  O7  NZL d          82.218  29.727   1.818  0.00  0.00    -0.322 OA
ATOM     19  C8  NZL d          82.022  28.994   3.034  0.00  0.00     0.352 C 
BRANCH  17  20
ATOM     20  C29 NZL d          81.734  31.768  -0.194  0.00  0.00     0.212 C 
ATOM     21  O31 NZL d          81.733  30.626  -0.739  0.00  0.00    -0.644 OA
ATOM     22  O30 NZL d          82.141  32.811  -0.764  0.00  0.00    -0.644 OA
ENDBRANCH  17  20
ENDBRANCH  10  11
ENDBRANCH   8  10
BRANCH   9  23
ATOM     23  N13 NZL d          80.073  35.429  -1.908  0.00  0.00    -0.355 N 
ATOM     24  C14 NZL d          81.147  36.268  -1.729  0.00  0.00     0.217 C 
ATOM     25  O15 NZL d          81.152  37.302  -1.074  0.00  0.00    -0.274 OA
ATOM     26  H25 NZL d          79.988  34.883  -2.741  0.00  0.00     0.162 HD
BRANCH  24  27
ATOM     27  C16 NZL d          82.349  35.765  -2.444  0.00  0.00     0.103 C 
BRANCH  27  28
ATOM     28  C17 NZL d          82.312  36.339  -3.830  0.00  0.00     0.009 C 
BRANCH  28  29
ATOM     29  C18 NZL d          83.404  35.681  -4.630  0.00  0.00     0.002 C 
BRANCH  29  30
ATOM     30  C19 NZL d          83.163  35.946  -6.093  0.00  0.00     0.027 C 
BRANCH  30  31
ATOM     31  C20 NZL d          83.873  34.892  -6.905  0.00  0.00     0.229 C 
BRANCH  31  32
ATOM     32  N21 NZL d          83.664  35.237  -8.326  0.00  0.00    -0.079 N 
ATOM     33  H26 NZL d          84.124  34.555  -8.909  0.00  0.00     0.274 HD
ATOM     34  H27 NZL d          84.049  36.150  -8.510  0.00  0.00     0.274 HD
ATOM     35  H28 NZL d          82.677  35.241  -8.529  0.00  0.00     0.274 HD
ENDBRANCH  31  32
ENDBRANCH  30  31
ENDBRANCH  29  30
ENDBRANCH  28  29
ENDBRANCH  27  28
ENDBRANCH  24  27
ENDBRANCH   9  23
TORSDOF 10
