REMARK  7 active torsions:
REMARK  status: ('A' for Active; 'I' for Inactive)
REMARK    1  A    between atoms: C_2  and  CA_4 
REMARK    2  A    between atoms: CA_4  and  N_5 
REMARK    3  A    between atoms: CA_4  and  CB_6 
REMARK    4  A    between atoms: CB_6  and  N4_7 
REMARK    5  A    between atoms: N6_10  and  C17_16 
REMARK    6  A    between atoms: C17_16  and  C18_17 
REMARK    7  A    between atoms: C19_21  and  C10_22 
ROOT
ATOM      1  N4  UBA d          -6.383  -3.415  15.734  0.00  0.00    -0.306 N 
ATOM      2  C5  UBA d          -5.310  -4.335  15.578  0.00  0.00     0.331 A 
ATOM      3  O8  UBA d          -5.570  -5.543  15.608  0.00  0.00    -0.246 OA
ATOM      4  N6  UBA d          -4.016  -3.853  15.408  0.00  0.00    -0.261 N 
ATOM      5  C1  UBA d          -3.760  -2.490  15.405  0.00  0.00     0.259 A 
ATOM      6  O7  UBA d          -2.603  -2.106  15.226  0.00  0.00    -0.267 OA
ATOM      7  C2  UBA d          -4.891  -1.542  15.563  0.00  0.00     0.022 A 
ATOM      8  C6  UBA d          -4.633  -0.045  15.569  0.00  0.00     0.056 C 
ATOM      9  C3  UBA d          -6.151  -2.093  15.733  0.00  0.00     0.108 A 
ENDROOT
BRANCH   1  10
ATOM     10  CB  UBA d          -7.716  -3.987  15.870  0.00  0.00     0.177 C 
BRANCH  10  11
ATOM     11  CA  UBA d          -8.173  -4.378  14.432  0.00  0.00     0.301 C 
BRANCH  11  12
ATOM     12  C   UBA d          -9.615  -4.776  14.469  0.00  0.00     0.206 C 
ATOM     13  OXT UBA d         -10.483  -4.174  13.751  0.00  0.00    -0.646 OA
ATOM     14  O   UBA d          -9.960  -5.719  15.214  0.00  0.00    -0.646 OA
ENDBRANCH  11  12
BRANCH  11  15
ATOM     15  N   UBA d          -7.991  -3.316  13.452  0.00  0.00    -0.064 N 
ATOM     16  H2  UBA d          -7.020  -3.046  13.425  0.00  0.00     0.275 HD
ATOM     17  H3  UBA d          -8.554  -2.521  13.710  0.00  0.00     0.275 HD
ATOM     18  H4  UBA d          -8.273  -3.646  12.542  0.00  0.00     0.275 HD
ENDBRANCH  11  15
ENDBRANCH  10  11
ENDBRANCH   1  10
BRANCH   4  19
ATOM     19  C17 UBA d          -2.874  -4.723  15.185  0.00  0.00     0.177 C 
BRANCH  19  20
ATOM     20  C18 UBA d          -2.548  -5.460  16.427  0.00  0.00    -0.015 A 
ATOM     21  C23 UBA d          -2.836  -5.143  17.766  0.00  0.00     0.017 A 
ATOM     22  C22 UBA d          -2.361  -6.058  18.725  0.00  0.00     0.051 A 
ATOM     23  S20 UBA d          -1.522  -7.331  17.886  0.00  0.00    -0.095 SA
ATOM     24  C19 UBA d          -1.775  -6.700  16.319  0.00  0.00     0.089 A 
BRANCH  24  25
ATOM     25  C10 UBA d          -1.281  -7.379  15.112  0.00  0.00     0.217 C 
ATOM     26  O2  UBA d          -1.113  -6.718  14.051  0.00  0.00    -0.643 OA
ATOM     27  O1  UBA d          -1.049  -8.601  15.266  0.00  0.00    -0.643 OA
ENDBRANCH  24  25
ENDBRANCH  19  20
ENDBRANCH   4  19
TORSDOF 7
