REMARK  14 active torsions:
REMARK  status: ('A' for Active; 'I' for Inactive)
REMARK    1  A    between atoms: C2_2  and  N1_1 
REMARK    2  A    between atoms: S8_8  and  C5_5 
REMARK    3  A    between atoms: N11_11  and  S8_8 
REMARK    4  A    between atoms: N11_11  and  C12_12 
REMARK    5  A    between atoms: C16_16  and  N11_11 
REMARK    6  A    between atoms: C12_12  and  C13_13 
REMARK    7  A    between atoms: C17_17  and  C16_16 
REMARK    8  A    between atoms: C17_17  and  O18_18 
REMARK    9  A    between atoms: C19_19  and  C17_17 
REMARK   10  A    between atoms: C19_19  and  N20_20 
REMARK   11  A    between atoms: C32_32  and  C19_19 
REMARK       I    between atoms: N20_20  and  C21_21 
REMARK   12  A    between atoms: C21_21  and  O23_23 
REMARK   13  A    between atoms: O23_23  and  C24_24 
REMARK   14  A    between atoms: C38_38  and  C32_32 
ROOT
ATOM      1  C17 MOL d          20.052  29.562  15.624  0.00  0.00     0.160 C 
ENDROOT
BRANCH   1   2
ATOM      2  C16 MOL d          19.118  30.668  16.133  0.00  0.00     0.169 C 
BRANCH   2   3
ATOM      3  N11 MOL d          19.432  31.937  15.422  0.00  0.00    -0.304 N 
BRANCH   3   4
ATOM      4  S8  MOL d          18.192  32.539  14.551  0.00  0.00     0.260 S 
ATOM      5  O9  MOL d          17.511  31.458  13.934  0.00  0.00    -0.200 OA
ATOM      6  O10 MOL d          18.845  33.487  13.692  0.00  0.00    -0.200 OA
BRANCH   4   7
ATOM      7  C5  MOL d          17.103  33.292  15.510  0.00  0.00     0.079 A 
ATOM      8  C4  MOL d          15.982  32.576  15.950  0.00  0.00     0.027 A 
ATOM      9  C3  MOL d          15.018  33.143  16.788  0.00  0.00     0.030 A 
ATOM     10  C2  MOL d          15.189  34.452  17.207  0.00  0.00     0.025 A 
ATOM     11  C7  MOL d          16.282  35.202  16.777  0.00  0.00     0.030 A 
ATOM     12  C6  MOL d          17.258  34.615  15.927  0.00  0.00     0.027 A 
BRANCH  10  13
ATOM     13  N1  MOL d          14.242  34.995  18.024  0.00  0.00    -0.399 N 
ATOM     14  H1  MOL d          13.441  34.426  18.332  0.00  0.00     0.156 HD
ATOM     15  H2  MOL d          14.328  35.974  18.333  0.00  0.00     0.156 HD
ENDBRANCH  10  13
ENDBRANCH   4   7
ENDBRANCH   3   4
BRANCH   3  16
ATOM     16  C12 MOL d          20.219  32.913  16.225  0.00  0.00     0.139 C 
BRANCH  16  17
ATOM     17  C13 MOL d          21.698  32.536  16.289  0.00  0.00    -0.004 C 
ATOM     18  C14 MOL d          22.393  33.533  17.217  0.00  0.00     0.011 C 
ATOM     19  C15 MOL d          22.329  32.562  14.900  0.00  0.00     0.011 C 
ENDBRANCH  16  17
ENDBRANCH   3  16
ENDBRANCH   2   3
ENDBRANCH   1   2
BRANCH   1  20
ATOM     20  O18 MOL d          19.979  28.406  16.498  0.00  0.00    -0.392 OA
ATOM     21  H19 MOL d          19.087  28.079  16.514  0.00  0.00     0.210 HD
ENDBRANCH   1  20
BRANCH   1  22
ATOM     22  C19 MOL d          19.702  29.108  14.209  0.00  0.00     0.121 C 
BRANCH  22  23
ATOM     23  N20 MOL d          20.805  28.291  13.728  0.00  0.00    -0.329 N 
ATOM     24  C21 MOL d          21.690  28.661  12.827  0.00  0.00     0.361 C 
ATOM     25  O22 MOL d          21.776  29.698  12.224  0.00  0.00    -0.238 OA
ATOM     26  H21 MOL d          20.898  27.373  14.114  0.00  0.00     0.165 HD
BRANCH  24  27
ATOM     27  O23 MOL d          22.659  27.652  12.616  0.00  0.00    -0.296 OA
BRANCH  27  28
ATOM     28  C24 MOL d          23.495  27.818  11.468  0.00  0.00     0.166 C 
ATOM     29  C25 MOL d          24.821  27.200  11.846  0.00  0.00     0.204 C 
ATOM     30  O26 MOL d          24.577  25.807  11.741  0.00  0.00    -0.358 OA
ATOM     31  C27 MOL d          23.688  25.580  10.659  0.00  0.00     0.266 C 
ATOM     32  O28 MOL d          22.677  24.686  11.072  0.00  0.00    -0.361 OA
ATOM     33  C31 MOL d          23.010  26.911  10.357  0.00  0.00     0.075 C 
ATOM     34  C29 MOL d          21.402  25.342  11.158  0.00  0.00     0.171 C 
ATOM     35  C30 MOL d          21.522  26.595  10.295  0.00  0.00     0.038 C 
ENDBRANCH  27  28
ENDBRANCH  24  27
ENDBRANCH  22  23
BRANCH  22  36
ATOM     36  C32 MOL d          18.418  28.303  14.058  0.00  0.00     0.066 C 
BRANCH  36  37
ATOM     37  C38 MOL d          18.169  27.907  12.605  0.00  0.00    -0.056 A 
ATOM     38  C33 MOL d          17.885  28.848  11.630  0.00  0.00     0.007 A 
ATOM     39  C34 MOL d          17.675  28.469  10.310  0.00  0.00     0.001 A 
ATOM     40  C35 MOL d          17.720  27.133   9.954  0.00  0.00     0.000 A 
ATOM     41  C36 MOL d          17.997  26.189  10.931  0.00  0.00     0.001 A 
ATOM     42  C37 MOL d          18.193  26.576  12.260  0.00  0.00     0.007 A 
ENDBRANCH  36  37
ENDBRANCH  22  36
ENDBRANCH   1  22
TORSDOF 14
