REMARK  9 active torsions:
REMARK  status: ('A' for Active; 'I' for Inactive)
REMARK    1  A    between atoms: C2_3  and  C21_4 
REMARK       I    between atoms: C21_4  and  N21_6 
REMARK    2  A    between atoms: C3_7  and  O3_8 
REMARK    3  A    between atoms: C4_9  and  N4_10 
REMARK    4  A    between atoms: C9_20  and  N9_31 
REMARK    5  A    between atoms: C10_21  and  O10_22 
REMARK    6  A    between atoms: C12_27  and  O12_28 
REMARK    7  A    between atoms: C1C_29  and  O1C_30 
REMARK       I    between atoms: N9_31  and  C91_32 
REMARK    8  A    between atoms: C91_32  and  C92_34 
REMARK    9  A    between atoms: C92_34  and  N92_35 
ROOT
ATOM      1  C1  ATC d          20.108  34.617  34.391  0.00  0.00     0.208 C 
ATOM      2  O1  ATC d          19.565  35.079  33.352  0.00  0.00    -0.288 OA
ATOM      3  C2  ATC d          19.580  33.569  35.143  0.00  0.00     0.112 C 
ATOM      4  C3  ATC d          20.303  33.233  36.280  0.00  0.00     0.094 C 
ATOM      5  C4  ATC d          21.146  34.254  37.037  0.00  0.00     0.252 C 
ATOM      6  C41 ATC d          21.755  35.348  36.109  0.00  0.00     0.073 C 
ATOM      7  C5  ATC d          21.097  36.688  36.331  0.00  0.00     0.020 C 
ATOM      8  C51 ATC d          21.749  37.856  35.634  0.00  0.00     0.030 C 
ATOM      9  C6  ATC d          20.941  39.171  35.627  0.00  0.00     0.049 C 
ATOM     10  C61 ATC d          21.678  40.267  34.817  0.00  0.00    -0.040 A 
ATOM     11  C7  ATC d          21.512  41.590  35.221  0.00  0.00     0.010 A 
ATOM     12  C8  ATC d          22.104  42.615  34.480  0.00  0.00     0.033 A 
ATOM     13  C9  ATC d          22.861  42.336  33.331  0.00  0.00     0.069 A 
ATOM     14  C10 ATC d          23.037  40.994  32.934  0.00  0.00     0.107 A 
ATOM     15  C1A ATC d          22.449  39.941  33.678  0.00  0.00     0.056 A 
ATOM     16  C11 ATC d          22.521  38.598  33.282  0.00  0.00     0.194 C 
ATOM     17  O11 ATC d          23.076  38.346  32.217  0.00  0.00    -0.287 OA
ATOM     18  C1B ATC d          22.102  37.526  34.129  0.00  0.00     0.030 C 
ATOM     19  C12 ATC d          22.063  36.176  33.735  0.00  0.00     0.096 C 
ATOM     20  C1C ATC d          21.583  35.013  34.622  0.00  0.00     0.177 C 
ENDROOT
BRANCH  13  21
ATOM     21  N9  ATC d          23.335  43.388  32.586  0.00  0.00    -0.323 N 
ATOM     22  C91 ATC d          24.598  43.815  32.606  0.00  0.00     0.248 C 
ATOM     23  O91 ATC d          25.350  43.561  33.556  0.00  0.00    -0.271 OA
ATOM     24  H23 ATC d          22.690  43.865  31.989  0.00  0.00     0.169 HD
BRANCH  22  25
ATOM     25  C92 ATC d          25.229  44.600  31.463  0.00  0.00     0.336 C 
BRANCH  25  26
ATOM     26  N92 ATC d          26.669  43.997  31.113  0.00  0.00    -0.070 N 
ATOM     27  C94 ATC d          26.583  42.447  30.737  0.00  0.00     0.269 C 
ATOM     28  C93 ATC d          27.847  44.391  32.123  0.00  0.00     0.269 C 
ATOM     29  H26 ATC d          26.930  44.452  30.252  0.00  0.00     0.279 HD
ENDBRANCH  25  26
ENDBRANCH  22  25
ENDBRANCH  13  21
BRANCH  14  30
ATOM     30  O10 ATC d          23.836  40.711  31.795  0.00  0.00    -0.357 OA
ATOM     31  H20 ATC d          23.315  40.243  31.153  0.00  0.00     0.217 HD
ENDBRANCH  14  30
BRANCH  19  32
ATOM     32  O12 ATC d          22.561  35.738  32.442  0.00  0.00    -0.361 OA
ATOM     33  H21 ATC d          22.842  36.494  31.940  0.00  0.00     0.217 HD
ENDBRANCH  19  32
BRANCH  20  34
ATOM     34  O1C ATC d          22.438  33.904  34.330  0.00  0.00    -0.374 OA
ATOM     35  H22 ATC d          22.353  33.673  33.413  0.00  0.00     0.211 HD
ENDBRANCH  20  34
BRANCH   5  36
ATOM     36  N4  ATC d          22.203  33.436  37.814  0.00  0.00    -0.068 N 
ATOM     37  C43 ATC d          23.101  32.531  36.933  0.00  0.00     0.270 C 
ATOM     38  C42 ATC d          23.025  34.364  38.775  0.00  0.00     0.270 C 
ATOM     39  H5  ATC d          21.684  32.806  38.406  0.00  0.00     0.279 HD
ENDBRANCH   5  36
BRANCH   3  40
ATOM     40  C21 ATC d          18.389  32.921  34.789  0.00  0.00     0.255 C 
ATOM     41  N21 ATC d          17.622  33.286  33.712  0.00  0.00    -0.366 N 
ATOM     42  H1  ATC d          16.780  32.787  33.506  0.00  0.00     0.159 HD
ATOM     43  H2  ATC d          17.905  34.051  33.133  0.00  0.00     0.159 HD
ATOM     44  O21 ATC d          17.977  31.931  35.443  0.00  0.00    -0.268 OA
ENDBRANCH   3  40
BRANCH   4  45
ATOM     45  O3  ATC d          20.197  31.968  36.868  0.00  0.00    -0.362 OA
ATOM     46  H3  ATC d          19.655  31.411  36.322  0.00  0.00     0.217 HD
ENDBRANCH   4  45
TORSDOF 9
