REMARK  6 active torsions:
REMARK  status: ('A' for Active; 'I' for Inactive)
REMARK    1  A    between atoms: C1_1  and  C2_4 
REMARK    2  A    between atoms: C2_4  and  C3_5 
REMARK    3  A    between atoms: C3_5  and  O7_6 
REMARK    4  A    between atoms: C3_5  and  C4_7 
REMARK    5  A    between atoms: C3_5  and  C6_11 
REMARK    6  A    between atoms: C4_7  and  C5_8 
ROOT
ATOM      1  C3  CIT d          36.110  65.742-151.245  0.00  0.00     0.164 C 
ENDROOT
BRANCH   1   2
ATOM      2  C2  CIT d          35.557  64.831-150.144  0.00  0.00     0.163 C 
BRANCH   2   3
ATOM      3  C1  CIT d          34.689  65.575-149.145  0.00  0.00     0.176 C 
ATOM      4  O1  CIT d          33.932  66.480-149.561  0.00  0.00    -0.648 OA
ATOM      5  O2  CIT d          34.749  65.239-147.944  0.00  0.00    -0.648 OA
ENDBRANCH   2   3
ENDBRANCH   1   2
BRANCH   1   6
ATOM      6  O7  CIT d          35.011  66.327-151.952  0.00  0.00    -0.378 OA
ATOM      7  H3  CIT d          34.482  66.835-151.348  0.00  0.00     0.211 HD
ENDBRANCH   1   6
BRANCH   1   8
ATOM      8  C4  CIT d          36.969  64.906-152.202  0.00  0.00     0.163 C 
BRANCH   8   9
ATOM      9  C5  CIT d          36.137  64.034-153.127  0.00  0.00     0.176 C 
ATOM     10  O3  CIT d          36.112  64.318-154.343  0.00  0.00    -0.648 OA
ATOM     11  O4  CIT d          35.502  63.073-152.642  0.00  0.00    -0.648 OA
ENDBRANCH   8   9
ENDBRANCH   1   8
BRANCH   1  12
ATOM     12  C6  CIT d          36.959  66.861-150.643  0.00  0.00     0.210 C 
ATOM     13  O5  CIT d          37.951  66.527-149.966  0.00  0.00    -0.646 OA
ATOM     14  O6  CIT d          36.635  68.053-150.864  0.00  0.00    -0.646 OA
ENDBRANCH   1  12
TORSDOF 6
