REMARK  7 active torsions:
REMARK  status: ('A' for Active; 'I' for Inactive)
REMARK    1  A    between atoms: N_1  and  CA_2 
REMARK    2  A    between atoms: CA_2  and  C_3 
REMARK    3  A    between atoms: CA_2  and  CB_5 
REMARK    4  A    between atoms: CB_5  and  CG_6 
REMARK    5  A    between atoms: CG_6  and  CD_7 
REMARK    6  A    between atoms: CD_7  and  CE_8 
REMARK    7  A    between atoms: CE_8  and  NZ_9 
ROOT
ATOM      1  CA  LYS d         -13.084  23.876  13.569  0.00  0.00     0.283 C 
ENDROOT
BRANCH   1   2
ATOM      2  N   LYS d         -13.973  22.919  12.830  0.00  0.00    -0.065 N 
ATOM      3  H1  LYS d         -14.422  22.301  13.488  0.00  0.00     0.275 HD
ATOM      4  H2  LYS d         -13.420  22.378  12.184  0.00  0.00     0.275 HD
ATOM      5  H3  LYS d         -14.674  23.435  12.322  0.00  0.00     0.275 HD
ENDBRANCH   1   2
BRANCH   1   6
ATOM      6  C   LYS d         -12.403  24.815  12.564  0.00  0.00     0.204 C 
ATOM      7  O   LYS d         -11.737  25.762  12.956  0.00  0.00    -0.646 OA
ATOM      8  OXT LYS d         -12.497  24.621  11.332  0.00  0.00    -0.646 OA
ENDBRANCH   1   6
BRANCH   1   9
ATOM      9  CB  LYS d         -12.017  23.114  14.347  0.00  0.00     0.044 C 
BRANCH   9  10
ATOM     10  CG  LYS d         -11.142  22.235  13.420  0.00  0.00     0.004 C 
BRANCH  10  11
ATOM     11  CD  LYS d          -9.799  21.873  14.089  0.00  0.00     0.027 C 
BRANCH  11  12
ATOM     12  CE  LYS d          -9.218  20.634  13.424  0.00  0.00     0.229 C 
BRANCH  12  13
ATOM     13  NZ  LYS d          -7.771  20.352  13.933  0.00  0.00    -0.079 N 
ATOM     14  H13 LYS d          -7.410  19.528  13.478  0.00  0.00     0.274 HD
ATOM     15  H14 LYS d          -7.788  20.205  14.930  0.00  0.00     0.274 HD
ATOM     16  H15 LYS d          -7.180  21.140  13.719  0.00  0.00     0.274 HD
ENDBRANCH  12  13
ENDBRANCH  11  12
ENDBRANCH  10  11
ENDBRANCH   9  10
ENDBRANCH   1   9
TORSDOF 7
