REMARK  12 active torsions:
REMARK  status: ('A' for Active; 'I' for Inactive)
REMARK    1  A    between atoms: C6_2  and  N43_41 
REMARK    2  A    between atoms: C27_5  and  S9_7 
REMARK    3  A    between atoms: S9_7  and  N32_10 
REMARK    4  A    between atoms: N32_10  and  C33_11 
REMARK    5  A    between atoms: N32_10  and  C24_18 
REMARK    6  A    between atoms: C33_11  and  C34_12 
REMARK    7  A    between atoms: C23_22  and  N28_23 
REMARK    8  A    between atoms: N28_23  and  C7_24 
REMARK    9  A    between atoms: N28_23  and  S8_31 
REMARK   10  A    between atoms: C7_24  and  C12_25 
REMARK   11  A    between atoms: S8_31  and  C26_32 
REMARK   12  A    between atoms: C4_35  and  N42_40 
ROOT
ATOM      1  C24 G3G d         -16.248  20.172  -5.295  0.00  0.00     0.147 C 
ATOM      2  C25 G3G d         -14.892  19.744  -4.694  0.00  0.00     0.260 C 
ATOM      3  N22 G3G d         -14.809  18.276  -4.702  0.00  0.00    -0.071 N 
ATOM      4  C21 G3G d         -16.122  17.704  -5.115  0.00  0.00     0.260 C 
ATOM      5  C23 G3G d         -16.918  18.829  -5.822  0.00  0.00     0.147 C 
ATOM      6  H15 G3G d         -14.576  17.948  -3.778  0.00  0.00     0.277 HD
ATOM      7  H16 G3G d         -14.096  17.984  -5.352  0.00  0.00     0.277 HD
ENDROOT
BRANCH   1   8
ATOM      8  N32 G3G d         -17.154  20.876  -4.305  0.00  0.00    -0.294 N 
BRANCH   8   9
ATOM      9  S9  G3G d         -17.460  22.552  -4.594  0.00  0.00     0.261 S 
ATOM     10  O40 G3G d         -18.604  22.931  -3.768  0.00  0.00    -0.200 OA
ATOM     11  O11 G3G d         -17.291  22.971  -5.961  0.00  0.00    -0.200 OA
BRANCH   9  12
ATOM     12  C27 G3G d         -16.030  23.186  -3.725  0.00  0.00     0.079 A 
ATOM     13  C20 G3G d         -14.951  23.671  -4.506  0.00  0.00     0.027 A 
ATOM     14  C5  G3G d         -13.764  24.192  -3.917  0.00  0.00     0.030 A 
ATOM     15  C6  G3G d         -13.667  24.222  -2.500  0.00  0.00     0.025 A 
ATOM     16  C2  G3G d         -14.745  23.750  -1.731  0.00  0.00     0.030 A 
ATOM     17  C18 G3G d         -15.930  23.232  -2.315  0.00  0.00     0.027 A 
BRANCH  15  18
ATOM     18  N43 G3G d         -12.557  24.717  -1.905  0.00  0.00    -0.399 N 
ATOM     19  H33 G3G d         -12.489  24.738  -0.877  0.00  0.00     0.156 HD
ATOM     20  H34 G3G d         -11.780  25.073  -2.480  0.00  0.00     0.156 HD
ENDBRANCH  15  18
ENDBRANCH   9  12
ENDBRANCH   8   9
BRANCH   8  21
ATOM     21  C33 G3G d         -17.729  20.229  -3.098  0.00  0.00     0.174 C 
BRANCH  21  22
ATOM     22  C34 G3G d         -19.019  19.440  -3.126  0.00  0.00    -0.040 A 
ATOM     23  C38 G3G d         -19.129  18.292  -2.279  0.00  0.00     0.009 A 
ATOM     24  C39 G3G d         -20.323  17.529  -2.234  0.00  0.00     0.001 A 
ATOM     25  C37 G3G d         -21.398  17.880  -3.088  0.00  0.00     0.000 A 
ATOM     26  C36 G3G d         -21.287  19.009  -3.946  0.00  0.00     0.001 A 
ATOM     27  C35 G3G d         -20.101  19.788  -3.964  0.00  0.00     0.009 A 
ENDBRANCH  21  22
ENDBRANCH   8  21
ENDBRANCH   1   8
BRANCH   5  28
ATOM     28  N28 G3G d         -16.749  18.796  -7.316  0.00  0.00    -0.294 N 
BRANCH  28  29
ATOM     29  C7  G3G d         -15.462  18.546  -8.006  0.00  0.00     0.174 C 
BRANCH  29  30
ATOM     30  C12 G3G d         -14.581  19.799  -8.137  0.00  0.00    -0.040 A 
ATOM     31  C14 G3G d         -13.210  19.757  -7.747  0.00  0.00     0.009 A 
ATOM     32  C30 G3G d         -12.364  20.899  -7.852  0.00  0.00     0.001 A 
ATOM     33  C31 G3G d         -12.909  22.111  -8.369  0.00  0.00     0.000 A 
ATOM     34  C29 G3G d         -14.278  22.166  -8.760  0.00  0.00     0.001 A 
ATOM     35  C13 G3G d         -15.114  21.020  -8.648  0.00  0.00     0.009 A 
ENDBRANCH  29  30
ENDBRANCH  28  29
BRANCH  28  36
ATOM     36  S8  G3G d         -18.107  19.118  -8.269  0.00  0.00     0.261 S 
ATOM     37  O41 G3G d         -17.628  19.187  -9.668  0.00  0.00    -0.200 OA
ATOM     38  O10 G3G d         -18.809  20.283  -7.677  0.00  0.00    -0.200 OA
BRANCH  36  39
ATOM     39  C26 G3G d         -19.278  17.795  -8.232  0.00  0.00     0.079 A 
ATOM     40  C17 G3G d         -19.061  16.528  -8.852  0.00  0.00     0.027 A 
ATOM     41  C1  G3G d         -20.055  15.517  -8.777  0.00  0.00     0.030 A 
ATOM     42  C4  G3G d         -21.295  15.760  -8.074  0.00  0.00     0.025 A 
ATOM     43  C3  G3G d         -21.523  17.026  -7.452  0.00  0.00     0.030 A 
ATOM     44  C19 G3G d         -20.499  18.022  -7.538  0.00  0.00     0.027 A 
BRANCH  42  45
ATOM     45  N42 G3G d         -22.245  14.801  -7.990  0.00  0.00    -0.399 N 
ATOM     46  H31 G3G d         -22.092  13.884  -8.434  0.00  0.00     0.156 HD
ATOM     47  H32 G3G d         -23.121  14.987  -7.482  0.00  0.00     0.156 HD
ENDBRANCH  42  45
ENDBRANCH  36  39
ENDBRANCH  28  36
ENDBRANCH   5  28
TORSDOF 12
