REMARK  16 active torsions:
REMARK  status: ('A' for Active; 'I' for Inactive)
REMARK    1  A    between atoms: N33_2  and  C33_4 
REMARK    2  A    between atoms: C32_5  and  N35_6 
REMARK    3  A    between atoms: N35_6  and  C36_7 
REMARK    4  A    between atoms: C36_7  and  C41_8 
REMARK    5  A    between atoms: C36_7  and  C37_16 
REMARK    6  A    between atoms: C41_8  and  S42_9 
REMARK    7  A    between atoms: S42_9  and  C43_10 
REMARK    8  A    between atoms: C37_16  and  C38_17 
REMARK    9  A    between atoms: C38_17  and  N39_18 
REMARK   10  A    between atoms: C29_24  and  S28_25 
REMARK   11  A    between atoms: S28_25  and  N27_28 
REMARK       I    between atoms: N27_28  and  C26_29 
REMARK   12  A    between atoms: C26_29  and  C23_31 
REMARK   13  A    between atoms: C20_36  and  N17_37 
REMARK   14  A    between atoms: N14_42  and  C13_43 
REMARK   15  A    between atoms: C13_43  and  C12_44 
REMARK   16  A    between atoms: C7_49  and  C4_50 
ROOT
ATOM      1  N27 N3C d         -12.622 -11.163  10.549  0.00  0.00    -0.246 N 
ATOM      2  C26 N3C d         -12.302 -11.729  11.729  0.00  0.00     0.265 C 
ATOM      3  O26 N3C d         -11.893 -11.127  12.717  0.00  0.00    -0.267 OA
ATOM      4  H23 N3C d         -12.950 -11.766   9.822  0.00  0.00     0.182 HD
ENDROOT
BRANCH   1   5
ATOM      5  S28 N3C d         -12.522  -9.656  10.232  0.00  0.00     0.265 S 
ATOM      6  O28 N3C d         -13.301  -8.893  11.158  0.00  0.00    -0.200 OA
ATOM      7  O29 N3C d         -12.961  -9.401   8.878  0.00  0.00    -0.200 OA
BRANCH   5   8
ATOM      8  C29 N3C d         -10.926  -9.306  10.364  0.00  0.00     0.082 A 
ATOM      9  C30 N3C d         -10.320  -8.793  11.534  0.00  0.00     0.028 A 
ATOM     10  C31 N3C d          -8.939  -8.537  11.580  0.00  0.00     0.033 A 
ATOM     11  C32 N3C d          -8.115  -8.800  10.473  0.00  0.00     0.061 A 
ATOM     12  C33 N3C d          -8.705  -9.352   9.311  0.00  0.00     0.130 A 
ATOM     13  C34 N3C d         -10.084  -9.586   9.280  0.00  0.00     0.063 A 
BRANCH  11  14
ATOM     14  N35 N3C d          -6.753  -8.616  10.515  0.00  0.00    -0.383 N 
ATOM     15  H1  N3C d          -6.245  -8.683   9.621  0.00  0.00     0.160 HD
BRANCH  14  16
ATOM     16  C36 N3C d          -5.950  -8.331  11.723  0.00  0.00     0.093 C 
BRANCH  16  17
ATOM     17  C41 N3C d          -5.872  -9.519  12.708  0.00  0.00     0.104 C 
BRANCH  17  18
ATOM     18  S42 N3C d          -5.262 -10.977  11.901  0.00  0.00    -0.128 SA
BRANCH  18  19
ATOM     19  C43 N3C d          -6.558 -11.927  11.324  0.00  0.00     0.000 A 
ATOM     20  C48 N3C d          -7.551 -12.399  12.202  0.00  0.00     0.018 A 
ATOM     21  C47 N3C d          -8.604 -13.167  11.708  0.00  0.00     0.001 A 
ATOM     22  C46 N3C d          -8.675 -13.476  10.348  0.00  0.00     0.000 A 
ATOM     23  C45 N3C d          -7.696 -13.002   9.477  0.00  0.00     0.001 A 
ATOM     24  C44 N3C d          -6.637 -12.229   9.963  0.00  0.00     0.018 A 
ENDBRANCH  18  19
ENDBRANCH  17  18
ENDBRANCH  16  17
BRANCH  16  25
ATOM     25  C37 N3C d          -4.522  -7.930  11.301  0.00  0.00     0.053 C 
BRANCH  25  26
ATOM     26  C38 N3C d          -4.442  -6.413  11.104  0.00  0.00     0.236 C 
BRANCH  26  27
ATOM     27  N39 N3C d          -3.255  -6.019  10.304  0.00  0.00    -0.079 N 
ATOM     28  C40 N3C d          -3.328  -4.560  10.032  0.00  0.00     0.269 C 
ATOM     29  C39 N3C d          -1.981  -6.361  10.984  0.00  0.00     0.269 C 
ATOM     30  H46 N3C d          -3.283  -6.514   9.427  0.00  0.00     0.278 HD
ENDBRANCH  26  27
ENDBRANCH  25  26
ENDBRANCH  16  25
ENDBRANCH  14  16
ENDBRANCH  11  14
BRANCH  12  31
ATOM     31  N33 N3C d          -7.996  -9.665   8.116  0.00  0.00    -0.113 N 
ATOM     32  O34 N3C d          -6.821  -9.349   7.891  0.00  0.00    -0.532 OA
ATOM     33  O33 N3C d          -8.591 -10.268   7.232  0.00  0.00    -0.532 OA
ENDBRANCH  12  31
ENDBRANCH   5   8
ENDBRANCH   1   5
BRANCH   2  34
ATOM     34  C23 N3C d         -12.346 -13.218  11.850  0.00  0.00     0.033 A 
ATOM     35  C22 N3C d         -11.828 -13.834  12.990  0.00  0.00     0.019 A 
ATOM     36  C21 N3C d         -11.818 -15.221  13.095  0.00  0.00     0.030 A 
ATOM     37  C20 N3C d         -12.293 -16.033  12.046  0.00  0.00     0.030 A 
ATOM     38  C25 N3C d         -12.790 -15.394  10.906  0.00  0.00     0.030 A 
ATOM     39  C24 N3C d         -12.805 -14.003  10.809  0.00  0.00     0.019 A 
BRANCH  37  40
ATOM     40  N17 N3C d         -12.281 -17.441  12.144  0.00  0.00    -0.378 N 
ATOM     41  C16 N3C d         -11.789 -18.046  13.381  0.00  0.00     0.150 C 
ATOM     42  C15 N3C d         -12.166 -19.506  13.510  0.00  0.00     0.255 C 
ATOM     43  N14 N3C d         -12.059 -20.250  12.252  0.00  0.00    -0.064 N 
ATOM     44  C19 N3C d         -12.917 -19.668  11.222  0.00  0.00     0.255 C 
ATOM     45  H47 N3C d         -11.108 -20.183  11.924  0.00  0.00     0.280 HD
ATOM     46  C18 N3C d         -12.711 -18.201  10.977  0.00  0.00     0.150 C 
BRANCH  43  47
ATOM     47  C13 N3C d         -12.347 -21.688  12.530  0.00  0.00     0.274 C 
BRANCH  47  48
ATOM     48  C12 N3C d         -13.152 -22.379  11.465  0.00  0.00    -0.021 A 
ATOM     49  C11 N3C d         -14.556 -22.398  11.651  0.00  0.00     0.010 A 
ATOM     50  C10 N3C d         -15.374 -22.993  10.700  0.00  0.00     0.001 A 
ATOM     51  C9  N3C d         -14.800 -23.564   9.574  0.00  0.00     0.001 A 
ATOM     52  C8  N3C d         -13.428 -23.582   9.400  0.00  0.00     0.013 A 
ATOM     53  C7  N3C d         -12.566 -22.983  10.337  0.00  0.00    -0.018 A 
BRANCH  53  54
ATOM     54  C4  N3C d         -11.199 -23.045  10.042  0.00  0.00    -0.025 A 
ATOM     55  C3  N3C d         -10.340 -23.809  10.826  0.00  0.00     0.014 A 
ATOM     56  C2  N3C d          -8.983 -23.897  10.519  0.00  0.00     0.024 A 
ATOM     57  C1  N3C d          -8.469 -23.255   9.405  0.00  0.00     0.034 A 
ATOM     58  C6  N3C d          -9.325 -22.503   8.601  0.00  0.00     0.024 A 
ATOM     59 CL1  N3C d          -6.718 -23.383   8.991  0.00  0.00    -0.084 Cl
ATOM     60  C5  N3C d         -10.685 -22.407   8.908  0.00  0.00     0.014 A 
ENDBRANCH  53  54
ENDBRANCH  47  48
ENDBRANCH  43  47
ENDBRANCH  37  40
ENDBRANCH   2  34
TORSDOF 16
