REMARK  6 active torsions:
REMARK  status: ('A' for Active; 'I' for Inactive)
REMARK    1  A    between atoms: CA_2  and  N_1 
REMARK    2  A    between atoms: CA_2  and  CB_5 
REMARK    3  A    between atoms: CA_2  and  C_3 
REMARK    4  A    between atoms: CB_5  and  CG_6 
REMARK    5  A    between atoms: CG_6  and  CD_7 
REMARK    6  A    between atoms: CD_7  and  NE_8 
ROOT
ATOM      1  CA  ORN d          31.896  28.721  67.514  0.00  0.00     0.283 C 
ENDROOT
BRANCH   1   2
ATOM      2  CB  ORN d          33.410  28.410  67.366  0.00  0.00     0.045 C 
BRANCH   2   3
ATOM      3  CG  ORN d          34.369  28.851  68.504  0.00  0.00     0.030 C 
BRANCH   3   4
ATOM      4  CD  ORN d          35.594  27.937  68.538  0.00  0.00     0.230 C 
BRANCH   4   5
ATOM      5  NE  ORN d          36.572  28.386  69.537  0.00  0.00    -0.079 N 
ATOM      6  H11 ORN d          37.365  27.764  69.534  0.00  0.00     0.274 HD
ATOM      7  H12 ORN d          36.145  28.382  70.450  0.00  0.00     0.274 HD
ATOM      8  H13 ORN d          36.877  29.320  69.312  0.00  0.00     0.274 HD
ENDBRANCH   4   5
ENDBRANCH   3   4
ENDBRANCH   2   3
ENDBRANCH   1   2
BRANCH   1   9
ATOM      9  C   ORN d          31.299  27.913  68.675  0.00  0.00     0.204 C 
ATOM     10  OXT ORN d          31.199  26.711  68.543  0.00  0.00    -0.646 OA
ATOM     11  O   ORN d          30.939  28.462  69.717  0.00  0.00    -0.646 OA
ENDBRANCH   1   9
BRANCH   1  12
ATOM     12  N   ORN d          31.661  30.056  67.946  0.00  0.00    -0.065 N 
ATOM     13  H1  ORN d          32.015  30.700  67.256  0.00  0.00     0.275 HD
ATOM     14  H2  ORN d          32.131  30.213  68.824  0.00  0.00     0.275 HD
ATOM     15  H3  ORN d          30.671  30.201  68.065  0.00  0.00     0.275 HD
ENDBRANCH   1  12
TORSDOF 6
