REMARK  4 active torsions:
REMARK  status: ('A' for Active; 'I' for Inactive)
REMARK    1  A    between atoms: N_1  and  CA_2 
REMARK    2  A    between atoms: CA_2  and  C_3 
REMARK    3  A    between atoms: CA_2  and  CB_5 
REMARK    4  A    between atoms: CB_5  and  CG_6 
ROOT
ATOM      1  CA  PHE d           6.195  -7.713 -16.065  0.00  0.00     0.287 C 
ENDROOT
BRANCH   1   2
ATOM      2  N   PHE d           5.091  -8.066 -17.010  0.00  0.00    -0.065 N 
ATOM      3  H1  PHE d           4.225  -7.670 -16.678  0.00  0.00     0.275 HD
ATOM      4  H2  PHE d           5.003  -9.069 -17.065  0.00  0.00     0.275 HD
ATOM      5  H3  PHE d           5.300  -7.697 -17.924  0.00  0.00     0.275 HD
ENDBRANCH   1   2
BRANCH   1   6
ATOM      6  C   PHE d           7.498  -8.311 -16.569  0.00  0.00     0.204 C 
ATOM      7  O   PHE d           8.477  -8.464 -15.812  0.00  0.00    -0.646 OA
ATOM      8  OXT PHE d           7.600  -8.665 -17.713  0.00  0.00    -0.646 OA
ENDBRANCH   1   6
BRANCH   1   9
ATOM      9  CB  PHE d           5.993  -8.265 -14.659  0.00  0.00     0.082 C 
BRANCH   9  10
ATOM     10  CG  PHE d           5.051  -7.418 -13.868  0.00  0.00    -0.056 A 
ATOM     11  CD1 PHE d           3.696  -7.815 -13.720  0.00  0.00     0.007 A 
ATOM     12  CE1 PHE d           2.804  -6.995 -13.024  0.00  0.00     0.001 A 
ATOM     13  CZ  PHE d           3.250  -5.776 -12.483  0.00  0.00     0.000 A 
ATOM     14  CE2 PHE d           4.601  -5.386 -12.640  0.00  0.00     0.001 A 
ATOM     15  CD2 PHE d           5.527  -6.214 -13.329  0.00  0.00     0.007 A 
ENDBRANCH   9  10
ENDBRANCH   1   9
TORSDOF 4
