REMARK  5 active torsions:
REMARK  status: ('A' for Active; 'I' for Inactive)
REMARK    1  A    between atoms: CAF_7  and  CAH_8 
REMARK    2  A    between atoms: CAH_8  and  CAI_9 
REMARK    3  A    between atoms: CAS_19  and  OAT_20 
REMARK    4  A    between atoms: OAT_20  and  SAU_21 
REMARK    5  A    between atoms: SAU_21  and  NAV_24 
ROOT
ATOM      1  CAI MOL d          -2.750   6.364  12.885  0.00  0.00     0.043 A 
ATOM      2  CAJ MOL d          -4.060   6.241  13.169  0.00  0.00     0.032 A 
ATOM      3  SAP MOL d          -1.998   4.925  13.413  0.00  0.00     0.204 S 
ATOM      4  OAO MOL d          -1.382   4.229  12.223  0.00  0.00    -0.217 OA
ATOM      5  OAW MOL d          -1.020   5.162  14.525  0.00  0.00    -0.217 OA
ATOM      6  CAQ MOL d          -3.419   4.159  13.981  0.00  0.00     0.076 A 
ATOM      7  CAR MOL d          -3.661   2.910  14.568  0.00  0.00     0.062 A 
ATOM      8  CAK MOL d          -4.450   5.087  13.763  0.00  0.00    -0.013 A 
ATOM      9  CAL MOL d          -5.740   4.698  14.137  0.00  0.00     0.016 A 
ATOM     10  CAM MOL d          -5.987   3.452  14.713  0.00  0.00     0.039 A 
ATOM     11  CAS MOL d          -4.956   2.552  14.962  0.00  0.00     0.092 A 
ENDROOT
BRANCH   1  12
ATOM     12  CAH MOL d          -1.995   7.508  12.168  0.00  0.00     0.055 C 
BRANCH  12  13
ATOM     13  CAF MOL d          -1.074   8.434  12.974  0.00  0.00    -0.010 C 
ATOM     14  CAE MOL d          -1.286   9.849  12.412  0.00  0.00     0.005 C 
ATOM     15  CAA MOL d           0.025  10.653  12.369  0.00  0.00     0.000 C 
ATOM     16  CAB MOL d           0.418  11.210  13.751  0.00  0.00     0.000 C 
ATOM     17  CAC MOL d           0.612  10.083  14.785  0.00  0.00     0.000 C 
ATOM     18  CAD MOL d          -0.732   9.554  15.322  0.00  0.00     0.000 C 
ATOM     19  CAG MOL d          -1.366   8.416  14.493  0.00  0.00     0.005 C 
ENDBRANCH  12  13
ENDBRANCH   1  12
BRANCH  11  20
ATOM     20  OAT MOL d          -5.182   1.298  15.494  0.00  0.00    -0.217 OA
BRANCH  20  21
ATOM     21  SAU MOL d          -5.873   0.950  16.749  0.00  0.00     0.360 S 
ATOM     22  OAA MOL d          -5.128   1.443  17.949  0.00  0.00    -0.176 OA
ATOM     23  OAN MOL d          -7.265   1.468  16.763  0.00  0.00    -0.176 OA
BRANCH  21  24
ATOM     24  NAV MOL d          -5.848  -0.638  16.783  0.00  0.00    -0.305 N 
ATOM     25  H20 MOL d          -6.263  -1.128  17.550  0.00  0.00     0.171 HD
ATOM     26  H21 MOL d          -5.418  -1.147  16.038  0.00  0.00     0.171 HD
ENDBRANCH  21  24
ENDBRANCH  20  21
ENDBRANCH  11  20
TORSDOF 5
