REMARK  9 active torsions:
REMARK  status: ('A' for Active; 'I' for Inactive)
REMARK    1  A    between atoms: C11_6  and  C10_7 
REMARK    2  A    between atoms: N2_11  and  C8_12 
REMARK    3  A    between atoms: C8_12  and  C7_13 
REMARK       I    between atoms: C7_13  and  N1_15 
REMARK    4  A    between atoms: N1_15  and  C1_16 
REMARK    5  A    between atoms: C5_18  and  C6_19 
REMARK    6  A    between atoms: C6_19  and  O6_20 
REMARK    7  A    between atoms: C4_21  and  O4_22 
REMARK    8  A    between atoms: C3_23  and  O3_24 
REMARK    9  A    between atoms: C2_25  and  O2_26 
ROOT
ATOM      1  C7  DL8 d          34.914  23.454  29.188  0.00  0.00     0.239 C 
ATOM      2  O7  DL8 d          33.942  23.878  29.818  0.00  0.00    -0.272 OA
ATOM      3  N1  DL8 d          34.834  22.844  28.008  0.00  0.00    -0.331 N 
ATOM      4  H9  DL8 d          35.675  22.549  27.555  0.00  0.00     0.165 HD
ENDROOT
BRANCH   3   5
ATOM      5  C1  DL8 d          33.536  22.591  27.350  0.00  0.00     0.255 C 
ATOM      6  O5  DL8 d          33.277  21.179  27.585  0.00  0.00    -0.354 OA
ATOM      7  C5  DL8 d          32.053  20.701  26.991  0.00  0.00     0.179 C 
ATOM      8  C4  DL8 d          32.162  20.869  25.461  0.00  0.00     0.180 C 
ATOM      9  C3  DL8 d          32.405  22.347  25.095  0.00  0.00     0.182 C 
ATOM     10  C2  DL8 d          33.622  22.906  25.850  0.00  0.00     0.198 C 
BRANCH   7  11
ATOM     11  C6  DL8 d          31.863  19.238  27.415  0.00  0.00     0.198 C 
BRANCH  11  12
ATOM     12  O6  DL8 d          32.952  18.446  26.908  0.00  0.00    -0.398 OA
ATOM     13  H14 DL8 d          33.771  18.774  27.260  0.00  0.00     0.209 HD
ENDBRANCH  11  12
ENDBRANCH   7  11
BRANCH   8  14
ATOM     14  O4  DL8 d          30.980  20.375  24.818  0.00  0.00    -0.390 OA
ATOM     15  H16 DL8 d          31.062  20.485  23.878  0.00  0.00     0.210 HD
ENDBRANCH   8  14
BRANCH   9  16
ATOM     16  O3  DL8 d          32.638  22.461  23.687  0.00  0.00    -0.390 OA
ATOM     17  H18 DL8 d          31.879  22.139  23.215  0.00  0.00     0.210 HD
ENDBRANCH   9  16
BRANCH  10  18
ATOM     18  O2  DL8 d          33.733  24.321  25.661  0.00  0.00    -0.389 OA
ATOM     19  H20 DL8 d          33.834  24.509  24.735  0.00  0.00     0.210 HD
ENDBRANCH  10  18
ENDBRANCH   3   5
BRANCH   1  20
ATOM     20  C8  DL8 d          36.356  23.588  29.709  0.00  0.00     0.254 C 
BRANCH  20  21
ATOM     21  N2  DL8 d          36.445  24.377  30.950  0.00  0.00    -0.252 N 
ATOM     22  C9  DL8 d          37.336  25.342  31.132  0.00  0.00     0.148 A 
ATOM     23  C10 DL8 d          37.085  25.790  32.356  0.00  0.00     0.108 A 
ATOM     24  N4  DL8 d          36.066  25.061  32.816  0.00  0.00    -0.130 NA
ATOM     25  N3  DL8 d          35.731  24.241  31.951  0.00  0.00    -0.065 NA
BRANCH  23  26
ATOM     26  C11 DL8 d          37.750  26.816  33.025  0.00  0.00    -0.004 A 
ATOM     27  C12 DL8 d          37.477  27.069  34.371  0.00  0.00     0.014 A 
ATOM     28  C13 DL8 d          38.145  28.095  35.041  0.00  0.00     0.001 A 
ATOM     29  C14 DL8 d          39.083  28.875  34.364  0.00  0.00     0.000 A 
ATOM     30  C15 DL8 d          39.358  28.622  33.022  0.00  0.00     0.001 A 
ATOM     31  C16 DL8 d          38.693  27.594  32.355  0.00  0.00     0.014 A 
ENDBRANCH  23  26
ENDBRANCH  20  21
ENDBRANCH   1  20
TORSDOF 9
