REMARK  10 active torsions:
REMARK  status: ('A' for Active; 'I' for Inactive)
REMARK    1  A    between atoms: OAP_2  and  CAX_3 
REMARK    2  A    between atoms: CAU_4  and  OAE_6 
REMARK    3  A    between atoms: CAV_9  and  CBA_10 
REMARK    4  A    between atoms: CAZ_13  and  CAK_14 
REMARK    5  A    between atoms: CAK_14  and  CAJ_15 
REMARK    6  A    between atoms: CAY_17  and  CAL_18 
REMARK    7  A    between atoms: CAL_18  and  SAQ_19 
REMARK    8  A    between atoms: SAQ_19  and  C2_20 
REMARK    9  A    between atoms: C6_23  and  NAC_24 
REMARK   10  A    between atoms: C4_26  and  NAD_27 
ROOT
ATOM      1  CBA MOL d         -32.766  12.281  -3.991  0.00  0.00     0.108 A 
ATOM      2  NAO MOL d         -31.822  11.976  -3.102  0.00  0.00    -0.243 NA
ATOM      3  SAR MOL d         -32.108  13.101  -5.114  0.00  0.00    -0.072 SA
ATOM      4  CAZ MOL d         -30.678  13.153  -4.602  0.00  0.00     0.010 A 
ATOM      5  CAY MOL d         -30.640  12.505  -3.444  0.00  0.00     0.058 A 
ENDROOT
BRANCH   5   6
ATOM      6  CAL MOL d         -29.393  12.298  -2.631  0.00  0.00     0.143 C 
BRANCH   6   7
ATOM      7  SAQ MOL d         -28.680  10.679  -3.105  0.00  0.00    -0.084 SA
BRANCH   7   8
ATOM      8  C2  MOL d         -27.016  11.049  -3.503  0.00  0.00     0.192 A 
ATOM      9  N3  MOL d         -26.197  10.025  -3.884  0.00  0.00    -0.206 NA
ATOM     10  C4  MOL d         -24.905  10.209  -4.190  0.00  0.00     0.127 A 
ATOM     11  C5  MOL d         -24.401  11.510  -4.088  0.00  0.00     0.100 A 
ATOM     12  C6  MOL d         -25.268  12.543  -3.705  0.00  0.00     0.127 A 
ATOM     13  N1  MOL d         -26.570  12.297  -3.397  0.00  0.00    -0.206 NA
BRANCH  10  14
ATOM     14  NAD MOL d         -24.123   9.160  -4.541  0.00  0.00    -0.384 N 
ATOM     15  H   MOL d         -23.131   9.312  -4.774  0.00  0.00     0.157 HD
ATOM     16  H   MOL d         -24.520   8.210  -4.575  0.00  0.00     0.157 HD
ENDBRANCH  10  14
BRANCH  12  17
ATOM     17  NAC MOL d         -24.796  13.784  -3.624  0.00  0.00    -0.384 N 
ATOM     18  H   MOL d         -23.811  13.977  -3.856  0.00  0.00     0.157 HD
ATOM     19  H   MOL d         -25.415  14.552  -3.329  0.00  0.00     0.157 HD
ENDBRANCH  12  17
ENDBRANCH   7   8
ENDBRANCH   6   7
ENDBRANCH   5   6
BRANCH   4  20
ATOM     20  CAK MOL d         -29.525  13.864  -5.335  0.00  0.00     0.048 C 
BRANCH  20  21
ATOM     21  CAJ MOL d         -29.675  15.351  -5.130  0.00  0.00     0.001 C 
ATOM     22  CAA MOL d         -28.852  15.767  -3.887  0.00  0.00     0.005 C 
ENDBRANCH  20  21
ENDBRANCH   4  20
BRANCH   1  23
ATOM     23  CAV MOL d         -34.051  11.934  -3.891  0.00  0.00     0.003 A 
ATOM     24  CAI MOL d         -34.354  10.900  -3.034  0.00  0.00     0.053 A 
ATOM     25  CAU MOL d         -35.667  10.493  -2.865  0.00  0.00     0.099 A 
ATOM     26  CAX MOL d         -36.712  11.143  -3.540  0.00  0.00     0.101 A 
ATOM     27  CAG MOL d         -36.426  12.216  -4.394  0.00  0.00     0.040 A 
ATOM     28  CAF MOL d         -35.093  12.614  -4.563  0.00  0.00     0.017 A 
BRANCH  25  29
ATOM     29  OAE MOL d         -35.943   9.477  -2.004  0.00  0.00    -0.358 OA
ATOM     30  H   MOL d         -36.879   9.315  -1.997  0.00  0.00     0.217 HD
ENDBRANCH  25  29
BRANCH  26  31
ATOM     31  OAP MOL d         -37.986  10.679  -3.302  0.00  0.00    -0.353 OA
ATOM     32  CAB MOL d         -38.903  10.787  -4.413  0.00  0.00     0.210 C 
ENDBRANCH  26  31
ENDBRANCH   1  23
TORSDOF 10
