REMARK  2 active torsions:
REMARK  status: ('A' for Active; 'I' for Inactive)
REMARK    1  A    between atoms: C7_4  and  N6_8 
REMARK    2  A    between atoms: N6_8  and  C5_9 
ROOT
ATOM      1  N6  GZ2 d          -4.461  53.156  12.820  0.00  0.00    -0.192 N 
ATOM      2  H8  GZ2 d          -4.739  53.442  13.770  0.00  0.00     0.184 HD
ENDROOT
BRANCH   1   3
ATOM      3  C7  GZ2 d          -5.442  52.701  12.028  0.00  0.00     0.030 C 
ATOM      4  C12 GZ2 d          -5.289  52.369  10.733  0.00  0.00     0.075 C 
ATOM      5  C11 GZ2 d          -6.417  51.820   9.949  0.00  0.00     0.151 C 
ATOM      6  O13 GZ2 d          -6.258  51.576   8.762  0.00  0.00    -0.293 OA
ATOM      7  C10 GZ2 d          -7.757  51.562  10.607  0.00  0.00     0.083 C 
ATOM      8  C9  GZ2 d          -7.976  52.487  11.794  0.00  0.00     0.014 C 
ATOM      9  C8  GZ2 d          -6.774  52.563  12.732  0.00  0.00     0.058 C 
ENDBRANCH   1   3
BRANCH   1  10
ATOM     10  C5  GZ2 d          -3.136  53.284  12.514  0.00  0.00     0.732 A 
ATOM     11  N4  GZ2 d          -2.662  53.561  11.292  0.00  0.00    -0.115 N 
ATOM     12  N3  GZ2 d          -1.267  53.586  11.461  0.00  0.00     0.008 NA
ATOM     13  H9  GZ2 d          -3.197  53.719  10.427  0.00  0.00     0.203 HD
ATOM     14  N2  GZ2 d          -0.985  53.335  12.817  0.00  0.00     0.033 NA
ATOM     15  N1  GZ2 d          -2.199  53.145  13.476  0.00  0.00     0.030 NA
ENDBRANCH   1  10
TORSDOF 2
