REMARK  6 active torsions:
REMARK  status: ('A' for Active; 'I' for Inactive)
REMARK    1  A    between atoms: C9_7  and  C8_8 
REMARK    2  A    between atoms: C5_14  and  C6_15 
REMARK    3  A    between atoms: C6_15  and  O6_16 
REMARK    4  A    between atoms: C4_17  and  O4_18 
REMARK    5  A    between atoms: C3_19  and  O3_20 
REMARK    6  A    between atoms: C2_21  and  O2_22 
ROOT
ATOM      1  C8  S13 d          34.092  23.818  29.492  0.00  0.00     0.077 C 
ATOM      2  C7  S13 d          34.673  23.114  28.265  0.00  0.00     0.136 C 
ATOM      3  N1  S13 d          32.788  23.984  29.290  0.00  0.00    -0.134 NA
ATOM      4  O7  S13 d          32.357  23.460  28.026  0.00  0.00    -0.213 OA
ATOM      5  C1  S13 d          33.433  22.682  27.482  0.00  0.00     0.226 C 
ATOM      6  O5  S13 d          33.185  21.279  27.717  0.00  0.00    -0.341 OA
ATOM      7  C5  S13 d          31.999  20.772  27.042  0.00  0.00     0.180 C 
ATOM      8  C4  S13 d          32.142  20.937  25.518  0.00  0.00     0.180 C 
ATOM      9  C3  S13 d          32.409  22.407  25.153  0.00  0.00     0.183 C 
ATOM     10  C2  S13 d          33.595  22.967  25.967  0.00  0.00     0.214 C 
ENDROOT
BRANCH  10  11
ATOM     11  O2  S13 d          33.722  24.374  25.739  0.00  0.00    -0.387 OA
ATOM     12  H19 S13 d          32.922  24.811  26.009  0.00  0.00     0.210 HD
ENDBRANCH  10  11
BRANCH   1  13
ATOM     13  C9  S13 d          34.793  24.251  30.621  0.00  0.00    -0.009 A 
ATOM     14  C10 S13 d          36.183  24.382  30.588  0.00  0.00     0.014 A 
ATOM     15  C11 S13 d          36.872  24.834  31.718  0.00  0.00     0.007 A 
ATOM     16  C12 S13 d          36.169  25.170  32.876  0.00  0.00    -0.062 A 
ATOM     17  C15 S13 d          36.919  25.670  34.118  0.00  0.00     0.048 C 
ATOM     18  C13 S13 d          34.784  25.040  32.914  0.00  0.00     0.007 A 
ATOM     19  C14 S13 d          34.097  24.590  31.784  0.00  0.00     0.014 A 
ENDBRANCH   1  13
BRANCH   7  20
ATOM     20  C6  S13 d          31.859  19.310  27.469  0.00  0.00     0.198 C 
BRANCH  20  21
ATOM     21  O6  S13 d          32.930  18.545  26.910  0.00  0.00    -0.398 OA
ATOM     22  H13 S13 d          33.759  18.888  27.222  0.00  0.00     0.209 HD
ENDBRANCH  20  21
ENDBRANCH   7  20
BRANCH   9  23
ATOM     23  O3  S13 d          32.689  22.511  23.753  0.00  0.00    -0.390 OA
ATOM     24  H17 S13 d          31.944  22.193  23.258  0.00  0.00     0.210 HD
ENDBRANCH   9  23
BRANCH   8  25
ATOM     25  O4  S13 d          30.964  20.461  24.843  0.00  0.00    -0.390 OA
ATOM     26  H15 S13 d          31.071  20.571  23.905  0.00  0.00     0.210 HD
ENDBRANCH   8  25
TORSDOF 6
