2qrq_ligand

Created by X-TOOL on Fri Sep 26 17:34:41 2014
 41 43  0  0  0  0  0  0  0  0999 V2000
   36.1830   24.3820   30.5880  C 0  0  0  2  0  3
   36.8720   24.8340   31.7180  C 0  0  0  2  0  3
   36.1690   25.1700   32.8760  C 0  0  0  1  0  3
   36.9190   25.6700   34.1180  C 0  0  0  4  0  4
   34.7840   25.0400   32.9140  C 0  0  0  2  0  3
   34.0970   24.5900   31.7840  C 0  0  0  2  0  3
   34.7930   24.2510   30.6210  C 0  0  0  1  0  3
   34.0920   23.8180   29.4920  C 0  0  0  1  0  3
   34.6730   23.1140   28.2650  C 0  0  0  3  0  4
   32.7880   23.9840   29.2900  N 0  0  0  1  0  2
   32.3570   23.4600   28.0260  O 0  0  0  1  0  2
   33.4330   22.6820   27.4820  C 0  0  0  1  0  4
   33.1850   21.2790   27.7170  O 0  0  0  1  0  2
   31.9990   20.7720   27.0420  C 0  0  0  2  0  4
   31.8590   19.3100   27.4690  C 0  0  0  3  0  4
   32.9300   18.5450   26.9100  O 0  0  0  2  0  2
   32.1420   20.9370   25.5180  C 0  0  0  2  0  4
   30.9640   20.4610   24.8430  O 0  0  0  2  0  2
   32.4090   22.4070   25.1530  C 0  0  0  2  0  4
   32.6890   22.5110   23.7530  O 0  0  0  2  0  2
   33.5950   22.9670   25.9670  C 0  0  0  2  0  4
   33.7220   24.3740   25.7390  O 0  0  0  2  0  2
   36.7287   24.1329   29.6851  H 0  0  0  1  0  1
   37.9521   24.9234   31.6945  H 0  0  0  1  0  1
   36.1979   25.8814   34.9213  H 0  0  0  1  0  1
   37.4698   26.5889   33.8686  H 0  0  0  1  0  1
   37.6268   24.8981   34.4544  H 0  0  0  1  0  1
   34.2396   25.2873   33.8182  H 0  0  0  1  0  1
   33.0168   24.5033   31.8097  H 0  0  0  1  0  1
   35.2752   22.2421   28.5602  H 0  0  0  1  0  1
   35.2920   23.8035   27.6722  H 0  0  0  1  0  1
   31.1129   21.3338   27.3723  H 0  0  0  1  0  1
   30.8983   18.9133   27.1089  H 0  0  0  1  0  1
   31.8950   19.2435   28.5664  H 0  0  0  1  0  1
   33.7592   18.8883   27.2216  H 0  0  0  1  0  1
   33.0002   20.3353   25.1842  H 0  0  0  1  0  1
   31.0713   20.5711   23.9055  H 0  0  0  1  0  1
   31.5108   22.9986   25.3836  H 0  0  0  1  0  1
   31.9436   22.1926   23.2576  H 0  0  0  1  0  1
   34.5145   22.4724   25.6209  H 0  0  0  1  0  1
   32.9225   24.8108   26.0085  H 0  0  0  1  0  1
  1  2  4  0  0  1
  1  7  4  0  0  1
  2  3  4  0  0  1
  3  4  1  0  0  2
  3  5  4  0  0  1
  5  6  4  0  0  1
  6  7  4  0  0  1
  7  8  1  0  0  2
  8  9  1  0  0  1
  8 10  2  0  0  1
  9 12  1  0  0  1
 10 11  1  0  0  1
 11 12  1  0  0  1
 12 13  1  0  0  1
 12 21  1  0  0  1
 13 14  1  0  0  1
 14 15  1  0  0  2
 14 17  1  0  0  1
 15 16  1  0  0  2
 17 18  1  0  0  2
 17 19  1  0  0  1
 19 20  1  0  0  2
 19 21  1  0  0  1
 21 22  1  0  0  2
  1 23  1  0  0  2
  2 24  1  0  0  2
  4 25  1  0  0  2
  4 26  1  0  0  2
  4 27  1  0  0  2
  5 28  1  0  0  2
  6 29  1  0  0  2
  9 30  1  0  0  2
  9 31  1  0  0  2
 14 32  1  0  0  2
 15 33  1  0  0  2
 15 34  1  0  0  2
 16 35  1  0  0  2
 17 36  1  0  0  2
 18 37  1  0  0  2
 19 38  1  0  0  2
 20 39  1  0  0  2
 21 40  1  0  0  2
 22 41  1  0  0  2
M  END
> <MOLECULAR_FORMULA>
C15H19NO6

> <MOLECULAR_WEIGHT>
309.2

> <NUM_HB_ATOMS>
7  

> <NUM_ROTOR>
1  

> <XLOGP2>
0.54 

$$$$
