REMARK  15 active torsions:
REMARK  status: ('A' for Active; 'I' for Inactive)
REMARK    1  A    between atoms: C2_2  and  N1_1 
REMARK    2  A    between atoms: S8_8  and  C5_5 
REMARK    3  A    between atoms: N11_11  and  S8_8 
REMARK    4  A    between atoms: N11_11  and  C12_12 
REMARK    5  A    between atoms: C16_16  and  N11_11 
REMARK    6  A    between atoms: C12_12  and  C13_13 
REMARK    7  A    between atoms: C13_13  and  C15_15 
REMARK    8  A    between atoms: C17_17  and  C16_16 
REMARK    9  A    between atoms: C17_17  and  O18_19 
REMARK   10  A    between atoms: C19_20  and  C17_17 
REMARK   11  A    between atoms: C19_20  and  N20_21 
REMARK   12  A    between atoms: C32_33  and  C19_20 
REMARK       I    between atoms: N20_21  and  C21_22 
REMARK   13  A    between atoms: C21_22  and  O23_24 
REMARK   14  A    between atoms: O23_24  and  C24_25 
REMARK   15  A    between atoms: C38_39  and  C32_33 
ROOT
ATOM      1  C17 K13 d          19.910  29.386  15.607  0.00  0.00     0.155 C 
ENDROOT
BRANCH   1   2
ATOM      2  C16 K13 d          18.985  30.477  16.157  0.00  0.00     0.141 C 
BRANCH   2   3
ATOM      3  N11 K13 d          19.277  31.720  15.430  0.00  0.00    -0.204 NA
BRANCH   3   4
ATOM      4  S8  K13 d          18.016  32.317  14.606  0.00  0.00     0.243 S 
ATOM      5  O9  K13 d          17.356  31.241  13.941  0.00  0.00    -0.206 OA
ATOM      6  O10 K13 d          18.597  33.213  13.653  0.00  0.00    -0.206 OA
BRANCH   4   7
ATOM      7  C5  K13 d          16.987  33.105  15.577  0.00  0.00     0.074 A 
ATOM      8  C4  K13 d          17.169  34.445  15.935  0.00  0.00     0.027 A 
ATOM      9  C3  K13 d          16.276  35.095  16.797  0.00  0.00     0.030 A 
ATOM     10  C2  K13 d          15.185  34.377  17.294  0.00  0.00     0.025 A 
ATOM     11  C7  K13 d          14.995  33.057  16.939  0.00  0.00     0.030 A 
ATOM     12  C6  K13 d          15.896  32.423  16.090  0.00  0.00     0.027 A 
BRANCH  10  13
ATOM     13  N1  K13 d          14.290  34.956  18.117  0.00  0.00    -0.399 N 
ATOM     14  H1  K13 d          14.409  35.940  18.397  0.00  0.00     0.156 HD
ATOM     15  H2  K13 d          13.486  34.415  18.466  0.00  0.00     0.156 HD
ENDBRANCH  10  13
ENDBRANCH   4   7
ENDBRANCH   3   4
BRANCH   3  16
ATOM     16  C12 K13 d          19.972  32.746  16.246  0.00  0.00     0.112 C 
BRANCH  16  17
ATOM     17  C13 K13 d          21.469  32.451  16.310  0.00  0.00    -0.005 C 
ATOM     18  C14 K13 d          22.147  32.436  14.933  0.00  0.00     0.011 C 
BRANCH  17  19
ATOM     19  C15 K13 d          22.143  33.430  17.283  0.00  0.00     0.001 C 
ATOM     20  C18 K13 d          22.151  34.852  16.780  0.00  0.00     0.005 C 
ENDBRANCH  17  19
ENDBRANCH  16  17
ENDBRANCH   3  16
ENDBRANCH   2   3
ENDBRANCH   1   2
BRANCH   1  21
ATOM     21  O18 K13 d          19.866  28.259  16.493  0.00  0.00    -0.392 OA
ATOM     22  H21 K13 d          20.436  27.575  16.162  0.00  0.00     0.210 HD
ENDBRANCH   1  21
BRANCH   1  23
ATOM     23  C19 K13 d          19.570  28.953  14.174  0.00  0.00     0.120 C 
BRANCH  23  24
ATOM     24  N20 K13 d          20.678  28.151  13.703  0.00  0.00    -0.329 N 
ATOM     25  C21 K13 d          21.555  28.501  12.773  0.00  0.00     0.361 C 
ATOM     26  O22 K13 d          21.597  29.546  12.162  0.00  0.00    -0.238 OA
ATOM     27  H23 K13 d          20.793  27.248  14.118  0.00  0.00     0.165 HD
BRANCH  25  28
ATOM     28  O23 K13 d          22.534  27.480  12.530  0.00  0.00    -0.296 OA
BRANCH  28  29
ATOM     29  C24 K13 d          23.388  27.535  11.406  0.00  0.00     0.166 C 
ATOM     30  C25 K13 d          24.690  26.911  11.874  0.00  0.00     0.204 C 
ATOM     31  O26 K13 d          24.515  25.503  11.657  0.00  0.00    -0.358 OA
ATOM     32  C27 K13 d          23.551  25.283  10.626  0.00  0.00     0.266 C 
ATOM     33  O28 K13 d          22.499  24.435  11.071  0.00  0.00    -0.361 OA
ATOM     34  C31 K13 d          22.918  26.620  10.292  0.00  0.00     0.075 C 
ATOM     35  C29 K13 d          21.250  25.123  11.112  0.00  0.00     0.171 C 
ATOM     36  C30 K13 d          21.429  26.330  10.206  0.00  0.00     0.038 C 
ENDBRANCH  28  29
ENDBRANCH  25  28
ENDBRANCH  23  24
BRANCH  23  37
ATOM     37  C32 K13 d          18.267  28.153  14.040  0.00  0.00     0.066 C 
BRANCH  37  38
ATOM     38  C38 K13 d          18.038  27.742  12.595  0.00  0.00    -0.056 A 
ATOM     39  C33 K13 d          18.172  26.422  12.190  0.00  0.00     0.007 A 
ATOM     40  C34 K13 d          17.998  26.069  10.863  0.00  0.00     0.001 A 
ATOM     41  C35 K13 d          17.647  27.014   9.913  0.00  0.00     0.000 A 
ATOM     42  C36 K13 d          17.515  28.328  10.313  0.00  0.00     0.001 A 
ATOM     43  C37 K13 d          17.694  28.680  11.643  0.00  0.00     0.007 A 
ENDBRANCH  37  38
ENDBRANCH  23  37
ENDBRANCH   1  23
TORSDOF 15
