REMARK  4 active torsions:
REMARK  status: ('A' for Active; 'I' for Inactive)
REMARK    1  A    between atoms: N26_6  and  C5'_7 
REMARK    2  A    between atoms: C5'_7  and  C4'_8 
REMARK    3  A    between atoms: C3'_10  and  O3'_11 
REMARK    4  A    between atoms: C1'_13  and  N1_14 
ROOT
ATOM      1  C4' T3S d          39.470  -0.466  13.145  0.00  0.00     0.178 C 
ATOM      2  O4' T3S d          38.720  -1.362  12.259  0.00  0.00    -0.357 OA
ATOM      3  C3' T3S d          38.511   0.685  13.421  0.00  0.00     0.153 C 
ATOM      4  C2' T3S d          37.138   0.007  13.396  0.00  0.00     0.088 C 
ATOM      5  C1' T3S d          37.315  -0.937  12.213  0.00  0.00     0.235 C 
ENDROOT
BRANCH   5   6
ATOM      6  N1  T3S d          36.473  -2.158  12.290  0.00  0.00    -0.282 N 
ATOM      7  C6  T3S d          36.863  -3.219  13.131  0.00  0.00     0.110 A 
ATOM      8  C5  T3S d          36.096  -4.381  13.212  0.00  0.00     0.022 A 
ATOM      9  C5M T3S d          36.553  -5.517  14.138  0.00  0.00     0.056 C 
ATOM     10  C4  T3S d          34.930  -4.488  12.445  0.00  0.00     0.256 A 
ATOM     11  O4  T3S d          34.225  -5.498  12.494  0.00  0.00    -0.267 OA
ATOM     12  N3  T3S d          34.537  -3.437  11.602  0.00  0.00    -0.275 N 
ATOM     13  C2  T3S d          35.300  -2.263  11.513  0.00  0.00     0.331 A 
ATOM     14  H24 T3S d          33.703  -3.526  11.058  0.00  0.00     0.173 HD
ATOM     15  O2  T3S d          34.928  -1.346  10.777  0.00  0.00    -0.246 OA
ENDBRANCH   5   6
BRANCH   1  16
ATOM     16  C5' T3S d          39.882  -1.051  14.542  0.00  0.00     0.269 C 
BRANCH  16  17
ATOM     17  N26 T3S d          40.845  -2.194  14.531  0.00  0.00    -0.069 N 
ATOM     18  C21 T3S d          42.227  -1.716  14.753  0.00  0.00     0.235 C 
ATOM     19  C22 T3S d          43.125  -2.880  15.205  0.00  0.00     0.028 C 
ATOM     20  C23 T3S d          42.662  -4.236  14.633  0.00  0.00     0.003 C 
ATOM     21  C24 T3S d          41.914  -4.107  13.293  0.00  0.00     0.028 C 
ATOM     22  C25 T3S d          40.751  -3.093  13.350  0.00  0.00     0.235 C 
ATOM     23  H11 T3S d          40.606  -2.764  15.327  0.00  0.00     0.280 HD
ENDBRANCH  16  17
ENDBRANCH   1  16
BRANCH   3  24
ATOM     24  O3' T3S d          38.591   1.627  12.340  0.00  0.00    -0.393 OA
ATOM     25  H16 T3S d          37.995   2.348  12.505  0.00  0.00     0.210 HD
ENDBRANCH   3  24
TORSDOF 4
