REMARK  0 active torsions:
REMARK  status: ('A' for Active; 'I' for Inactive)
ROOT
ATOM      1  N1  IUR d          16.658  16.118  45.618  0.00  0.00    -0.209 NA
ATOM      2  C2  IUR d          15.490  16.715  46.171  0.00  0.00     0.348 A 
ATOM      3  O2  IUR d          14.844  17.611  45.688  0.00  0.00    -0.245 OA
ATOM      4  N3  IUR d          15.090  16.156  47.415  0.00  0.00    -0.276 N 
ATOM      5  C4  IUR d          15.707  15.110  48.151  0.00  0.00     0.244 A 
ATOM      6  O4  IUR d          15.239  14.737  49.224  0.00  0.00    -0.271 OA
ATOM      7  C5  IUR d          16.913  14.555  47.507  0.00  0.00     0.186 A 
ATOM      8  C6  IUR d          17.338  15.078  46.274  0.00  0.00     0.119 A 
ATOM      9  I5  IUR d          17.968  13.008  48.470  0.00  0.00    -0.069 I 
ATOM     10  H1  IUR d          14.268  16.550  47.825  0.00  0.00     0.173 HD
ENDROOT
TORSDOF 0
