REMARK  8 active torsions:
REMARK  status: ('A' for Active; 'I' for Inactive)
REMARK    1  A    between atoms: C6_6  and  C5_5 
REMARK    2  A    between atoms: C7_7  and  C6_6 
REMARK    3  A    between atoms: C24_24  and  C7_7 
REMARK    4  A    between atoms: C11_11  and  N12_12 
REMARK    5  A    between atoms: C17_17  and  N18_18 
REMARK    6  A    between atoms: C20_20  and  O21_21 
REMARK    7  A    between atoms: C22_22  and  O23_23 
REMARK    8  A    between atoms: C26_26  and  O27_27 
ROOT
ATOM      1  C1  MOL d           9.780  17.424  91.336  0.00  0.00     0.062 A 
ATOM      2  C2  MOL d          10.774  17.803  90.429  0.00  0.00     0.052 A 
ATOM      3  C3  MOL d          10.487  17.671  89.072  0.00  0.00     0.080 A 
ATOM      4  C4  MOL d           9.260  17.174  88.651  0.00  0.00     0.111 A 
ATOM      5  C5  MOL d           8.241  16.785  89.519  0.00  0.00     0.002 A 
ATOM      6  C8  MOL d           8.539  16.913  90.909  0.00  0.00     0.073 A 
ATOM      7  C9  MOL d          10.017  17.547  92.789  0.00  0.00     0.272 A 
ATOM      8  N10 MOL d           7.561  16.542  91.849  0.00  0.00    -0.190 N 
ATOM      9  C11 MOL d           7.789  16.674  93.115  0.00  0.00     0.679 A 
ATOM     10  N13 MOL d           8.974  17.168  93.595  0.00  0.00    -0.156 N 
ATOM     11  O14 MOL d          11.075  17.955  93.257  0.00  0.00    -0.267 OA
ATOM     12  N15 MOL d          11.264  18.003  88.000  0.00  0.00    -0.188 N 
ATOM     13  N16 MOL d           9.323  17.213  87.282  0.00  0.00    -0.062 NA
ATOM     14  C17 MOL d          10.555  17.708  86.935  0.00  0.00     0.701 A 
ATOM     15  H   MOL d           6.659  16.163  91.528  0.00  0.00     0.184 HD
ATOM     16  H   MOL d           9.084  17.257  94.585  0.00  0.00     0.187 HD
ATOM     17  H   MOL d          12.213  18.403  88.022  0.00  0.00     0.184 HD
ENDROOT
BRANCH   5  18
ATOM     18  C6  MOL d           6.944  16.207  88.996  0.00  0.00     0.046 C 
BRANCH  18  19
ATOM     19  C7  MOL d           5.984  17.191  88.390  0.00  0.00     0.039 C 
BRANCH  19  20
ATOM     20  C24 MOL d           4.660  16.524  88.036  0.00  0.00     0.156 C 
ATOM     21  C22 MOL d           4.721  15.665  86.768  0.00  0.00     0.180 C 
ATOM     22  C20 MOL d           3.348  15.963  86.181  0.00  0.00     0.204 C 
ATOM     23  C26 MOL d           3.260  17.475  86.418  0.00  0.00     0.290 C 
ATOM     24  O25 MOL d           3.775  17.630  87.742  0.00  0.00    -0.351 OA
BRANCH  21  25
ATOM     25  O23 MOL d           4.803  14.265  87.106  0.00  0.00    -0.390 OA
ATOM     26  H   MOL d           4.132  14.055  87.744  0.00  0.00     0.210 HD
ENDBRANCH  21  25
BRANCH  22  27
ATOM     27  O21 MOL d           2.329  15.242  86.845  0.00  0.00    -0.388 OA
ATOM     28  H   MOL d           2.495  14.310  86.761  0.00  0.00     0.210 HD
ENDBRANCH  22  27
BRANCH  23  29
ATOM     29  O27 MOL d           4.134  18.173  85.518  0.00  0.00    -0.363 OA
ATOM     30  C28 MOL d           4.069  19.594  85.689  0.00  0.00     0.204 C 
ENDBRANCH  23  29
ENDBRANCH  19  20
ENDBRANCH  18  19
ENDBRANCH   5  18
BRANCH  14  31
ATOM     31  N18 MOL d          10.920  17.889  85.659  0.00  0.00    -0.229 N 
ATOM     32  C19 MOL d           9.958  18.049  84.588  0.00  0.00     0.165 C 
ATOM     33  H   MOL d          11.924  17.915  85.430  0.00  0.00     0.177 HD
ENDBRANCH  14  31
BRANCH   9  34
ATOM     34  N12 MOL d           6.848  16.347  94.026  0.00  0.00    -0.234 N 
ATOM     35  H   MOL d           7.044  16.457  95.031  0.00  0.00     0.174 HD
ATOM     36  H   MOL d           5.934  15.987  93.716  0.00  0.00     0.174 HD
ENDBRANCH   9  34
TORSDOF 8
