REMARK  6 active torsions:
REMARK  status: ('A' for Active; 'I' for Inactive)
REMARK    1  A    between atoms: P4_4  and  O5_5 
REMARK    2  A    between atoms: O5_5  and  P8_8 
REMARK    3  A    between atoms: P8_8  and  O9_9 
REMARK    4  A    between atoms: O9_9  and  C10_10 
REMARK    5  A    between atoms: C10_10  and  C11_11 
REMARK    6  A    between atoms: C11_11  and  N12_12 
ROOT
ATOM      1  O6  DED d          -5.017  -1.514  19.203  0.00  0.00    -0.624 OA
ATOM      2  O7  DED d          -3.050  -2.965  18.266  0.00  0.00    -0.624 OA
ATOM      3  P8  DED d          -3.726  -2.300  19.389  0.00  0.00     0.418 P 
ENDROOT
BRANCH   3   4
ATOM      4  O5  DED d          -2.733  -1.328  20.210  0.00  0.00    -0.173 OA
BRANCH   4   5
ATOM      5  P4  DED d          -2.438   0.267  20.093  0.00  0.00     0.431 P 
ATOM      6  O1  DED d          -1.672   0.625  21.387  0.00  0.00    -0.616 OA
ATOM      7  O2  DED d          -3.721   1.069  19.963  0.00  0.00    -0.616 OA
ATOM      8  O3  DED d          -1.547   0.295  18.909  0.00  0.00    -0.616 OA
ENDBRANCH   4   5
ENDBRANCH   3   4
BRANCH   3   9
ATOM      9  O9  DED d          -4.054  -3.527  20.416  0.00  0.00    -0.288 OA
BRANCH   9  10
ATOM     10  C10 DED d          -4.459  -3.401  21.815  0.00  0.00     0.209 C 
BRANCH  10  11
ATOM     11  C11 DED d          -4.404  -4.701  22.653  0.00  0.00     0.260 C 
BRANCH  11  12
ATOM     12  N12 DED d          -4.610  -5.926  21.822  0.00  0.00    -0.077 N 
ATOM     13  C13 DED d          -5.897  -6.573  22.107  0.00  0.00     0.269 C 
ATOM     14  C14 DED d          -4.375  -5.928  20.375  0.00  0.00     0.269 C 
ATOM     15  H5  DED d          -3.909  -6.558  22.174  0.00  0.00     0.279 HD
ENDBRANCH  11  12
ENDBRANCH  10  11
ENDBRANCH   9  10
ENDBRANCH   3   9
TORSDOF 6
