REMARK  10 active torsions:
REMARK  status: ('A' for Active; 'I' for Inactive)
REMARK    1  A    between atoms: C1_1  and  C2_3 
REMARK       I    between atoms: C1_1  and  N_10 
REMARK    2  A    between atoms: C2_3  and  C3_6 
REMARK    3  A    between atoms: C2_3  and  CH_4 
REMARK    4  A    between atoms: CH_4  and  S_5 
REMARK    5  A    between atoms: C3_6  and  C4_7 
REMARK    6  A    between atoms: N_10  and  CA_11 
REMARK    7  A    between atoms: CA_11  and  C_12 
REMARK    8  A    between atoms: CA_11  and  CB_14 
REMARK    9  A    between atoms: CB_14  and  CG_15 
REMARK   10  A    between atoms: CZ_20  and  OH_21 
ROOT
ATOM      1  CA  SLE d          -3.903  25.628  46.508  0.00  0.00     0.189 C 
ENDROOT
BRANCH   1   2
ATOM      2  C   SLE d          -5.129  25.899  45.622  0.00  0.00     0.197 C 
ATOM      3  OXT SLE d          -5.614  24.933  45.003  0.00  0.00    -0.646 OA
ATOM      4  O   SLE d          -5.656  27.022  45.604  0.00  0.00    -0.646 OA
ENDBRANCH   1   2
BRANCH   1   5
ATOM      5  CB  SLE d          -2.598  26.175  45.903  0.00  0.00     0.074 C 
BRANCH   5   6
ATOM      6  CG  SLE d          -2.056  25.446  44.690  0.00  0.00    -0.056 A 
ATOM      7  CD2 SLE d          -0.926  25.920  44.022  0.00  0.00     0.010 A 
ATOM      8  CE2 SLE d          -0.447  25.292  42.896  0.00  0.00     0.037 A 
ATOM      9  CZ  SLE d          -1.094  24.160  42.418  0.00  0.00     0.068 A 
ATOM     10  CE1 SLE d          -2.212  23.672  43.065  0.00  0.00     0.037 A 
ATOM     11  CD1 SLE d          -2.683  24.312  44.191  0.00  0.00     0.010 A 
BRANCH   9  12
ATOM     12  OH  SLE d          -0.640  23.497  41.291  0.00  0.00    -0.356 OA
ATOM     13  C   SLE d          -1.170  23.288  39.981  0.00  0.00     0.210 C 
ENDBRANCH   9  12
ENDBRANCH   5   6
ENDBRANCH   1   5
BRANCH   1  14
ATOM     14  N   SLE d          -3.781  24.202  46.759  0.00  0.00    -0.346 N 
ATOM     15  C1  SLE d          -2.897  23.689  47.603  0.00  0.00     0.223 C 
ATOM     16  O1  SLE d          -2.120  24.384  48.273  0.00  0.00    -0.273 OA
ATOM     17  H14 SLE d          -4.393  23.578  46.272  0.00  0.00     0.163 HD
BRANCH  15  18
ATOM     18  C2  SLE d          -2.954  22.157  47.744  0.00  0.00     0.087 C 
BRANCH  18  19
ATOM     19  C3  SLE d          -3.788  21.784  48.978  0.00  0.00     0.018 C 
BRANCH  19  20
ATOM     20  C4  SLE d          -5.115  22.533  49.211  0.00  0.00    -0.022 C 
ATOM     21  C5  SLE d          -6.126  22.229  48.099  0.00  0.00     0.009 C 
ATOM     22  CM  SLE d          -5.687  22.163  50.584  0.00  0.00     0.009 C 
ENDBRANCH  19  20
ENDBRANCH  18  19
BRANCH  18  23
ATOM     23  CH  SLE d          -1.561  21.541  47.897  0.00  0.00     0.084 C 
BRANCH  23  24
ATOM     24  S   SLE d          -0.594  21.425  46.361  0.00  0.00    -0.181 SA
ATOM     25  H4  SLE d           0.302  21.009  46.560  0.00  0.00     0.101 HD
ENDBRANCH  23  24
ENDBRANCH  18  23
ENDBRANCH  15  18
ENDBRANCH   1  14
TORSDOF 10
