REMARK  18 active torsions:
REMARK  status: ('A' for Active; 'I' for Inactive)
REMARK    1  A    between atoms: PA_1  and  O3A_4 
REMARK    2  A    between atoms: O5D_21  and  PA_1 
REMARK    3  A    between atoms: O3A_4  and  PB_5 
REMARK    4  A    between atoms: PB_5  and  O3B_8 
REMARK    5  A    between atoms: O3B_8  and  PG_30 
REMARK    6  A    between atoms: C1D_29  and  N9A_9 
REMARK    7  A    between atoms: C2A_17  and  N2A_18 
REMARK    8  A    between atoms: C5D_22  and  O5D_21 
REMARK    9  A    between atoms: C4D_23  and  C5D_22 
REMARK   10  A    between atoms: C3D_25  and  O3D_26 
REMARK   11  A    between atoms: C2D_27  and  O2D_28 
REMARK   12  A    between atoms: PG_30  and  O5E_33 
REMARK   13  A    between atoms: O5E_33  and  C5E_34 
REMARK   14  A    between atoms: C5E_34  and  C4E_35 
REMARK   15  A    between atoms: C3E_37  and  O3E_38 
REMARK   16  A    between atoms: C2E_39  and  O2E_40 
REMARK   17  A    between atoms: C1E_41  and  N9B_42 
REMARK   18  A    between atoms: C2B_49  and  N2B_50 
ROOT
ATOM      1  PB  GTG d          20.784   3.672 -23.660  0.00  0.00     0.427 P 
ATOM      2  O1B GTG d          22.165   3.944 -22.828  0.00  0.00    -0.624 OA
ATOM      3  O2B GTG d          21.181   2.979 -24.878  0.00  0.00    -0.624 OA
ENDROOT
BRANCH   1   4
ATOM      4  O3A GTG d          19.845   2.575 -22.778  0.00  0.00    -0.180 OA
BRANCH   4   5
ATOM      5  PA  GTG d          18.907   3.218 -21.564  0.00  0.00     0.417 P 
ATOM      6  O1A GTG d          18.793   2.066 -20.631  0.00  0.00    -0.624 OA
ATOM      7  O2A GTG d          17.399   3.605 -22.012  0.00  0.00    -0.624 OA
BRANCH   5   8
ATOM      8  O5D GTG d          19.604   4.358 -20.617  0.00  0.00    -0.287 OA
BRANCH   8   9
ATOM      9  C5D GTG d          18.578   4.970 -19.776  0.00  0.00     0.216 C 
BRANCH   9  10
ATOM     10  C4D GTG d          19.193   5.642 -18.535  0.00  0.00     0.180 C 
ATOM     11  O4D GTG d          20.387   6.427 -18.545  0.00  0.00    -0.353 OA
ATOM     12  C1D GTG d          20.494   6.332 -17.109  0.00  0.00     0.262 C 
ATOM     13  C2D GTG d          19.233   7.071 -16.610  0.00  0.00     0.198 C 
ATOM     14  C3D GTG d          18.228   6.500 -17.654  0.00  0.00     0.182 C 
BRANCH  12  15
ATOM     15  N9A GTG d          21.757   6.564 -16.418  0.00  0.00    -0.296 N 
ATOM     16  C8A GTG d          21.996   6.153 -15.143  0.00  0.00     0.190 A 
ATOM     17  N7A GTG d          23.192   6.449 -14.777  0.00  0.00    -0.340 N 
ATOM     18  C7X GTG d          23.754   6.129 -13.480  0.00  0.00     0.157 C 
ATOM     19  C5A GTG d          23.829   7.075 -15.797  0.00  0.00     0.149 A 
ATOM     20  C6A GTG d          25.146   7.626 -15.990  0.00  0.00     0.290 A 
ATOM     21  C4A GTG d          22.898   7.168 -16.872  0.00  0.00     0.159 A 
ATOM     22  O6A GTG d          25.988   7.570 -15.104  0.00  0.00    -0.265 OA
ATOM     23  N1A GTG d          25.443   8.206 -17.204  0.00  0.00    -0.154 N 
ATOM     24  C2A GTG d          24.494   8.266 -18.213  0.00  0.00     0.680 A 
ATOM     25  H5  GTG d          26.354   8.588 -17.359  0.00  0.00     0.187 HD
ATOM     26  N3A GTG d          23.268   7.757 -18.045  0.00  0.00    -0.174 N 
ATOM     27  H8  GTG d          22.589   7.811 -18.818  0.00  0.00     0.186 HD
BRANCH  24  28
ATOM     28  N2A GTG d          24.817   8.852 -19.411  0.00  0.00    -0.234 N 
ATOM     29  H6  GTG d          24.118   8.901 -20.166  0.00  0.00     0.174 HD
ATOM     30  H7  GTG d          25.759   9.243 -19.556  0.00  0.00     0.174 HD
ENDBRANCH  24  28
ENDBRANCH  12  15
BRANCH  13  31
ATOM     31  O2D GTG d          18.845   6.768 -15.262  0.00  0.00    -0.388 OA
ATOM     32  H15 GTG d          18.805   5.825 -15.149  0.00  0.00     0.210 HD
ENDBRANCH  13  31
BRANCH  14  33
ATOM     33  O3D GTG d          17.141   5.765 -17.091  0.00  0.00    -0.390 OA
ATOM     34  H13 GTG d          17.482   5.072 -16.538  0.00  0.00     0.210 HD
ENDBRANCH  14  33
ENDBRANCH   9  10
ENDBRANCH   8   9
ENDBRANCH   5   8
ENDBRANCH   4   5
ENDBRANCH   1   4
BRANCH   1  35
ATOM     35  O3B GTG d          20.038   5.152 -24.219  0.00  0.00    -0.180 OA
BRANCH  35  36
ATOM     36  PG  GTG d          19.999   5.306 -25.762  0.00  0.00     0.417 P 
ATOM     37  O1G GTG d          21.484   4.876 -26.493  0.00  0.00    -0.624 OA
ATOM     38  O2G GTG d          18.880   4.501 -26.394  0.00  0.00    -0.624 OA
BRANCH  36  39
ATOM     39  O5E GTG d          20.073   6.905 -26.134  0.00  0.00    -0.287 OA
BRANCH  39  40
ATOM     40  C5E GTG d          19.645   7.164 -27.493  0.00  0.00     0.216 C 
BRANCH  40  41
ATOM     41  C4E GTG d          19.835   8.641 -27.648  0.00  0.00     0.180 C 
ATOM     42  O4E GTG d          21.163   8.708 -28.403  0.00  0.00    -0.353 OA
ATOM     43  C1E GTG d          21.246   9.736 -29.527  0.00  0.00     0.262 C 
ATOM     44  C2E GTG d          19.761   9.773 -29.904  0.00  0.00     0.198 C 
ATOM     45  C3E GTG d          18.991   9.292 -28.708  0.00  0.00     0.182 C 
BRANCH  43  46
ATOM     46  N9B GTG d          21.688   9.403 -30.911  0.00  0.00    -0.295 N 
ATOM     47  C8B GTG d          22.050   8.205 -31.452  0.00  0.00     0.214 A 
ATOM     48  N7B GTG d          22.281   8.364 -32.746  0.00  0.00    -0.234 NA
ATOM     49  C5B GTG d          22.078   9.686 -33.094  0.00  0.00     0.171 A 
ATOM     50  C6B GTG d          22.136  10.466 -34.328  0.00  0.00     0.292 A 
ATOM     51  C4B GTG d          21.727  10.362 -31.914  0.00  0.00     0.161 A 
ATOM     52  O6B GTG d          22.408   9.943 -35.407  0.00  0.00    -0.265 OA
ATOM     53  N1B GTG d          21.871  11.818 -34.272  0.00  0.00    -0.154 N 
ATOM     54  C2B GTG d          21.553  12.415 -33.069  0.00  0.00     0.680 A 
ATOM     55  H26 GTG d          21.909  12.368 -35.106  0.00  0.00     0.187 HD
ATOM     56  N3B GTG d          21.472  11.703 -31.938  0.00  0.00    -0.174 N 
ATOM     57  H29 GTG d          21.210  12.180 -31.063  0.00  0.00     0.186 HD
BRANCH  54  58
ATOM     58  N2B GTG d          21.312  13.770 -33.030  0.00  0.00    -0.234 N 
ATOM     59  H27 GTG d          21.074  14.225 -32.137  0.00  0.00     0.174 HD
ATOM     60  H28 GTG d          21.370  14.328 -33.894  0.00  0.00     0.174 HD
ENDBRANCH  54  58
ENDBRANCH  43  46
BRANCH  44  61
ATOM     61  O2E GTG d          19.348  11.107 -30.249  0.00  0.00    -0.388 OA
ATOM     62  H23 GTG d          19.513  11.688 -29.516  0.00  0.00     0.210 HD
ENDBRANCH  44  61
BRANCH  45  63
ATOM     63  O3E GTG d          18.529  10.433 -27.969  0.00  0.00    -0.390 OA
ATOM     64  H21 GTG d          17.965  10.960 -28.523  0.00  0.00     0.210 HD
ENDBRANCH  45  63
ENDBRANCH  40  41
ENDBRANCH  39  40
ENDBRANCH  36  39
ENDBRANCH  35  36
ENDBRANCH   1  35
TORSDOF 18
