REMARK  7 active torsions:
REMARK  status: ('A' for Active; 'I' for Inactive)
REMARK    1  A    between atoms: C1_1  and  C2_4 
REMARK    2  A    between atoms: C4_6  and  N4_20 
REMARK    3  A    between atoms: C5_7  and  N5_8 
REMARK       I    between atoms: N5_8  and  C10_9 
REMARK    4  A    between atoms: C6_12  and  O7_14 
REMARK    5  A    between atoms: O7_14  and  C8_15 
REMARK    6  A    between atoms: C8_15  and  C9_16 
REMARK    7  A    between atoms: C8_15  and  C81_17 
ROOT
ATOM      1  C2  G39 d         -22.005  90.567  12.432  0.00  0.00     0.019 C 
ATOM      2  C3  G39 d         -22.666  90.004  13.670  0.00  0.00     0.080 C 
ATOM      3  C4  G39 d         -21.661  89.235  14.544  0.00  0.00     0.213 C 
ATOM      4  C5  G39 d         -20.415  90.082  14.813  0.00  0.00     0.147 C 
ATOM      5  C6  G39 d         -19.707  90.390  13.506  0.00  0.00     0.170 C 
ATOM      6  C7  G39 d         -20.672  90.788  12.398  0.00  0.00     0.021 C 
ENDROOT
BRANCH   5   7
ATOM      7  O7  G39 d         -18.766  91.450  13.737  0.00  0.00    -0.375 OA
BRANCH   7   8
ATOM      8  C8  G39 d         -17.413  91.158  13.354  0.00  0.00     0.121 C 
BRANCH   8   9
ATOM      9  C9  G39 d         -17.182  91.451  11.870  0.00  0.00     0.027 C 
ATOM     10  C91 G39 d         -17.835  92.756  11.460  0.00  0.00     0.007 C 
ENDBRANCH   8   9
BRANCH   8  11
ATOM     11  C81 G39 d         -16.479  91.987  14.224  0.00  0.00     0.027 C 
ATOM     12  C82 G39 d         -17.114  93.279  14.695  0.00  0.00     0.007 C 
ENDBRANCH   8  11
ENDBRANCH   7   8
ENDBRANCH   5   7
BRANCH   4  13
ATOM     13  N5  G39 d         -19.484  89.371  15.673  0.00  0.00    -0.352 N 
ATOM     14  C10 G39 d         -19.025  89.799  16.860  0.00  0.00     0.214 C 
ATOM     15  O10 G39 d         -19.291  90.871  17.360  0.00  0.00    -0.274 OA
ATOM     16  C11 G39 d         -18.087  88.876  17.575  0.00  0.00     0.117 C 
ATOM     17  H   G39 d         -19.156  88.483  15.352  0.00  0.00     0.163 HD
ENDBRANCH   4  13
BRANCH   3  18
ATOM     18  N4  G39 d         -22.291  88.869  15.798  0.00  0.00    -0.073 N 
ATOM     19  H   G39 d         -23.110  88.312  15.612  0.00  0.00     0.274 HD
ATOM     20  H   G39 d         -22.558  89.704  16.296  0.00  0.00     0.274 HD
ATOM     21  H   G39 d         -21.642  88.337  16.357  0.00  0.00     0.274 HD
ENDBRANCH   3  18
BRANCH   1  22
ATOM     22  C1  G39 d         -22.795  90.825  11.208  0.00  0.00     0.205 C 
ATOM     23  O1A G39 d         -24.035  90.653  11.201  0.00  0.00    -0.644 OA
ATOM     24  O1B G39 d         -22.198  91.221  10.176  0.00  0.00    -0.644 OA
ENDBRANCH   1  22
TORSDOF 7
