REMARK  7 active torsions:
REMARK  status: ('A' for Active; 'I' for Inactive)
REMARK       I    between atoms: C17_2  and  N16_3 
REMARK       I    between atoms: C17_2  and  N18_20 
REMARK    1  A    between atoms: N16_3  and  C10_4 
REMARK    2  A    between atoms: C9_6  and  C12_7 
REMARK    3  A    between atoms: N7_12  and  C4_13 
REMARK    4  A    between atoms: N18_20  and  C19_21 
REMARK    5  A    between atoms: C19_21  and  C20_22 
REMARK    6  A    between atoms: C20_22  and  C21_23 
REMARK    7  A    between atoms: C21_23  and  N22_24 
ROOT
ATOM      1  C10 MOL d         -39.439  22.021 104.665  0.00  0.00     0.135 A 
ATOM      2  C11 MOL d         -38.961  23.299 104.876  0.00  0.00     0.080 A 
ATOM      3  C9  MOL d         -38.013  23.102 105.883  0.00  0.00     0.066 A 
ATOM      4  N8  MOL d         -37.948  21.808 106.207  0.00  0.00    -0.169 NA
ATOM      5  N7  MOL d         -38.775  21.183 105.512  0.00  0.00    -0.217 N 
ENDROOT
BRANCH   1   6
ATOM      6  N16 MOL d         -40.354  21.585 103.652  0.00  0.00    -0.293 N 
ATOM      7  C17 MOL d         -40.388  22.093 102.352  0.00  0.00     0.321 C 
ATOM      8  O28 MOL d         -39.737  23.065 102.039  0.00  0.00    -0.247 OA
ATOM      9  N18 MOL d         -41.274  21.512 101.438  0.00  0.00    -0.343 N 
ATOM     10  H19 MOL d         -41.908  20.802 101.744  0.00  0.00     0.164 HD
ATOM     11  H1  MOL d         -41.011  20.870 103.892  0.00  0.00     0.172 HD
BRANCH   9  12
ATOM     12  C19 MOL d         -41.280  21.939 100.026  0.00  0.00     0.126 C 
BRANCH  12  13
ATOM     13  C20 MOL d         -42.071  23.200  99.763  0.00  0.00     0.047 C 
BRANCH  13  14
ATOM     14  C21 MOL d         -42.467  23.202  98.262  0.00  0.00     0.236 C 
BRANCH  14  15
ATOM     15  N22 MOL d         -42.373  24.533  97.643  0.00  0.00    -0.067 N 
ATOM     16  C27 MOL d         -43.449  25.424  98.112  0.00  0.00     0.261 C 
ATOM     17  C26 MOL d         -43.353  26.750  97.349  0.00  0.00     0.195 C 
ATOM     18  O24 MOL d         -43.400  26.552  95.928  0.00  0.00    -0.388 OA
ATOM     19  C23 MOL d         -42.338  25.738  95.452  0.00  0.00     0.195 C 
ATOM     20  C25 MOL d         -42.403  24.380  96.163  0.00  0.00     0.261 C 
ATOM     21  H26 MOL d         -41.491  24.945  97.904  0.00  0.00     0.280 HD
ENDBRANCH  14  15
ENDBRANCH  13  14
ENDBRANCH  12  13
ENDBRANCH   9  12
ENDBRANCH   1   6
BRANCH   5  22
ATOM     22  C4  MOL d         -38.896  19.726 105.564  0.00  0.00     0.060 A 
ATOM     23  C2  MOL d         -38.881  19.092 106.804  0.00  0.00     0.032 A 
ATOM     24  C1  MOL d         -38.900  17.704 106.879  0.00  0.00     0.009 A 
ATOM     25  C3  MOL d         -38.895  16.945 105.713  0.00  0.00    -0.062 A 
ATOM     26  C5  MOL d         -38.865  17.572 104.470  0.00  0.00     0.009 A 
ATOM     27  C29 MOL d         -38.933  15.433 105.798  0.00  0.00     0.048 C 
ATOM     28  C6  MOL d         -38.833  18.959 104.392  0.00  0.00     0.032 A 
ENDBRANCH   5  22
BRANCH   3  29
ATOM     29  C12 MOL d         -37.164  24.173 106.555  0.00  0.00    -0.005 C 
ATOM     30  C15 MOL d         -36.783  25.244 105.545  0.00  0.00     0.021 C 
ATOM     31  C14 MOL d         -35.890  23.558 107.154  0.00  0.00     0.021 C 
ATOM     32  C13 MOL d         -37.985  24.799 107.678  0.00  0.00     0.021 C 
ENDBRANCH   3  29
TORSDOF 7
