REMARK  16 active torsions:
REMARK  status: ('A' for Active; 'I' for Inactive)
REMARK    1  A    between atoms: C2_2  and  C1_1 
REMARK    2  A    between atoms: O6_32  and  C2_2 
REMARK    3  A    between atoms: C4_4  and  O4_15 
REMARK    4  A    between atoms: C5_5  and  N5_12 
REMARK    5  A    between atoms: C6_6  and  C7_7 
REMARK    6  A    between atoms: C7_7  and  C8_8 
REMARK    7  A    between atoms: C7_7  and  O7_17 
REMARK    8  A    between atoms: C8_8  and  C9_9 
REMARK    9  A    between atoms: C8_8  and  O8_18 
REMARK   10  A    between atoms: C9_9  and  O9_19 
REMARK       I    between atoms: N5_12  and  C10_10 
REMARK   11  A    between atoms: C1_21  and  O1_27 
REMARK   12  A    between atoms: C2_22  and  O2_28 
REMARK   13  A    between atoms: C3_23  and  O3_29 
REMARK   14  A    between atoms: C4_24  and  O4_30 
REMARK   15  A    between atoms: C6_26  and  C5_25 
REMARK   16  A    between atoms: C6_26  and  O6_32 
ROOT
ATOM      1  C2  SIA d         -26.567  -0.400  12.551  0.00  0.00     0.258 C 
ATOM      2  C3  SIA d         -27.332   0.586  11.677  0.00  0.00     0.114 C 
ATOM      3  C4  SIA d         -26.748   1.989  11.797  0.00  0.00     0.149 C 
ATOM      4  C5  SIA d         -25.235   1.969  11.616  0.00  0.00     0.145 C 
ATOM      5  C6  SIA d         -24.595   0.897  12.492  0.00  0.00     0.182 C 
ATOM      6  O6  SIA d         -25.184  -0.368  12.203  0.00  0.00    -0.336 OA
ENDROOT
BRANCH   1   7
ATOM      7  C1  SIA d         -26.729  -0.018  13.999  0.00  0.00     0.239 C 
ATOM      8  O1A SIA d         -25.702   0.114  14.700  0.00  0.00    -0.644 OA
ATOM      9  O1B SIA d         -27.884   0.153  14.445  0.00  0.00    -0.644 OA
ENDBRANCH   1   7
BRANCH   1  10
ATOM     10  O6  SIA d         -27.179  -1.692  12.367  0.00  0.00    -0.344 OA
BRANCH  10  11
ATOM     11  C6  SIA d         -26.177  -2.715  12.371  0.00  0.00     0.207 C 
BRANCH  11  12
ATOM     12  C5  SIA d         -26.842  -4.077  12.209  0.00  0.00     0.180 C 
ATOM     13  C4  SIA d         -27.379  -4.585  13.541  0.00  0.00     0.180 C 
ATOM     14  C3  SIA d         -27.975  -5.976  13.396  0.00  0.00     0.183 C 
ATOM     15  C2  SIA d         -27.016  -6.905  12.663  0.00  0.00     0.204 C 
ATOM     16  C1  SIA d         -26.501  -6.261  11.383  0.00  0.00     0.288 C 
ATOM     17  O5  SIA d         -25.895  -5.010  11.691  0.00  0.00    -0.349 OA
BRANCH  13  18
ATOM     18  O4  SIA d         -26.316  -4.620  14.501  0.00  0.00    -0.390 OA
ATOM     19  H28 SIA d         -26.651  -4.937  15.332  0.00  0.00     0.210 HD
ENDBRANCH  13  18
BRANCH  14  20
ATOM     20  O3  SIA d         -28.260  -6.511  14.693  0.00  0.00    -0.390 OA
ATOM     21  H27 SIA d         -27.456  -6.561  15.197  0.00  0.00     0.210 HD
ENDBRANCH  14  20
BRANCH  15  22
ATOM     22  O2  SIA d         -27.688  -8.129  12.344  0.00  0.00    -0.388 OA
ATOM     23  H26 SIA d         -27.089  -8.708  11.887  0.00  0.00     0.210 HD
ENDBRANCH  15  22
BRANCH  16  24
ATOM     24  O1  SIA d         -25.532  -7.122  10.773  0.00  0.00    -0.369 OA
ATOM     25  H25 SIA d         -25.936  -7.957  10.568  0.00  0.00     0.212 HD
ENDBRANCH  16  24
ENDBRANCH  11  12
ENDBRANCH  10  11
ENDBRANCH   1  10
BRANCH   3  26
ATOM     26  O4  SIA d         -27.335   2.837  10.804  0.00  0.00    -0.393 OA
ATOM     27  H14 SIA d         -28.278   2.849  10.917  0.00  0.00     0.210 HD
ENDBRANCH   3  26
BRANCH   5  28
ATOM     28  C7  SIA d         -23.091   0.823  12.253  0.00  0.00     0.180 C 
BRANCH  28  29
ATOM     29  C8  SIA d         -22.462  -0.296  13.072  0.00  0.00     0.173 C 
BRANCH  29  30
ATOM     30  C9  SIA d         -20.941  -0.215  13.032  0.00  0.00     0.198 C 
BRANCH  30  31
ATOM     31  O9  SIA d         -20.385  -1.475  13.426  0.00  0.00    -0.398 OA
ATOM     32  H17 SIA d         -19.437  -1.423  13.401  0.00  0.00     0.209 HD
ENDBRANCH  30  31
ENDBRANCH  29  30
BRANCH  29  33
ATOM     33  O8  SIA d         -22.909  -0.204  14.429  0.00  0.00    -0.391 OA
ATOM     34  H16 SIA d         -23.857  -0.255  14.453  0.00  0.00     0.210 HD
ENDBRANCH  29  33
ENDBRANCH  28  29
BRANCH  28  35
ATOM     35  O7  SIA d         -22.840   0.595  10.861  0.00  0.00    -0.390 OA
ATOM     36  H15 SIA d         -23.233   1.294  10.351  0.00  0.00     0.210 HD
ENDBRANCH  28  35
ENDBRANCH   5  28
BRANCH   4  37
ATOM     37  N5  SIA d         -24.680   3.268  11.939  0.00  0.00    -0.352 N 
ATOM     38  C10 SIA d         -23.718   3.815  11.202  0.00  0.00     0.214 C 
ATOM     39  C11 SIA d         -23.363   5.232  11.544  0.00  0.00     0.117 C 
ATOM     40  O10 SIA d         -23.160   3.205  10.305  0.00  0.00    -0.274 OA
ATOM     41  H13 SIA d         -25.028   3.764  12.734  0.00  0.00     0.163 HD
ENDBRANCH   4  37
TORSDOF 16
