REMARK  12 active torsions:
REMARK  status: ('A' for Active; 'I' for Inactive)
REMARK       I    between atoms: C12_13  and  N2_3 
REMARK    1  A    between atoms: N2_3  and  C13_14 
REMARK    2  A    between atoms: O2_4  and  C21_22 
REMARK    3  A    between atoms: C45_43  and  O2_4 
REMARK       I    between atoms: C16_17  and  N3_6 
REMARK       I    between atoms: C20_21  and  N4_8 
REMARK    4  A    between atoms: N4_8  and  C31_31 
REMARK    5  A    between atoms: C14_15  and  O5_10 
REMARK    6  A    between atoms: C35_35  and  O7_11 
REMARK    7  A    between atoms: C21_22  and  C12_13 
REMARK    8  A    between atoms: C13_14  and  C14_15 
REMARK    9  A    between atoms: C13_14  and  C15_16 
REMARK   10  A    between atoms: C14_15  and  C16_17 
REMARK   11  A    between atoms: C15_16  and  C22_23 
REMARK   12  A    between atoms: C17_18  and  C20_21 
ROOT
ATOM      1  C14 JZP d          15.039  23.323  18.562  0.00  0.00     0.233 C 
ENDROOT
BRANCH   1   2
ATOM      2  O5  JZP d          13.917  24.207  18.624  0.00  0.00    -0.384 OA
ATOM      3  H3  JZP d          13.879  24.724  17.828  0.00  0.00     0.210 HD
ENDBRANCH   1   2
BRANCH   1   4
ATOM      4  C13 JZP d          14.922  22.378  17.364  0.00  0.00     0.126 C 
BRANCH   4   5
ATOM      5  N2  JZP d          14.157  21.208  17.771  0.00  0.00    -0.351 N 
ATOM      6  C12 JZP d          14.757  20.067  18.129  0.00  0.00     0.242 C 
ATOM      7  O8  JZP d          15.966  19.943  18.229  0.00  0.00    -0.271 OA
ATOM      8  H1  JZP d          13.158  21.259  17.783  0.00  0.00     0.163 HD
BRANCH   6   9
ATOM      9  C21 JZP d          13.883  18.869  18.416  0.00  0.00     0.278 C 
BRANCH   9  10
ATOM     10  O2  JZP d          12.522  19.222  18.671  0.00  0.00    -0.339 OA
BRANCH  10  11
ATOM     11  C45 JZP d          11.604  18.203  18.676  0.00  0.00     0.112 A 
ATOM     12  C42 JZP d          11.410  17.351  19.871  0.00  0.00     0.069 A 
ATOM     13 CL1  JZP d          12.361  17.669  21.357  0.00  0.00    -0.081 Cl
ATOM     14  C41 JZP d          10.472  16.322  19.820  0.00  0.00     0.027 A 
ATOM     15  C40 JZP d           9.725  16.070  18.666  0.00  0.00     0.003 A 
ATOM     16  C47 JZP d           9.877  16.843  17.510  0.00  0.00     0.027 A 
ATOM     17  C46 JZP d          10.792  17.895  17.476  0.00  0.00     0.069 A 
ATOM     18 CL2  JZP d          10.994  18.888  16.005  0.00  0.00    -0.081 Cl
ENDBRANCH  10  11
ENDBRANCH   9  10
ENDBRANCH   6   9
ENDBRANCH   4   5
BRANCH   4  19
ATOM     19  C15 JZP d          14.341  23.038  16.109  0.00  0.00     0.066 C 
BRANCH  19  20
ATOM     20  C22 JZP d          13.962  21.986  15.095  0.00  0.00    -0.056 A 
ATOM     21  C23 JZP d          14.949  21.249  14.436  0.00  0.00     0.007 A 
ATOM     22  C24 JZP d          14.582  20.276  13.506  0.00  0.00     0.001 A 
ATOM     23  C25 JZP d          13.234  20.037  13.239  0.00  0.00     0.000 A 
ATOM     24  C26 JZP d          12.249  20.775  13.897  0.00  0.00     0.001 A 
ATOM     25  C27 JZP d          12.614  21.749  14.825  0.00  0.00     0.007 A 
ENDBRANCH  19  20
ENDBRANCH   4  19
ENDBRANCH   1   4
BRANCH   1  26
ATOM     26  C16 JZP d          16.317  24.122  18.525  0.00  0.00     0.252 C 
ATOM     27  N3  JZP d          17.387  23.612  19.152  0.00  0.00    -0.326 N 
ATOM     28  C17 JZP d          18.646  24.377  19.220  0.00  0.00     0.198 C 
ATOM     29  C19 JZP d          17.467  22.301  19.811  0.00  0.00     0.201 C 
ATOM     30  C18 JZP d          19.550  23.830  20.326  0.00  0.00     0.032 C 
ATOM     31  S1  JZP d          19.090  22.147  20.452  0.00  0.00    -0.137 SA
ATOM     32  C29 JZP d          21.049  23.930  20.056  0.00  0.00     0.029 C 
ATOM     33  C30 JZP d          19.237  24.523  21.631  0.00  0.00     0.029 C 
ATOM     34  O3  JZP d          16.331  25.197  17.942  0.00  0.00    -0.270 OA
BRANCH  28  35
ATOM     35  C20 JZP d          19.345  24.426  17.885  0.00  0.00     0.242 C 
ATOM     36  N4  JZP d          19.923  25.587  17.557  0.00  0.00    -0.348 N 
ATOM     37  H2  JZP d          19.749  26.388  18.131  0.00  0.00     0.163 HD
ATOM     38  O4  JZP d          19.353  23.437  17.167  0.00  0.00    -0.271 OA
BRANCH  36  39
ATOM     39  C31 JZP d          20.792  25.733  16.403  0.00  0.00     0.147 C 
ATOM     40  C32 JZP d          20.066  26.275  15.242  0.00  0.00    -0.027 A 
ATOM     41  C33 JZP d          18.885  25.813  14.675  0.00  0.00     0.010 A 
ATOM     42  C36 JZP d          20.759  27.437  14.684  0.00  0.00    -0.047 A 
ATOM     43  C34 JZP d          18.392  26.504  13.563  0.00  0.00     0.001 A 
ATOM     44  C38 JZP d          19.057  27.621  13.031  0.00  0.00     0.001 A 
ATOM     45  C37 JZP d          20.249  28.108  13.582  0.00  0.00     0.008 A 
ATOM     46  C39 JZP d          22.008  27.746  15.461  0.00  0.00     0.073 C 
ATOM     47  C35 JZP d          21.907  26.766  16.641  0.00  0.00     0.149 C 
BRANCH  47  48
ATOM     48  O7  JZP d          21.627  27.514  17.827  0.00  0.00    -0.393 OA
ATOM     49  H4  JZP d          22.318  28.150  17.969  0.00  0.00     0.210 HD
ENDBRANCH  47  48
ENDBRANCH  36  39
ENDBRANCH  28  35
ENDBRANCH   1  26
TORSDOF 12
