2jfh_ligand

Created by X-TOOL on Fri Sep 26 17:34:38 2014
 49 50  0  0  0  0  0  0  0  0999 V2000
   21.9100   -4.5900   18.4290  O 0  0  0  1  0  1
   21.8960   -4.2890   19.8140  S 0  0  0  1  0  4
   21.6840   -5.4490   20.5860  O 0  0  0  1  0  1
   23.2680   -3.6380   20.3080  N 0  0  0  2  0  3
   24.6290   -3.8380   19.8440  C 0  0  0  2  0  4
   25.3050   -5.1450   20.2270  C 0  5  0  1  0  3
   25.6270   -5.3590   21.3890  O 0  0  0  1  0  1
   25.3980   -5.9360   19.2930  O 0  0  0  1  0  1
   25.4110   -2.6580   20.4150  C 0  0  0  3  0  4
   26.7770   -2.5710   19.7860  C 0  0  0  3  0  4
   27.4540   -1.3150   20.2360  C 0  5  0  1  0  3
   27.9500   -1.3150   21.3630  O 0  0  0  1  0  1
   27.4870   -0.3600   19.4490  O 0  0  0  1  0  1
   20.8230   -3.1900   20.1820  C 0  0  0  1  0  3
   20.5440   -3.0640   21.5230  C 0  0  0  2  0  3
   19.6630   -2.1230   22.0020  C 0  0  0  2  0  3
   19.0480   -1.2710   21.1090  C 0  0  0  1  0  3
   18.1580   -0.3560   21.6070  C 0  0  0  2  0  3
   17.5430    0.5350   20.7710  C 0  0  0  1  0  3
   17.7780    0.4820   19.4000  C 0  0  0  2  0  3
   18.6650   -0.4600   18.8950  C 0  0  0  2  0  3
   19.3190   -1.3500   19.7510  C 0  0  0  1  0  3
   20.2190   -2.3190   19.2720  C 0  0  0  2  0  3
   16.6610    1.4250   21.3000  O 0  0  0  1  0  2
   15.4310    1.5780   20.6070  C 0  0  0  3  0  4
   14.3090    0.8080   21.2630  C 0  0  0  3  0  4
   13.0040    1.1700   20.5780  C 0  0  0  3  0  4
   11.8530    1.2940   21.5410  C 0  0  0  4  0  4
   23.1743   -2.9857   21.0602  H 0  0  0  1  0  1
   24.6281   -3.7831   18.7454  H 0  0  0  1  0  1
   25.5214   -2.7896   21.5015  H 0  0  0  1  0  1
   24.8602   -1.7277   20.2124  H 0  0  0  1  0  1
   26.6764   -2.5611   18.6907  H 0  0  0  1  0  1
   27.3774   -3.4407   20.0912  H 0  0  0  1  0  1
   21.0347   -3.7282   22.2252  H 0  0  0  1  0  1
   19.4555   -2.0522   23.0636  H 0  0  0  1  0  1
   17.9402   -0.3381   22.6687  H 0  0  0  1  0  1
   17.2729    1.1702   18.7320  H 0  0  0  1  0  1
   18.8514   -0.5051   17.8281  H 0  0  0  1  0  1
   20.4405   -2.3888   18.2132  H 0  0  0  1  0  1
   15.5565    1.2131   19.5769  H 0  0  0  1  0  1
   15.1650    2.6452   20.5881  H 0  0  0  1  0  1
   14.2529    1.0722   22.3293  H 0  0  0  1  0  1
   14.4928   -0.2718   21.1620  H 0  0  0  1  0  1
   12.7642    0.3875   19.8430  H 0  0  0  1  0  1
   13.1340    2.1318   20.0604  H 0  0  0  1  0  1
   10.9390    1.5566   20.9881  H 0  0  0  1  0  1
   12.0744    2.0802   22.2778  H 0  0  0  1  0  1
   11.7046    0.3358   22.0605  H 0  0  0  1  0  1
  1  2  2  0  0  2
  2  3  2  0  0  2
  2  4  1  0  0  2
  2 14  1  0  0  2
  4  5  1  0  0  2
  5  6  1  0  0  2
  5  9  1  0  0  2
  6  7  2  0  0  2
  6  8  2  0  0  2
  9 10  1  0  0  2
 10 11  1  0  0  2
 11 12  2  0  0  2
 11 13  2  0  0  2
 14 15  4  0  0  1
 14 23  4  0  0  1
 15 16  4  0  0  1
 16 17  4  0  0  1
 17 18  4  0  0  1
 17 22  4  0  0  1
 18 19  4  0  0  1
 19 20  4  0  0  1
 19 24  1  0  0  2
 20 21  4  0  0  1
 21 22  4  0  0  1
 22 23  4  0  0  1
 24 25  1  0  0  2
 25 26  1  0  0  2
 26 27  1  0  0  2
 27 28  1  0  0  2
  4 29  1  0  0  2
  5 30  1  0  0  2
  9 31  1  0  0  2
  9 32  1  0  0  2
 10 33  1  0  0  2
 10 34  1  0  0  2
 15 35  1  0  0  2
 16 36  1  0  0  2
 18 37  1  0  0  2
 20 38  1  0  0  2
 21 39  1  0  0  2
 23 40  1  0  0  2
 25 41  1  0  0  2
 25 42  1  0  0  2
 26 43  1  0  0  2
 26 44  1  0  0  2
 27 45  1  0  0  2
 27 46  1  0  0  2
 28 47  1  0  0  2
 28 48  1  0  0  2
 28 49  1  0  0  2
M  END
> <MOLECULAR_FORMULA>
C19H21NO7S

> <MOLECULAR_WEIGHT>
407.3

> <NUM_HB_ATOMS>
8  

> <NUM_ROTOR>
8  

> <XLOGP2>
2.53 

$$$$
