1sbr_ligand

Created by X-TOOL on Fri Sep 26 17:34:27 2014
 35 36  0  0  0  0  0  0  0  0999 V2000
   11.6510   41.9440    4.2410  C 0  0  0  4  0  4
   14.7650   43.9370    7.2660  N 0  0  0  3  0  3
   16.0560   46.2700    3.0440  C 0  0  0  4  0  4
   19.4780   44.7750    1.5790  O 0  0  0  2  0  2
   19.2880   44.6420    2.9730  C 0  0  0  3  0  4
   19.1850   46.0630    3.4720  C 0  0  0  3  0  4
   17.0440   46.2030    6.5290  C 0  0  0  2  0  3
   18.6850   46.0750    6.1150  S 0  0  0  1  0  2
   18.1240   46.1150    4.5530  C 0  0  0  1  0  3
   16.7810   46.2280    4.3750  C 0  0  0  1  0  3
   16.1740   46.2730    5.5450  N 0  0  0  1  0  3
   14.8560   46.3420    5.7470  C 0  0  0  3  0  4
   14.0620   44.1140    6.1350  C 0  0  0  1  0  3
   13.2820   43.0950    5.7960  N 0  0  0  1  0  2
   12.5960   43.0930    4.5470  C 0  0  0  1  0  3
   12.5430   44.3720    3.8580  N 0  0  0  1  0  2
   13.3400   45.3600    4.2730  C 0  0  0  2  0  3
   14.0730   45.2640    5.4100  C 0  0  0  1  0  3
   11.8901   41.0895    4.8911  H 0  0  0  1  0  1
   11.7643   41.6465    3.1881  H 0  0  0  1  0  1
   10.6142   42.2637    4.4222  H 0  0  0  1  0  1
   15.3956   44.6789    7.6018  H 0  0  0  1  0  1
   14.6734   43.0594    7.7973  H 0  0  0  1  0  1
   16.7890   46.2182    2.2254  H 0  0  0  1  0  1
   15.4856   47.2073    2.9666  H 0  0  0  1  0  1
   15.3676   45.4149    2.9743  H 0  0  0  1  0  1
   19.5529   43.9128    1.1870  H 0  0  0  1  0  1
   20.1431   44.1275    3.4356  H 0  0  0  1  0  1
   18.3643   44.0851    3.1891  H 0  0  0  1  0  1
   18.9032   46.7284    2.6427  H 0  0  0  1  0  1
   20.1528   46.3825    3.8858  H 0  0  0  1  0  1
   16.7236   46.2263    7.5696  H 0  0  0  1  0  1
   14.4860   47.2021    5.1697  H 0  0  0  1  0  1
   14.7037   46.5280    6.8204  H 0  0  0  1  0  1
   13.4030   46.2670    3.6826  H 0  0  0  1  0  1
 15  1  1  0  0  2
 13  2  1  0  0  2
 10  3  1  0  0  2
  5  4  1  0  0  2
  6  5  1  0  0  2
  9  6  1  0  0  2
  7  8  1  0  0  1
 11  7  2  0  0  1
  9  8  1  0  0  1
 10  9  2  0  0  1
 11 10  1  0  0  1
 12 11  1  0  0  2
 18 12  1  0  0  2
 14 13  4  0  0  1
 13 18  4  0  0  1
 14 15  4  0  0  1
 15 16  4  0  0  1
 16 17  4  0  0  1
 17 18  4  0  0  1
  1 19  1  0  0  2
  1 20  1  0  0  2
  1 21  1  0  0  2
  2 22  1  0  0  2
  2 23  1  0  0  2
  3 24  1  0  0  2
  3 25  1  0  0  2
  3 26  1  0  0  2
  4 27  1  0  0  2
  5 28  1  0  0  2
  5 29  1  0  0  2
  6 30  1  0  0  2
  6 31  1  0  0  2
  7 32  1  0  0  2
 12 33  1  0  0  2
 12 34  1  0  0  2
 17 35  1  0  0  2
M  END
> <MOLECULAR_FORMULA>
C12H17N4OS

> <MOLECULAR_WEIGHT>
265.2

> <NUM_HB_ATOMS>
5  

> <NUM_ROTOR>
4  

> <XLOGP2>
0.34 

$$$$
