REMARK  7 active torsions:
REMARK  status: ('A' for Active; 'I' for Inactive)
REMARK    1  A    between atoms: O2'_12  and  PA_1 
REMARK    2  A    between atoms: C5'_6  and  O5'_5 
REMARK    3  A    between atoms: C4'_7  and  C5'_6 
REMARK    4  A    between atoms: C3'_9  and  O3'_10 
REMARK    5  A    between atoms: C2'_11  and  O2'_12 
REMARK    6  A    between atoms: C1'_13  and  N9_14 
REMARK    7  A    between atoms: C6_18  and  N6_19 
ROOT
ATOM      1  C4' MOL d          22.847  13.772  -2.521  0.00  0.00     0.179 C 
ATOM      2  O4' MOL d          22.864  12.360  -2.088  0.00  0.00    -0.353 OA
ATOM      3  C3' MOL d          21.852  14.606  -1.631  0.00  0.00     0.183 C 
ATOM      4  C2' MOL d          21.483  13.452  -0.657  0.00  0.00     0.216 C 
ATOM      5  C1' MOL d          21.604  12.145  -1.411  0.00  0.00     0.263 C 
ENDROOT
BRANCH   5   6
ATOM      6  N9  MOL d          21.751  10.903  -0.629  0.00  0.00    -0.294 N 
ATOM      7  C8  MOL d          22.599  10.623   0.430  0.00  0.00     0.214 C 
ATOM      8  N7  MOL d          22.632   9.342   0.756  0.00  0.00    -0.236 NA
ATOM      9  C5  MOL d          21.721   8.757  -0.105  0.00  0.00     0.149 C 
ATOM     10  C6  MOL d          21.336   7.384  -0.121  0.00  0.00     0.155 C 
ATOM     11  C4  MOL d          21.380   9.644  -1.113  0.00  0.00     0.167 C 
ATOM     12  N1  MOL d          20.541   7.093  -1.220  0.00  0.00    -0.222 NA
ATOM     13  C2  MOL d          20.158   8.070  -2.125  0.00  0.00     0.237 C 
ATOM     14  N3  MOL d          20.448   9.403  -2.090  0.00  0.00    -0.222 NA
BRANCH  10  15
ATOM     15  N6  MOL d          21.648   6.534   0.752  0.00  0.00    -0.382 N 
ATOM     16  H10 MOL d          21.325   5.560   0.661  0.00  0.00     0.157 HD
ATOM     17  H11 MOL d          22.226   6.812   1.558  0.00  0.00     0.157 HD
ENDBRANCH  10  15
ENDBRANCH   5   6
BRANCH   4  18
ATOM     18  O2' MOL d          20.163  13.628  -0.188  0.00  0.00    -0.270 OA
BRANCH  18  19
ATOM     19  PA  MOL d          19.667  13.828   1.377  0.00  0.00     0.422 P 
ATOM     20  O1A MOL d          20.808  14.487   1.961  0.00  0.00    -0.617 OA
ATOM     21  O2A MOL d          19.730  12.384   1.818  0.00  0.00    -0.617 OA
ATOM     22  O3A MOL d          18.382  14.473   1.214  0.00  0.00    -0.617 OA
ENDBRANCH  18  19
ENDBRANCH   4  18
BRANCH   3  23
ATOM     23  O3' MOL d          20.681  15.001  -2.377  0.00  0.00    -0.390 OA
ATOM     24  H6  MOL d          20.102  15.501  -1.814  0.00  0.00     0.210 HD
ENDBRANCH   3  23
BRANCH   1  25
ATOM     25  C5' MOL d          24.232  14.379  -2.509  0.00  0.00     0.198 C 
BRANCH  25  26
ATOM     26  O5' MOL d          24.901  13.985  -1.285  0.00  0.00    -0.398 OA
ATOM     27  H1  MOL d          24.963  13.038  -1.250  0.00  0.00     0.209 HD
ENDBRANCH  25  26
ENDBRANCH   1  25
TORSDOF 7
