REMARK  8 active torsions:
REMARK  status: ('A' for Active; 'I' for Inactive)
REMARK    1  A    between atoms: C9_9  and  C10_10 
REMARK       I    between atoms: C10_10  and  N12_12 
REMARK    2  A    between atoms: N12_12  and  C13_13 
REMARK    3  A    between atoms: C13_13  and  C14_14 
REMARK       I    between atoms: N20_20  and  C21_21 
REMARK    4  A    between atoms: C21_21  and  C23_23 
REMARK    5  A    between atoms: C23_23  and  N24_24 
REMARK    6  A    between atoms: N24_24  and  C25_25 
REMARK    7  A    between atoms: C25_25  and  C26_26 
REMARK    8  A    between atoms: C26_26  and  C27_27 
ROOT
ATOM      1  C1  IXY d          48.399  11.348   9.518  0.00  0.00     0.047 C 
ATOM      2  C2  IXY d          47.600  10.091   9.290  0.00  0.00    -0.008 A 
ATOM      3  C3  IXY d          46.114   9.857   9.078  0.00  0.00    -0.026 A 
ATOM      4  C4  IXY d          45.423  11.226   9.123  0.00  0.00     0.041 C 
ATOM      5  C5  IXY d          46.152  12.350   9.847  0.00  0.00     0.005 C 
ATOM      6  C6  IXY d          47.531  12.567   9.258  0.00  0.00     0.005 C 
ATOM      7  S7  IXY d          48.102   8.525   9.196  0.00  0.00    -0.075 SA
ATOM      8  C8  IXY d          46.939   7.430   8.938  0.00  0.00     0.093 A 
ATOM      9  C9  IXY d          45.736   8.375   8.879  0.00  0.00     0.073 A 
ATOM     10  N20 IXY d          47.046   6.102   8.817  0.00  0.00    -0.319 N 
ATOM     11  C21 IXY d          46.757   5.245   9.785  0.00  0.00     0.248 C 
ATOM     12  O22 IXY d          46.347   5.593  10.878  0.00  0.00    -0.271 OA
ATOM     13  H17 IXY d          47.363   5.734   7.943  0.00  0.00     0.169 HD
ENDROOT
BRANCH   9  14
ATOM     14  C10 IXY d          44.474   7.587   8.641  0.00  0.00     0.255 C 
ATOM     15  O11 IXY d          43.565   7.681   9.470  0.00  0.00    -0.268 OA
ATOM     16  N12 IXY d          44.353   6.883   7.514  0.00  0.00    -0.353 N 
ATOM     17  H9  IXY d          45.126   6.878   6.880  0.00  0.00     0.163 HD
BRANCH  16  18
ATOM     18  C13 IXY d          43.164   6.120   7.148  0.00  0.00     0.161 C 
BRANCH  18  19
ATOM     19  C14 IXY d          42.090   7.088   6.670  0.00  0.00    -0.041 A 
ATOM     20  C15 IXY d          42.428   8.361   6.232  0.00  0.00     0.009 A 
ATOM     21  C16 IXY d          41.430   9.226   5.787  0.00  0.00     0.001 A 
ATOM     22  C17 IXY d          40.095   8.834   5.773  0.00  0.00     0.000 A 
ATOM     23  C18 IXY d          39.748   7.558   6.193  0.00  0.00     0.001 A 
ATOM     24  C19 IXY d          40.748   6.697   6.636  0.00  0.00     0.009 A 
ENDBRANCH  18  19
ENDBRANCH  16  18
ENDBRANCH   9  14
BRANCH  11  25
ATOM     25  C23 IXY d          46.949   3.784   9.463  0.00  0.00     0.334 C 
BRANCH  25  26
ATOM     26  N24 IXY d          46.194   2.960  10.391  0.00  0.00    -0.067 N 
ATOM     27  H20 IXY d          46.357   3.333  11.313  0.00  0.00     0.277 HD
ATOM     28  H21 IXY d          46.575   2.029  10.333  0.00  0.00     0.277 HD
BRANCH  26  29
ATOM     29  C25 IXY d          44.757   2.839  10.233  0.00  0.00     0.237 C 
BRANCH  29  30
ATOM     30  C26 IXY d          44.207   1.855  11.246  0.00  0.00     0.068 C 
BRANCH  30  31
ATOM     31  C27 IXY d          42.731   1.687  11.018  0.00  0.00    -0.029 A 
ATOM     32  C28 IXY d          41.741   2.653  11.186  0.00  0.00     0.096 A 
ATOM     33  N29 IXY d          40.516   2.136  10.887  0.00  0.00    -0.365 N 
ATOM     34  C30 IXY d          40.654   0.841  10.522  0.00  0.00     0.042 A 
ATOM     35  H27 IXY d          39.625   2.651  10.932  0.00  0.00     0.165 HD
ATOM     36  C31 IXY d          42.094   0.528  10.599  0.00  0.00    -0.002 A 
ATOM     37  C35 IXY d          39.776  -0.159  10.123  0.00  0.00     0.030 A 
ATOM     38  C32 IXY d          42.578  -0.741  10.286  0.00  0.00     0.014 A 
ATOM     39  C33 IXY d          41.657  -1.710   9.902  0.00  0.00     0.001 A 
ATOM     40  C34 IXY d          40.293  -1.423   9.823  0.00  0.00     0.002 A 
ENDBRANCH  30  31
ENDBRANCH  29  30
ENDBRANCH  26  29
ENDBRANCH  25  26
ENDBRANCH  11  25
TORSDOF 8
