REMARK  7 active torsions:
REMARK  status: ('A' for Active; 'I' for Inactive)
REMARK    1  A    between atoms: C14_21  and  C15_1 
REMARK    2  A    between atoms: C03_10  and  N04_11 
REMARK    3  A    between atoms: C08_15  and  C07_14 
REMARK    4  A    between atoms: C09_16  and  C08_15 
REMARK    5  A    between atoms: C09_16  and  C25_26 
REMARK    6  A    between atoms: N11_18  and  N10_17 
REMARK    7  A    between atoms: C12_19  and  N11_18 
ROOT
ATOM      1  C09 MOL d          -7.534   3.075  -0.593  0.00  0.00     0.135 C 
ATOM      2  N10 MOL d          -6.816   2.694   0.491  0.00  0.00    -0.170 NA
ENDROOT
BRANCH   2   3
ATOM      3  N11 MOL d          -5.487   2.849   0.613  0.00  0.00    -0.255 N 
ATOM      4  H   MOL d          -4.931   3.293  -0.131  0.00  0.00     0.191 HD
BRANCH   3   5
ATOM      5  C12 MOL d          -4.871   2.373   1.818  0.00  0.00     0.187 A 
ATOM      6  N13 MOL d          -3.579   2.485   2.158  0.00  0.00    -0.222 NA
ATOM      7  C14 MOL d          -3.237   1.942   3.347  0.00  0.00     0.076 A 
ATOM      8  C23 MOL d          -4.263   1.350   4.065  0.00  0.00     0.085 A 
ATOM      9  S24 MOL d          -5.668   1.547   3.076  0.00  0.00    -0.060 SA
BRANCH   7  10
ATOM     10  C15 MOL d          -1.885   2.019   3.816  0.00  0.00    -0.005 A 
ATOM     11  C22 MOL d          -1.609   2.057   5.183  0.00  0.00     0.039 A 
ATOM     12  C20 MOL d          -0.300   2.149   5.615  0.00  0.00     0.056 A 
ATOM     13 CL21 MOL d           0.016   2.197   7.292  0.00  0.00    -0.083 Cl
ATOM     14  C18 MOL d           0.748   2.194   4.685  0.00  0.00     0.055 A 
ATOM     15  C17 MOL d           0.463   2.163   3.327  0.00  0.00     0.026 A 
ATOM     16 CL19 MOL d           2.413   2.306   5.209  0.00  0.00    -0.083 Cl
ATOM     17  C16 MOL d          -0.842   2.074   2.896  0.00  0.00     0.015 A 
ENDBRANCH   7  10
ENDBRANCH   3   5
ENDBRANCH   2   3
BRANCH   1  18
ATOM     18  C08 MOL d          -6.832   3.490  -1.890  0.00  0.00     0.109 C 
BRANCH  18  19
ATOM     19  C07 MOL d          -6.631   2.466  -2.922  0.00  0.00    -0.019 A 
ATOM     20  C28 MOL d          -5.518   1.646  -2.796  0.00  0.00     0.010 A 
ATOM     21  C29 MOL d          -5.264   0.645  -3.733  0.00  0.00     0.001 A 
ATOM     22  C01 MOL d          -6.121   0.471  -4.809  0.00  0.00     0.002 A 
ATOM     23  C02 MOL d          -7.222   1.278  -4.942  0.00  0.00     0.037 A 
ATOM     24  C03 MOL d          -7.491   2.288  -3.995  0.00  0.00     0.109 A 
BRANCH  24  25
ATOM     25  N04 MOL d          -8.702   3.128  -4.208  0.00  0.00    -0.115 N 
ATOM     26  O05 MOL d          -8.634   4.331  -4.194  0.00  0.00    -0.532 OA
ATOM     27  O06 MOL d          -9.762   2.595  -4.418  0.00  0.00    -0.532 OA
ENDBRANCH  24  25
ENDBRANCH  18  19
ENDBRANCH   1  18
BRANCH   1  28
ATOM     28  C25 MOL d          -9.031   2.758  -0.597  0.00  0.00     0.226 C 
ATOM     29  O26 MOL d          -9.757   3.091  -1.577  0.00  0.00    -0.643 OA
ATOM     30  O27 MOL d          -9.545   2.143   0.428  0.00  0.00    -0.643 OA
ENDBRANCH   1  28
TORSDOF 7
