REMARK  11 active torsions:
REMARK  status: ('A' for Active; 'I' for Inactive)
REMARK    1  A    between atoms: C6_3  and  N6_31 
REMARK    2  A    between atoms: CAX_11  and  CBB_8 
REMARK    3  A    between atoms: CAX_11  and  OAH_12 
REMARK    4  A    between atoms: CAT_13  and  CAX_11 
REMARK       I    between atoms: NAQ_15  and  CAT_13 
REMARK    5  A    between atoms: SBE_16  and  NAQ_15 
REMARK    6  A    between atoms: O5'_19  and  SBE_16 
REMARK    7  A    between atoms: C5'_20  and  O5'_19 
REMARK    8  A    between atoms: C4'_21  and  C5'_20 
REMARK    9  A    between atoms: C3'_23  and  O3'_24 
REMARK   10  A    between atoms: C2'_25  and  O2'_26 
REMARK   11  A    between atoms: C1'_27  and  N9_28 
ROOT
ATOM      1  C4' MOL d          12.859  10.231   2.062  0.00  0.00     0.180 C 
ATOM      2  O4' MOL d          13.050  10.716   0.708  0.00  0.00    -0.353 OA
ATOM      3  C3' MOL d          13.357   8.788   2.083  0.00  0.00     0.182 C 
ATOM      4  C2' MOL d          14.167   8.682   0.782  0.00  0.00     0.198 C 
ATOM      5  C1' MOL d          13.377   9.602  -0.146  0.00  0.00     0.262 C 
ENDROOT
BRANCH   1   6
ATOM      6  C5' MOL d          13.724  11.129   2.986  0.00  0.00     0.226 C 
BRANCH   6   7
ATOM      7  O5' MOL d          15.156  10.945   2.717  0.00  0.00    -0.257 OA
BRANCH   7   8
ATOM      8  SBE MOL d          16.061  11.531   3.695  0.00  0.00     0.364 S 
ATOM      9  OAF MOL d          17.399  11.260   3.130  0.00  0.00    -0.175 OA
ATOM     10  OAG MOL d          15.720  12.956   3.795  0.00  0.00    -0.175 OA
BRANCH   8  11
ATOM     11  NAQ MOL d          15.921  10.867   5.177  0.00  0.00    -0.229 N 
ATOM     12  CAT MOL d          15.911   9.569   5.399  0.00  0.00     0.262 C 
ATOM     13  OAE MOL d          15.982   8.699   4.524  0.00  0.00    -0.270 OA
ATOM     14  H13 MOL d          15.838  11.480   5.963  0.00  0.00     0.183 HD
BRANCH  12  15
ATOM     15  CAX MOL d          15.919   9.199   6.908  0.00  0.00     0.218 C 
BRANCH  15  16
ATOM     16  CBB MOL d          14.542   9.116   7.630  0.00  0.00    -0.017 C 
ATOM     17  CAA MOL d          14.724   8.730   9.104  0.00  0.00     0.017 C 
ATOM     18  CAB MOL d          13.797  10.447   7.604  0.00  0.00     0.017 C 
ATOM     19  CAC MOL d          13.760   8.012   6.982  0.00  0.00     0.017 C 
ENDBRANCH  15  16
BRANCH  15  20
ATOM     20  OAH MOL d          16.672   7.946   7.022  0.00  0.00    -0.385 OA
ATOM     21  H12 MOL d          16.172   7.240   6.630  0.00  0.00     0.210 HD
ENDBRANCH  15  20
ENDBRANCH  12  15
ENDBRANCH   8  11
ENDBRANCH   7   8
ENDBRANCH   6   7
ENDBRANCH   1   6
BRANCH   3  22
ATOM     22  O3' MOL d          12.235   7.923   2.059  0.00  0.00    -0.390 OA
ATOM     23  H18 MOL d          12.532   7.021   2.072  0.00  0.00     0.210 HD
ENDBRANCH   3  22
BRANCH   5  24
ATOM     24  N9  MOL d          14.220   9.995  -1.310  0.00  0.00    -0.294 N 
ATOM     25  C4  MOL d          13.899   9.771  -2.581  0.00  0.00     0.167 A 
ATOM     26  C5  MOL d          14.944  10.278  -3.370  0.00  0.00     0.149 A 
ATOM     27  N3  MOL d          12.802   9.204  -3.143  0.00  0.00    -0.222 NA
ATOM     28  C6  MOL d          14.826  10.148  -4.755  0.00  0.00     0.155 A 
ATOM     29  N7  MOL d          15.883  10.793  -2.555  0.00  0.00    -0.236 NA
ATOM     30  N1  MOL d          13.695   9.598  -5.245  0.00  0.00    -0.222 NA
ATOM     31  C2  MOL d          12.729   9.112  -4.472  0.00  0.00     0.237 A 
ATOM     32  C8  MOL d          15.434  10.606  -1.294  0.00  0.00     0.214 A 
BRANCH  28  33
ATOM     33  N6  MOL d          15.796  10.609  -5.571  0.00  0.00    -0.382 N 
ATOM     34  H23 MOL d          15.701  10.509  -6.592  0.00  0.00     0.157 HD
ATOM     35  H24 MOL d          16.632  11.061  -5.173  0.00  0.00     0.157 HD
ENDBRANCH  28  33
ENDBRANCH   5  24
BRANCH   4  36
ATOM     36  O2' MOL d          14.224   7.352   0.201  0.00  0.00    -0.388 OA
ATOM     37  H20 MOL d          13.344   7.058  -0.001  0.00  0.00     0.210 HD
ENDBRANCH   4  36
TORSDOF 11
