REMARK  5 active torsions:
REMARK  status: ('A' for Active; 'I' for Inactive)
REMARK    1  A    between atoms: C4_4  and  C18_18 
REMARK    2  A    between atoms: C5_5  and  C11_11 
REMARK    3  A    between atoms: C11_11  and  C12_12 
REMARK    4  A    between atoms: C11_11  and  O15_15 
REMARK    5  A    between atoms: O15_15  and  C16_16 
ROOT
ATOM      1  N1  MOL d          18.660  64.403   8.433  0.00  0.00    -0.253 NA
ATOM      2  C2  MOL d          18.592  64.586   9.772  0.00  0.00     0.068 A 
ATOM      3  C3  MOL d          19.666  64.217  10.665  0.00  0.00     0.004 A 
ATOM      4  C4  MOL d          20.864  63.613  10.053  0.00  0.00    -0.002 A 
ATOM      5  C5  MOL d          20.931  63.419   8.591  0.00  0.00     0.017 A 
ATOM      6  C6  MOL d          19.773  63.840   7.840  0.00  0.00     0.041 A 
ATOM      7  C7  MOL d          19.467  64.469  12.086  0.00  0.00     0.014 A 
ATOM      8  C8  MOL d          18.274  65.058  12.586  0.00  0.00     0.001 A 
ATOM      9  C9  MOL d          17.243  65.412  11.689  0.00  0.00     0.002 A 
ATOM     10  C10 MOL d          17.411  65.173  10.295  0.00  0.00     0.032 A 
ATOM     11  C17 MOL d          19.623  63.738   6.341  0.00  0.00     0.071 C 
ENDROOT
BRANCH   5  12
ATOM     12  C11 MOL d          22.205  62.781   7.937  0.00  0.00     0.259 C 
BRANCH  12  13
ATOM     13  C12 MOL d          21.996  61.284   7.536  0.00  0.00     0.208 C 
ATOM     14  O13 MOL d          21.197  60.595   8.238  0.00  0.00    -0.646 OA
ATOM     15  O14 MOL d          22.665  60.901   6.529  0.00  0.00    -0.646 OA
ENDBRANCH  12  13
BRANCH  12  16
ATOM     16  O15 MOL d          22.737  63.538   6.792  0.00  0.00    -0.360 OA
BRANCH  16  17
ATOM     17  C16 MOL d          23.681  64.644   6.956  0.00  0.00     0.051 C 
ATOM     18  C25 MOL d          22.996  65.940   7.393  0.00  0.00     0.045 C 
ATOM     19  C26 MOL d          24.828  64.313   7.940  0.00  0.00     0.045 C 
ATOM     20  C27 MOL d          24.282  64.856   5.557  0.00  0.00     0.045 C 
ENDBRANCH  16  17
ENDBRANCH  12  16
ENDBRANCH   5  12
BRANCH   4  21
ATOM     21  C18 MOL d          22.018  63.207  10.926  0.00  0.00    -0.024 A 
ATOM     22  C19 MOL d          23.017  64.167  11.321  0.00  0.00     0.014 A 
ATOM     23  C20 MOL d          24.111  63.779  12.144  0.00  0.00     0.024 A 
ATOM     24  C21 MOL d          24.220  62.432  12.581  0.00  0.00     0.034 A 
ATOM     25  C22 MOL d          23.249  61.466  12.208  0.00  0.00     0.024 A 
ATOM     26 CL   MOL d          25.539  61.966  13.572  0.00  0.00    -0.084 Cl
ATOM     27  C23 MOL d          22.153  61.849  11.385  0.00  0.00     0.014 A 
ENDBRANCH   4  21
TORSDOF 5
