3g2j_ligand

Created by X-TOOL on Fri Sep 26 17:34:47 2014
 31 31  0  0  0  0  0  0  0  0999 V2000
   33.7500   24.3170   25.9060  O 0  0  0  2  0  2
   33.5630   22.9150   26.1300  C 0  0  0  2  0  4
   32.3590   22.3710   25.3360  C 0  0  0  2  0  4
   32.6140   22.4670   23.9310  O 0  0  0  2  0  2
   32.1020   20.9050   25.7120  C 0  0  0  2  0  4
   30.9300   20.4570   25.0500  O 0  0  0  2  0  2
   31.9480   20.7380   27.2380  C 0  0  0  2  0  4
   31.7800   19.2650   27.6590  C 0  0  0  3  0  4
   32.8670   18.4820   27.1540  O 0  0  0  2  0  2
   33.1320   21.2190   27.9010  O 0  0  0  1  0  2
   33.4070   22.6320   27.6370  C 0  0  0  2  0  4
   34.6710   23.0320   28.3120  N 0  0  0  2  0  3
   34.6110   23.6210   29.5040  C 0  0  0  1  0  3
   33.5600   23.8510   30.0940  O 0  0  0  1  0  1
   35.9540   24.0120   30.1240  C 0  0  0  3  0  4
   37.0350   23.2770   29.5550  O 0  0  0  2  0  2
   34.4975   24.6199   26.4081  H 0  0  0  1  0  1
   34.4635   22.3916   25.7762  H 0  0  0  1  0  1
   31.4682   22.9676   25.5820  H 0  0  0  1  0  1
   31.8669   22.1296   23.4509  H 0  0  0  1  0  1
   32.9565   20.2983   25.3778  H 0  0  0  1  0  1
   31.0504   20.5310   24.1106  H 0  0  0  1  0  1
   31.0717   21.3143   27.5697  H 0  0  0  1  0  1
   30.8335   18.8768   27.2549  H 0  0  0  1  0  1
   31.7641   19.1999   28.7569  H 0  0  0  1  0  1
   33.6851   18.8153   27.5034  H 0  0  0  1  0  1
   32.5743   23.2332   28.0310  H 0  0  0  1  0  1
   35.5543   22.8605   27.8757  H 0  0  0  1  0  1
   35.9183   23.8127   31.2052  H 0  0  0  1  0  1
   36.1252   25.0853   29.9544  H 0  0  0  1  0  1
   37.8493   23.5462   29.9636  H 0  0  0  1  0  1
  1  2  1  0  0  2
  2  3  1  0  0  1
  2 11  1  0  0  1
  3  4  1  0  0  2
  3  5  1  0  0  1
  5  6  1  0  0  2
  5  7  1  0  0  1
  7  8  1  0  0  2
  7 10  1  0  0  1
  8  9  1  0  0  2
 10 11  1  0  0  1
 11 12  1  0  0  2
 12 13  1  0  0  2
 13 14  2  0  0  2
 13 15  1  0  0  2
 15 16  1  0  0  2
  1 17  1  0  0  2
  2 18  1  0  0  2
  3 19  1  0  0  2
  4 20  1  0  0  2
  5 21  1  0  0  2
  6 22  1  0  0  2
  7 23  1  0  0  2
  8 24  1  0  0  2
  8 25  1  0  0  2
  9 26  1  0  0  2
 11 27  1  0  0  2
 12 28  1  0  0  2
 15 29  1  0  0  2
 15 30  1  0  0  2
 16 31  1  0  0  2
M  END
> <MOLECULAR_FORMULA>
C8H15NO7

> <MOLECULAR_WEIGHT>
237.1

> <NUM_HB_ATOMS>
8  

> <NUM_ROTOR>
3  

> <XLOGP2>
-3.43

$$$$
