REMARK  14 active torsions:
REMARK  status: ('A' for Active; 'I' for Inactive)
REMARK    1  A    between atoms: C2_2  and  N1_1 
REMARK    2  A    between atoms: S8_8  and  C5_5 
REMARK    3  A    between atoms: N11_11  and  S8_8 
REMARK    4  A    between atoms: N11_11  and  C12_12 
REMARK    5  A    between atoms: C16_16  and  N11_11 
REMARK    6  A    between atoms: C12_12  and  C13_13 
REMARK    7  A    between atoms: C17_17  and  C16_16 
REMARK    8  A    between atoms: C17_17  and  O18_18 
REMARK    9  A    between atoms: C19_19  and  C17_17 
REMARK   10  A    between atoms: C19_19  and  N20_20 
REMARK   11  A    between atoms: C32_32  and  C19_19 
REMARK       I    between atoms: N20_20  and  C21_21 
REMARK   12  A    between atoms: C21_21  and  O23_23 
REMARK   13  A    between atoms: O23_23  and  C24_24 
REMARK   14  A    between atoms: C38_38  and  C32_32 
ROOT
ATOM      1  C17 MOL d         -10.270  17.898  26.941  0.00  0.00     0.155 C 
ENDROOT
BRANCH   1   2
ATOM      2  C16 MOL d         -10.366  17.510  28.427  0.00  0.00     0.141 C 
BRANCH   2   3
ATOM      3  N11 MOL d         -10.367  16.031  28.486  0.00  0.00    -0.204 NA
BRANCH   3   4
ATOM      4  S8  MOL d          -9.200  15.411  29.429  0.00  0.00     0.243 S 
ATOM      5  O9  MOL d          -8.020  16.228  29.392  0.00  0.00    -0.206 OA
ATOM      6  O10 MOL d          -8.913  14.115  28.864  0.00  0.00    -0.206 OA
BRANCH   4   7
ATOM      7  C5  MOL d          -9.623  15.172  30.964  0.00  0.00     0.074 A 
ATOM      8  C4  MOL d          -9.606  16.199  31.909  0.00  0.00     0.027 A 
ATOM      9  C3  MOL d          -9.979  15.935  33.238  0.00  0.00     0.030 A 
ATOM     10  C2  MOL d         -10.355  14.644  33.630  0.00  0.00     0.025 A 
ATOM     11  C7  MOL d         -10.354  13.622  32.689  0.00  0.00     0.030 A 
ATOM     12  C6  MOL d          -9.995  13.890  31.365  0.00  0.00     0.027 A 
BRANCH  10  13
ATOM     13  N1  MOL d         -10.718  14.363  34.915  0.00  0.00    -0.399 N 
ATOM     14  H1  MOL d         -10.724  15.110  35.624  0.00  0.00     0.156 HD
ATOM     15  H2  MOL d         -10.986  13.403  35.176  0.00  0.00     0.156 HD
ENDBRANCH  10  13
ENDBRANCH   4   7
ENDBRANCH   3   4
BRANCH   3  16
ATOM     16  C12 MOL d         -11.698  15.443  28.761  0.00  0.00     0.111 C 
BRANCH  16  17
ATOM     17  C13 MOL d         -12.457  15.226  27.440  0.00  0.00    -0.009 C 
ATOM     18  C14 MOL d         -11.688  14.365  26.447  0.00  0.00     0.011 C 
ATOM     19  C15 MOL d         -13.826  14.614  27.663  0.00  0.00     0.011 C 
ENDBRANCH  16  17
ENDBRANCH   3  16
ENDBRANCH   2   3
ENDBRANCH   1   2
BRANCH   1  20
ATOM     20  O18 MOL d         -10.621  19.277  26.708  0.00  0.00    -0.392 OA
ATOM     21  H19 MOL d         -10.547  19.469  25.780  0.00  0.00     0.210 HD
ENDBRANCH   1  20
BRANCH   1  22
ATOM     22  C19 MOL d          -8.869  17.589  26.388  0.00  0.00     0.120 C 
BRANCH  22  23
ATOM     23  N20 MOL d          -8.904  17.839  24.948  0.00  0.00    -0.329 N 
ATOM     24  C21 MOL d          -8.822  16.881  24.012  0.00  0.00     0.361 C 
ATOM     25  O22 MOL d          -8.727  15.674  24.247  0.00  0.00    -0.238 OA
ATOM     26  H21 MOL d          -8.995  18.786  24.640  0.00  0.00     0.165 HD
BRANCH  24  27
ATOM     27  O23 MOL d          -8.863  17.342  22.633  0.00  0.00    -0.296 OA
BRANCH  27  28
ATOM     28  C24 MOL d          -8.453  16.459  21.588  0.00  0.00     0.166 C 
ATOM     29  C25 MOL d          -9.382  16.776  20.432  0.00  0.00     0.204 C 
ATOM     30  O26 MOL d          -8.823  17.950  19.844  0.00  0.00    -0.358 OA
ATOM     31  C27 MOL d          -7.403  17.980  20.037  0.00  0.00     0.266 C 
ATOM     32  O28 MOL d          -6.988  19.206  20.645  0.00  0.00    -0.361 OA
ATOM     33  C31 MOL d          -7.099  16.868  21.029  0.00  0.00     0.075 C 
ATOM     34  C29 MOL d          -6.126  18.959  21.757  0.00  0.00     0.171 C 
ATOM     35  C30 MOL d          -6.109  17.457  22.020  0.00  0.00     0.038 C 
ENDBRANCH  27  28
ENDBRANCH  24  27
ENDBRANCH  22  23
BRANCH  22  36
ATOM     36  C32 MOL d          -7.838  18.550  26.974  0.00  0.00     0.066 C 
BRANCH  36  37
ATOM     37  C38 MOL d          -6.483  18.312  26.357  0.00  0.00    -0.056 A 
ATOM     38  C33 MOL d          -6.029  19.183  25.361  0.00  0.00     0.007 A 
ATOM     39  C34 MOL d          -4.776  18.969  24.794  0.00  0.00     0.001 A 
ATOM     40  C35 MOL d          -3.988  17.904  25.217  0.00  0.00     0.000 A 
ATOM     41  C36 MOL d          -4.445  17.039  26.215  0.00  0.00     0.001 A 
ATOM     42  C37 MOL d          -5.698  17.244  26.790  0.00  0.00     0.007 A 
ENDBRANCH  36  37
ENDBRANCH  22  36
ENDBRANCH   1  22
TORSDOF 14
