3u7s_ligand

Created by X-TOOL on Fri Sep 26 17:34:55 2014
 75 78  0  0  0  0  0  0  0  0999 V2000
  -10.7180   14.3630   34.9150  N 0  0  0  3  0  3
  -10.3550   14.6440   33.6300  C 0  0  0  1  0  3
   -9.9790   15.9350   33.2380  C 0  0  0  2  0  3
   -9.6060   16.1990   31.9090  C 0  0  0  2  0  3
   -9.6230   15.1720   30.9640  C 0  0  0  1  0  3
   -9.9950   13.8900   31.3650  C 0  0  0  2  0  3
  -10.3540   13.6220   32.6890  C 0  0  0  2  0  3
   -9.2000   15.4110   29.4290  S 0  0  0  1  0  4
   -8.0200   16.2280   29.3920  O 0  0  0  1  0  1
   -8.9130   14.1150   28.8640  O 0  0  0  1  0  1
  -10.3670   16.0310   28.4860  N 0  0  0  1  0  3
  -11.6980   15.4430   28.7610  C 0  0  0  3  0  4
  -12.4570   15.2260   27.4400  C 0  0  0  2  0  4
  -11.6880   14.3650   26.4470  C 0  0  0  4  0  4
  -13.8260   14.6140   27.6630  C 0  0  0  4  0  4
  -10.3660   17.5100   28.4270  C 0  0  0  3  0  4
  -10.2700   17.8980   26.9410  C 0  0  0  2  0  4
  -10.6210   19.2770   26.7080  O 0  0  0  2  0  2
   -8.8690   17.5890   26.3880  C 0  0  0  2  0  4
   -8.9040   17.8390   24.9480  N 0  0  0  2  0  3
   -8.8220   16.8810   24.0120  C 0  0  0  1  0  3
   -8.7270   15.6740   24.2470  O 0  0  0  1  0  1
   -8.8630   17.3420   22.6330  O 0  0  0  1  0  2
   -8.4530   16.4590   21.5880  C 0  0  0  2  0  4
   -9.3820   16.7760   20.4320  C 0  0  0  3  0  4
   -8.8230   17.9500   19.8440  O 0  0  0  1  0  2
   -7.4030   17.9800   20.0370  C 0  0  0  2  0  4
   -6.9880   19.2060   20.6450  O 0  0  0  1  0  2
   -6.1260   18.9590   21.7570  C 0  0  0  3  0  4
   -6.1090   17.4570   22.0200  C 0  0  0  3  0  4
   -7.0990   16.8680   21.0290  C 0  0  0  2  0  4
   -7.8380   18.5500   26.9740  C 0  0  0  3  0  4
   -6.0290   19.1830   25.3610  C 0  0  0  2  0  3
   -4.7760   18.9690   24.7940  C 0  0  0  2  0  3
   -3.9880   17.9040   25.2170  C 0  0  0  2  0  3
   -4.4450   17.0390   26.2150  C 0  0  0  2  0  3
   -5.6980   17.2440   26.7900  C 0  0  0  2  0  3
   -6.4830   18.3120   26.3570  C 0  0  0  1  0  3
  -10.7236   15.1104   35.6237  H 0  0  0  1  0  1
  -10.9864   13.4035   35.1762  H 0  0  0  1  0  1
   -9.9757   16.7379   33.9663  H 0  0  0  1  0  1
   -9.3054   17.1991   31.6182  H 0  0  0  1  0  1
  -10.0061   13.0867   30.6373  H 0  0  0  1  0  1
  -10.6318   12.6159   32.9818  H 0  0  0  1  0  1
  -12.2727   16.1258   29.4040  H 0  0  0  1  0  1
  -11.5717   14.4772   29.2721  H 0  0  0  1  0  1
  -12.6002   16.2164   26.9833  H 0  0  0  1  0  1
  -12.2806   14.2475   25.5277  H 0  0  0  1  0  1
  -11.4978   13.3760   26.8895  H 0  0  0  1  0  1
  -10.7302   14.8494   26.2064  H 0  0  0  1  0  1
  -14.3902   15.2290   28.3795  H 0  0  0  1  0  1
  -13.7117   13.5960   28.0639  H 0  0  0  1  0  1
  -14.3694   14.5730   26.7075  H 0  0  0  1  0  1
   -9.5026   17.9100   28.9789  H 0  0  0  1  0  1
  -11.2951   17.9066   28.8622  H 0  0  0  1  0  1
  -10.9923   17.2770   26.3908  H 0  0  0  1  0  1
  -10.5472   19.4691   25.7805  H 0  0  0  1  0  1
   -8.5922   16.5466   26.6044  H 0  0  0  1  0  1
   -8.9950   18.7861   24.6404  H 0  0  0  1  0  1
   -8.4781   15.4057   21.9040  H 0  0  0  1  0  1
  -10.4027   16.9692   20.7937  H 0  0  0  1  0  1
   -9.4001   15.9481   19.7080  H 0  0  0  1  0  1
   -6.8773   17.8265   19.0830  H 0  0  0  1  0  1
   -6.5020   19.4885   22.6448  H 0  0  0  1  0  1
   -5.1090   19.3082   21.5250  H 0  0  0  1  0  1
   -6.4227   17.2425   23.0523  H 0  0  0  1  0  1
   -5.1026   17.0469   21.8498  H 0  0  0  1  0  1
   -6.6368   16.0025   20.5318  H 0  0  0  1  0  1
   -7.7734   18.3928   28.0608  H 0  0  0  1  0  1
   -8.1513   19.5847   26.7711  H 0  0  0  1  0  1
   -6.6448   20.0135   25.0351  H 0  0  0  1  0  1
   -4.4129   19.6351   24.0197  H 0  0  0  1  0  1
   -3.0135   17.7439   24.7700  H 0  0  0  1  0  1
   -3.8265   16.2107   26.5411  H 0  0  0  1  0  1
   -6.0589   16.5794   27.5666  H 0  0  0  1  0  1
  2  1  1  0  0  2
  3  2  4  0  0  1
  7  2  4  0  0  1
  4  3  4  0  0  1
  5  4  4  0  0  1
  5  6  4  0  0  1
  8  5  1  0  0  2
  6  7  4  0  0  1
  8  9  2  0  0  2
  8 10  2  0  0  2
 11  8  1  0  0  2
 11 12  1  0  0  2
 16 11  1  0  0  2
 12 13  1  0  0  2
 13 14  1  0  0  2
 13 15  1  0  0  2
 17 16  1  0  0  2
 17 18  1  0  0  2
 19 17  1  0  0  2
 19 20  1  0  0  2
 32 19  1  0  0  2
 20 21  1  0  0  2
 21 22  2  0  0  2
 21 23  1  0  0  2
 23 24  1  0  0  2
 24 25  1  0  0  1
 24 31  1  0  0  1
 25 26  1  0  0  1
 27 26  1  0  0  1
 27 28  1  0  0  1
 31 27  1  0  0  1
 29 28  1  0  0  1
 30 29  1  0  0  1
 31 30  1  0  0  1
 38 32  1  0  0  2
 33 34  4  0  0  1
 33 38  4  0  0  1
 34 35  4  0  0  1
 35 36  4  0  0  1
 36 37  4  0  0  1
 37 38  4  0  0  1
  1 39  1  0  0  2
  1 40  1  0  0  2
  3 41  1  0  0  2
  4 42  1  0  0  2
  6 43  1  0  0  2
  7 44  1  0  0  2
 12 45  1  0  0  2
 12 46  1  0  0  2
 13 47  1  0  0  2
 14 48  1  0  0  2
 14 49  1  0  0  2
 14 50  1  0  0  2
 15 51  1  0  0  2
 15 52  1  0  0  2
 15 53  1  0  0  2
 16 54  1  0  0  2
 16 55  1  0  0  2
 17 56  1  0  0  2
 18 57  1  0  0  2
 19 58  1  0  0  2
 20 59  1  0  0  2
 24 60  1  0  0  2
 25 61  1  0  0  2
 25 62  1  0  0  2
 27 63  1  0  0  2
 29 64  1  0  0  2
 29 65  1  0  0  2
 30 66  1  0  0  2
 30 67  1  0  0  2
 31 68  1  0  0  2
 32 69  1  0  0  2
 32 70  1  0  0  2
 33 71  1  0  0  2
 34 72  1  0  0  2
 35 73  1  0  0  2
 36 74  1  0  0  2
 37 75  1  0  0  2
M  END
> <MOLECULAR_FORMULA>
C27H37N3O7S

> <MOLECULAR_WEIGHT>
547.4

> <NUM_HB_ATOMS>
9  

> <NUM_ROTOR>
11 

> <XLOGP2>
2.08 

$$$$
