REMARK  12 active torsions:
REMARK  status: ('A' for Active; 'I' for Inactive)
REMARK    1  A    between atoms: O1_1  and  N1_2 
REMARK       I    between atoms: N1_2  and  C1_3 
REMARK    2  A    between atoms: C1_3  and  C2_5 
REMARK    3  A    between atoms: C2_5  and  N2_6 
REMARK    4  A    between atoms: C2_5  and  C20_26 
REMARK       I    between atoms: N2_6  and  C3_7 
REMARK    5  A    between atoms: C3_7  and  C4_9 
REMARK    6  A    between atoms: C7_12  and  C8_13 
REMARK    7  A    between atoms: C9_14  and  C10_15 
REMARK    8  A    between atoms: C11_16  and  C12_17 
REMARK    9  A    between atoms: C15_20  and  N3_21 
REMARK   10  A    between atoms: C20_26  and  O4_27 
REMARK   11  A    between atoms: C20_26  and  C22_29 
REMARK   12  A    between atoms: C25_32  and  O5_33 
ROOT
ATOM      1  N2  1WN d          24.849 -11.561  -7.922  0.00  0.00    -0.340 N 
ATOM      2  C3  1WN d          25.631 -11.523  -6.716  0.00  0.00     0.252 C 
ATOM      3  O3  1WN d          26.210 -10.557  -6.343  0.00  0.00    -0.268 OA
ATOM      4  H4  1WN d          24.504 -12.441  -8.250  0.00  0.00     0.163 HD
ENDROOT
BRANCH   1   5
ATOM      5  C2  1WN d          24.544 -10.353  -8.681  0.00  0.00     0.217 C 
BRANCH   5   6
ATOM      6  C1  1WN d          23.254  -9.791  -8.065  0.00  0.00     0.267 C 
ATOM      7  N1  1WN d          23.230  -8.456  -7.532  0.00  0.00    -0.236 N 
ATOM      8  H2  1WN d          24.103  -8.021  -7.311  0.00  0.00     0.197 HD
ATOM      9  O2  1WN d          22.278 -10.470  -8.054  0.00  0.00    -0.269 OA
BRANCH   7  10
ATOM     10  O1  1WN d          22.162  -7.797  -7.325  0.00  0.00    -0.287 OA
ATOM     11  H1  1WN d          22.382  -6.943  -6.971  0.00  0.00     0.244 HD
ENDBRANCH   7  10
ENDBRANCH   5   6
BRANCH   5  12
ATOM     12  C20 1WN d          24.423 -10.688 -10.139  0.00  0.00     0.110 C 
ATOM     13  C21 1WN d          23.371 -11.696 -10.330  0.00  0.00     0.054 C 
BRANCH  12  14
ATOM     14  O4  1WN d          23.990  -9.641 -10.858  0.00  0.00    -0.383 OA
ATOM     15  H15 1WN d          23.926  -9.891 -11.772  0.00  0.00     0.211 HD
ENDBRANCH  12  14
BRANCH  12  16
ATOM     16  C22 1WN d          25.701 -11.093 -10.774  0.00  0.00    -0.022 C 
ATOM     17  C23 1WN d          25.951 -12.402 -11.300  0.00  0.00     0.013 C 
ATOM     18  C24 1WN d          27.074 -12.724 -12.073  0.00  0.00     0.037 C 
ATOM     19  C25 1WN d          28.029 -11.708 -12.269  0.00  0.00     0.065 C 
ATOM     20  C26 1WN d          27.865 -10.415 -11.671  0.00  0.00     0.037 C 
ATOM     21  C27 1WN d          26.654 -10.068 -11.038  0.00  0.00     0.013 C 
BRANCH  19  22
ATOM     22  O5  1WN d          29.166 -12.020 -12.974  0.00  0.00    -0.361 OA
ATOM     23  H21 1WN d          29.721 -11.252 -13.033  0.00  0.00     0.217 HD
ENDBRANCH  19  22
ENDBRANCH  12  16
ENDBRANCH   5  12
ENDBRANCH   1   5
BRANCH   2  24
ATOM     24  C4  1WN d          25.995 -12.828  -6.077  0.00  0.00     0.032 C 
ATOM     25  C5  1WN d          25.202 -13.927  -6.278  0.00  0.00     0.018 C 
ATOM     26  C6  1WN d          25.505 -15.140  -5.642  0.00  0.00     0.022 C 
ATOM     27  C7  1WN d          26.484 -15.133  -4.666  0.00  0.00     0.018 C 
ATOM     28  C18 1WN d          27.337 -14.050  -4.520  0.00  0.00     0.022 C 
ATOM     29  C19 1WN d          27.042 -12.843  -5.162  0.00  0.00     0.018 C 
BRANCH  27  30
ATOM     30  C8  1WN d          26.704 -16.397  -3.996  0.00  0.00    -0.053 C 
ATOM     31  C9  1WN d          26.874 -17.450  -3.472  0.00  0.00    -0.009 C 
BRANCH  31  32
ATOM     32  C10 1WN d          27.072 -18.773  -2.881  0.00  0.00    -0.009 C 
ATOM     33  C11 1WN d          27.238 -19.836  -2.462  0.00  0.00    -0.053 C 
BRANCH  33  34
ATOM     34  C12 1WN d          27.450 -21.170  -1.982  0.00  0.00     0.018 C 
ATOM     35  C13 1WN d          27.229 -22.151  -2.954  0.00  0.00     0.023 C 
ATOM     36  C14 1WN d          27.597 -23.467  -2.745  0.00  0.00     0.030 C 
ATOM     37  C15 1WN d          28.058 -23.751  -1.458  0.00  0.00     0.025 C 
ATOM     38  C16 1WN d          28.219 -22.780  -0.465  0.00  0.00     0.030 C 
ATOM     39  C17 1WN d          28.021 -21.449  -0.762  0.00  0.00     0.023 C 
BRANCH  37  40
ATOM     40  N3  1WN d          28.317 -25.114  -1.160  0.00  0.00    -0.399 N 
ATOM     41  H9  1WN d          28.659 -25.381  -0.226  0.00  0.00     0.156 HD
ATOM     42  H10 1WN d          28.163 -25.836  -1.878  0.00  0.00     0.156 HD
ENDBRANCH  37  40
ENDBRANCH  33  34
ENDBRANCH  31  32
ENDBRANCH  27  30
ENDBRANCH   2  24
TORSDOF 12
