REMARK  4 active torsions:
REMARK  status: ('A' for Active; 'I' for Inactive)
REMARK    1  A    between atoms: C2_1  and  CAP_13 
REMARK    2  A    between atoms: N4_20  and  C2_1 
REMARK    3  A    between atoms: C3_19  and  C5_3 
REMARK    4  A    between atoms: NAS_17  and  C3_19 
ROOT
ATOM      1  CAQ JH5 d           9.519 -14.127  -2.259  0.00  0.00     0.255 A 
ATOM      2  NAQ JH5 d           9.885 -14.746  -3.380  0.00  0.00    -0.246 N 
ATOM      3  CAR JH5 d          10.096 -13.758  -4.205  0.00  0.00     0.229 A 
ATOM      4  NAS JH5 d           9.861 -12.585  -3.618  0.00  0.00    -0.258 N 
ATOM      5  NAT JH5 d           9.514 -12.799  -2.471  0.00  0.00    -0.164 NA
ATOM      6  N4  JH5 d          10.134 -15.941  -3.699  0.00  0.00    -0.324 N 
ATOM      7  H17 JH5 d          10.090 -16.630  -2.935  0.00  0.00     0.181 HD
ENDROOT
BRANCH   6   8
ATOM      8  C2  JH5 d          10.487 -16.485  -5.054  0.00  0.00     0.178 C 
BRANCH   8   9
ATOM      9  CAP JH5 d          11.592 -16.018  -5.903  0.00  0.00    -0.039 A 
ATOM     10  CAK JH5 d          12.575 -15.050  -5.622  0.00  0.00     0.009 A 
ATOM     11  CAL JH5 d          13.565 -14.724  -6.569  0.00  0.00     0.001 A 
ATOM     12  CAM JH5 d          13.653 -15.354  -7.799  0.00  0.00     0.000 A 
ATOM     13  CAN JH5 d          12.704 -16.312  -8.104  0.00  0.00     0.001 A 
ATOM     14  CAO JH5 d          11.702 -16.629  -7.171  0.00  0.00     0.009 A 
ENDBRANCH   8   9
ENDBRANCH   6   8
BRANCH   4  15
ATOM     15  C3  JH5 d          10.078 -11.390  -4.480  0.00  0.00     0.190 C 
BRANCH  15  16
ATOM     16  C5  JH5 d           9.577 -11.783  -5.680  0.00  0.00    -0.038 A 
ATOM     17  C4  JH5 d          10.401 -12.420  -6.600  0.00  0.00     0.009 A 
ATOM     18  CAA JH5 d           9.900 -12.853  -7.817  0.00  0.00     0.001 A 
ATOM     19  CAB JH5 d           8.562 -12.648  -8.117  0.00  0.00     0.000 A 
ATOM     20  CAC JH5 d           7.746 -12.019  -7.188  0.00  0.00     0.001 A 
ATOM     21  CAD JH5 d           8.239 -11.594  -5.966  0.00  0.00     0.009 A 
ENDBRANCH  15  16
ENDBRANCH   4  15
TORSDOF 4
