REMARK  6 active torsions:
REMARK  status: ('A' for Active; 'I' for Inactive)
REMARK    1  A    between atoms: P_1  and  O5'_5 
REMARK    2  A    between atoms: O5'_5  and  C5'_6 
REMARK    3  A    between atoms: C5'_6  and  C4'_7 
REMARK    4  A    between atoms: C3'_9  and  O3'_10 
REMARK    5  A    between atoms: C2'_11  and  O2'_12 
REMARK    6  A    between atoms: C1'_13  and  N9_14 
ROOT
ATOM      1  C4' IMP d          27.487   7.254   8.795  0.00  0.00     0.180 C 
ATOM      2  O4' IMP d          27.765   7.963   7.542  0.00  0.00    -0.353 OA
ATOM      3  C3' IMP d          26.247   6.423   8.493  0.00  0.00     0.182 C 
ATOM      4  C2' IMP d          25.421   7.324   7.609  0.00  0.00     0.198 C 
ATOM      5  C1' IMP d          26.507   8.163   6.900  0.00  0.00     0.262 C 
ENDROOT
BRANCH   5   6
ATOM      6  N9  IMP d          26.691   7.650   5.517  0.00  0.00    -0.294 N 
ATOM      7  C4  IMP d          25.862   8.007   4.474  0.00  0.00     0.169 A 
ATOM      8  C5  IMP d          26.364   7.362   3.367  0.00  0.00     0.172 A 
ATOM      9  N3  IMP d          24.805   8.816   4.550  0.00  0.00    -0.223 NA
ATOM     10  N7  IMP d          27.427   6.573   3.722  0.00  0.00    -0.234 NA
ATOM     11  C6  IMP d          25.705   7.534   2.118  0.00  0.00     0.279 A 
ATOM     12  C8  IMP d          27.602   6.769   4.995  0.00  0.00     0.214 A 
ATOM     13  N1  IMP d          24.578   8.389   2.199  0.00  0.00    -0.316 N 
ATOM     14  O6  IMP d          25.998   7.022   1.039  0.00  0.00    -0.265 OA
ATOM     15  C2  IMP d          24.190   9.010   3.374  0.00  0.00     0.212 A 
ATOM     16  H10 IMP d          24.040   8.551   1.372  0.00  0.00     0.170 HD
ENDBRANCH   5   6
BRANCH   4  17
ATOM     17  O2' IMP d          24.514   8.121   8.338  0.00  0.00    -0.388 OA
ATOM     18  H7  IMP d          23.868   7.563   8.755  0.00  0.00     0.210 HD
ENDBRANCH   4  17
BRANCH   1  19
ATOM     19  C5' IMP d          28.810   6.594   9.101  0.00  0.00     0.217 C 
BRANCH  19  20
ATOM     20  O5' IMP d          29.189   5.541   8.206  0.00  0.00    -0.280 OA
BRANCH  20  21
ATOM     21  P   IMP d          30.597   4.838   8.520  0.00  0.00     0.422 P 
ATOM     22  O3P IMP d          30.903   5.283   9.969  0.00  0.00    -0.617 OA
ATOM     23  O2P IMP d          30.390   3.361   8.405  0.00  0.00    -0.617 OA
ATOM     24  O1P IMP d          31.660   5.252   7.552  0.00  0.00    -0.617 OA
ENDBRANCH  20  21
ENDBRANCH  19  20
ENDBRANCH   1  19
BRANCH   3  25
ATOM     25  O3' IMP d          25.497   6.100   9.656  0.00  0.00    -0.390 OA
ATOM     26  H5  IMP d          25.281   6.898  10.124  0.00  0.00     0.210 HD
ENDBRANCH   3  25
TORSDOF 6
