REMARK  12 active torsions:
REMARK  status: ('A' for Active; 'I' for Inactive)
REMARK    1  A    between atoms: N01_1  and  C08_8 
REMARK    2  A    between atoms: N03_3  and  C23_23 
REMARK    3  A    between atoms: C04_4  and  C41_41 
REMARK    4  A    between atoms: C05_5  and  O30_30 
REMARK    5  A    between atoms: C06_6  and  O31_31 
REMARK    6  A    between atoms: C07_7  and  C32_32 
REMARK    7  A    between atoms: C08_8  and  C09_9 
REMARK    8  A    between atoms: C41_41  and  O16_16 
REMARK    9  A    between atoms: O16_16  and  C17_17 
REMARK   10  A    between atoms: C23_23  and  C24_24 
REMARK   11  A    between atoms: C32_32  and  O33_33 
REMARK   12  A    between atoms: O33_33  and  C34_34 
ROOT
ATOM      1  N01 NMB d          11.288  23.491   5.863  0.00  0.00    -0.281 N 
ATOM      2  S02 NMB d          11.752  21.994   6.409  0.00  0.00     0.320 S 
ATOM      3  N03 NMB d          13.339  22.051   6.143  0.00  0.00    -0.281 N 
ATOM      4  C04 NMB d          13.718  21.882   4.715  0.00  0.00     0.153 C 
ATOM      5  C05 NMB d          13.866  23.222   4.019  0.00  0.00     0.174 C 
ATOM      6  C06 NMB d          12.964  24.314   4.550  0.00  0.00     0.174 C 
ATOM      7  C07 NMB d          11.470  24.031   4.534  0.00  0.00     0.153 C 
ATOM      8  O15 NMB d          11.195  20.919   5.621  0.00  0.00    -0.182 OA
ATOM      9  O40 NMB d          11.563  21.966   7.821  0.00  0.00    -0.182 OA
ENDROOT
BRANCH   4  10
ATOM     10  C41 NMB d          14.980  21.017   4.548  0.00  0.00     0.204 C 
BRANCH  10  11
ATOM     11  O16 NMB d          14.762  20.021   3.521  0.00  0.00    -0.349 OA
BRANCH  11  12
ATOM     12  C17 NMB d          15.758  19.150   3.211  0.00  0.00     0.068 A 
ATOM     13  C22 NMB d          15.866  18.632   1.912  0.00  0.00     0.037 A 
ATOM     14  C21 NMB d          16.880  17.726   1.585  0.00  0.00     0.003 A 
ATOM     15  C20 NMB d          17.804  17.334   2.569  0.00  0.00     0.000 A 
ATOM     16  C19 NMB d          17.711  17.848   3.882  0.00  0.00     0.003 A 
ATOM     17  C18 NMB d          16.685  18.752   4.198  0.00  0.00     0.037 A 
ENDBRANCH  11  12
ENDBRANCH  10  11
ENDBRANCH   4  10
BRANCH   3  18
ATOM     18  C23 NMB d          14.199  22.696   7.160  0.00  0.00     0.176 C 
BRANCH  18  19
ATOM     19  C24 NMB d          15.185  21.856   7.925  0.00  0.00    -0.040 A 
ATOM     20  C29 NMB d          16.558  21.938   7.631  0.00  0.00     0.009 A 
ATOM     21  C28 NMB d          17.495  21.147   8.336  0.00  0.00     0.001 A 
ATOM     22  C27 NMB d          17.061  20.260   9.346  0.00  0.00     0.000 A 
ATOM     23  C26 NMB d          15.687  20.170   9.651  0.00  0.00     0.001 A 
ATOM     24  C25 NMB d          14.748  20.969   8.940  0.00  0.00     0.009 A 
ENDBRANCH  18  19
ENDBRANCH   3  18
BRANCH   5  25
ATOM     25  O30 NMB d          15.185  23.696   4.171  0.00  0.00    -0.391 OA
ATOM     26  H24 NMB d          15.271  24.535   3.733  0.00  0.00     0.210 HD
ENDBRANCH   5  25
BRANCH   6  27
ATOM     27  O31 NMB d          13.282  25.492   3.848  0.00  0.00    -0.391 OA
ATOM     28  H25 NMB d          14.195  25.710   3.995  0.00  0.00     0.210 HD
ENDBRANCH   6  27
BRANCH   1  29
ATOM     29  C08 NMB d          10.097  23.950   6.436  0.00  0.00     0.176 C 
BRANCH  29  30
ATOM     30  C09 NMB d           9.759  25.135   7.273  0.00  0.00    -0.040 A 
ATOM     31  C14 NMB d          10.716  25.613   8.206  0.00  0.00     0.009 A 
ATOM     32  C13 NMB d          10.431  26.739   9.009  0.00  0.00     0.001 A 
ATOM     33  C12 NMB d           9.185  27.378   8.869  0.00  0.00     0.000 A 
ATOM     34  C11 NMB d           8.230  26.897   7.929  0.00  0.00     0.001 A 
ATOM     35  C10 NMB d           8.526  25.784   7.141  0.00  0.00     0.009 A 
ENDBRANCH  29  30
ENDBRANCH   1  29
BRANCH   7  36
ATOM     36  C32 NMB d          10.812  23.139   3.466  0.00  0.00     0.204 C 
BRANCH  36  37
ATOM     37  O33 NMB d           9.388  23.235   3.713  0.00  0.00    -0.349 OA
BRANCH  37  38
ATOM     38  C34 NMB d           8.638  24.096   2.999  0.00  0.00     0.068 A 
ATOM     39  C39 NMB d           7.299  23.816   2.745  0.00  0.00     0.037 A 
ATOM     40  C38 NMB d           6.507  24.722   2.007  0.00  0.00     0.003 A 
ATOM     41  C37 NMB d           7.065  25.914   1.516  0.00  0.00     0.000 A 
ATOM     42  C36 NMB d           8.412  26.203   1.767  0.00  0.00     0.003 A 
ATOM     43  C35 NMB d           9.186  25.297   2.506  0.00  0.00     0.037 A 
ENDBRANCH  37  38
ENDBRANCH  36  37
ENDBRANCH   7  36
TORSDOF 12
