REMARK  4 active torsions:
REMARK  status: ('A' for Active; 'I' for Inactive)
REMARK    1  A    between atoms: NAM_13  and  CAP_16 
REMARK    2  A    between atoms: CAQ_17  and  NAM_13 
REMARK    3  A    between atoms: CAR_18  and  CAN_14 
REMARK    4  A    between atoms: CAO_15  and  CAS_19 
ROOT
ATOM      1  NAM MOL d           7.489   1.879  29.117  0.00  0.00    -0.354 N 
ATOM      2  H   MOL d           6.910   2.485  28.519  0.00  0.00     0.166 HD
ENDROOT
BRANCH   1   3
ATOM      3  CAP MOL d           8.677   1.467  28.566  0.00  0.00     0.049 A 
ATOM      4  CAI MOL d           9.501   0.519  29.180  0.00  0.00     0.030 A 
ATOM      5  CAE MOL d          10.705   0.115  28.614  0.00  0.00     0.002 A 
ATOM      6  CAG MOL d          11.101   0.647  27.395  0.00  0.00     0.001 A 
ATOM      7  CAK MOL d          10.290   1.577  26.755  0.00  0.00     0.021 A 
ATOM      8  CAR MOL d           9.089   1.984  27.332  0.00  0.00     0.067 A 
BRANCH   8   9
ATOM      9  CAN MOL d           8.279   2.990  26.569  0.00  0.00     0.211 C 
ATOM     10  OAA MOL d           7.374   3.646  27.131  0.00  0.00    -0.644 OA
ATOM     11  OAC MOL d           8.527   3.156  25.352  0.00  0.00    -0.644 OA
ENDBRANCH   8   9
ENDBRANCH   1   3
BRANCH   1  12
ATOM     12  CAQ MOL d           6.965   1.596  30.354  0.00  0.00     0.049 A 
ATOM     13  CAJ MOL d           7.746   1.406  31.493  0.00  0.00     0.030 A 
ATOM     14  CAF MOL d           7.158   1.121  32.718  0.00  0.00     0.002 A 
ATOM     15  CAH MOL d           5.774   1.036  32.827  0.00  0.00     0.001 A 
ATOM     16  CAL MOL d           4.977   1.243  31.702  0.00  0.00     0.021 A 
ATOM     17  CAS MOL d           5.579   1.523  30.479  0.00  0.00     0.067 A 
BRANCH  17  18
ATOM     18  CAO MOL d           4.703   1.745  29.285  0.00  0.00     0.211 C 
ATOM     19  OAB MOL d           3.583   1.173  29.205  0.00  0.00    -0.644 OA
ATOM     20  OAD MOL d           5.117   2.524  28.398  0.00  0.00    -0.644 OA
ENDBRANCH  17  18
ENDBRANCH   1  12
TORSDOF 4
