REMARK  5 active torsions:
REMARK  status: ('A' for Active; 'I' for Inactive)
REMARK    1  A    between atoms: C2_2  and  O2_3 
REMARK    2  A    between atoms: C3_4  and  O3_5 
REMARK    3  A    between atoms: C4_6  and  O4_7 
REMARK    4  A    between atoms: C5_8  and  C6_10 
REMARK    5  A    between atoms: C6_10  and  O6_11 
ROOT
ATOM      1  C1  DGJ d          40.092 -46.889   8.251  0.00  0.00     0.267 C 
ATOM      2  C2  DGJ d          39.602 -45.464   8.175  0.00  0.00     0.175 C 
ATOM      3  C3  DGJ d          38.726 -45.224   6.905  0.00  0.00     0.179 C 
ATOM      4  C4  DGJ d          39.519 -45.667   5.689  0.00  0.00     0.182 C 
ATOM      5  C5  DGJ d          39.819 -47.132   5.865  0.00  0.00     0.240 C 
ATOM      6  N5  DGJ d          40.747 -47.310   6.997  0.00  0.00    -0.064 N 
ATOM      7  H   DGJ d          41.009 -48.281   7.066  0.00  0.00     0.277 HD
ATOM      8  H   DGJ d          41.571 -46.750   6.845  0.00  0.00     0.277 HD
ENDROOT
BRANCH   5   9
ATOM      9  C6  DGJ d          40.371 -47.735   4.583  0.00  0.00     0.199 C 
BRANCH   9  10
ATOM     10  O6  DGJ d          40.562 -49.145   4.815  0.00  0.00    -0.399 OA
ATOM     11  H   DGJ d          39.729 -49.544   5.038  0.00  0.00     0.209 HD
ENDBRANCH   9  10
ENDBRANCH   5   9
BRANCH   4  12
ATOM     12  O4  DGJ d          40.770 -44.925   5.649  0.00  0.00    -0.391 OA
ATOM     13  H   DGJ d          41.273 -45.196   4.890  0.00  0.00     0.210 HD
ENDBRANCH   4  12
BRANCH   3  14
ATOM     14  O3  DGJ d          38.384 -43.802   6.750  0.00  0.00    -0.390 OA
ATOM     15  H   DGJ d          37.898 -43.510   7.512  0.00  0.00     0.210 HD
ENDBRANCH   3  14
BRANCH   2  16
ATOM     16  O2  DGJ d          38.834 -45.239   9.310  0.00  0.00    -0.391 OA
ATOM     17  H   DGJ d          38.103 -45.846   9.322  0.00  0.00     0.210 HD
ENDBRANCH   2  16
TORSDOF 5
