REMARK  3 active torsions:
REMARK  status: ('A' for Active; 'I' for Inactive)
REMARK    1  A    between atoms: C1_1  and  C2_4 
REMARK    2  A    between atoms: C2_4  and  C3_5 
REMARK    3  A    between atoms: C3_5  and  C1'_6 
ROOT
ATOM      1  C1' HCI d          74.695  53.918  31.379  0.00  0.00    -0.058 A 
ATOM      2  C2' HCI d          75.919  53.898  30.710  0.00  0.00     0.007 A 
ATOM      3  C3' HCI d          76.206  52.891  29.789  0.00  0.00     0.001 A 
ATOM      4  C4' HCI d          75.275  51.878  29.568  0.00  0.00     0.000 A 
ATOM      5  C5' HCI d          74.054  51.880  30.244  0.00  0.00     0.001 A 
ATOM      6  C6' HCI d          73.760  52.897  31.150  0.00  0.00     0.007 A 
ENDROOT
BRANCH   1   7
ATOM      7  C3  HCI d          74.408  55.038  32.364  0.00  0.00     0.049 C 
BRANCH   7   8
ATOM      8  C2  HCI d          74.530  54.490  33.787  0.00  0.00     0.117 C 
BRANCH   8   9
ATOM      9  C1  HCI d          73.282  53.734  34.195  0.00  0.00     0.172 C 
ATOM     10  O1  HCI d          72.153  54.197  34.041  0.00  0.00    -0.648 OA
ATOM     11  O2  HCI d          73.429  52.553  34.774  0.00  0.00    -0.648 OA
ENDBRANCH   8   9
ENDBRANCH   7   8
ENDBRANCH   1   7
TORSDOF 3
