REMARK  4 active torsions:
REMARK  status: ('A' for Active; 'I' for Inactive)
REMARK    1  A    between atoms: CAM_3  and  OAB_4 
REMARK    2  A    between atoms: CAP_7  and  CAQ_8 
REMARK    3  A    between atoms: CAN_16  and  OAC_17 
REMARK    4  A    between atoms: CAO_19  and  OAD_20 
ROOT
ATOM      1  CAQ AGI d          21.514  42.533  38.255  0.00  0.00     0.090 A 
ATOM      2  OAL AGI d          22.504  43.128  37.566  0.00  0.00    -0.309 OA
ATOM      3  CAJ AGI d          20.475  41.878  37.631  0.00  0.00     0.094 A 
ATOM      4  CAR AGI d          20.437  41.781  36.274  0.00  0.00     0.190 A 
ATOM      5  OAA AGI d          19.517  41.178  35.726  0.00  0.00    -0.287 OA
ATOM      6  CAT AGI d          21.416  42.424  35.570  0.00  0.00     0.081 A 
ATOM      7  CAS AGI d          22.416  43.094  36.233  0.00  0.00     0.095 A 
ATOM      8  CAK AGI d          23.389  43.761  35.538  0.00  0.00     0.075 A 
ATOM      9  CAN AGI d          23.335  43.741  34.165  0.00  0.00     0.071 A 
ATOM     10  CAI AGI d          22.328  43.068  33.492  0.00  0.00     0.074 A 
ATOM     11  CAO AGI d          21.364  42.410  34.205  0.00  0.00     0.085 A 
ENDROOT
BRANCH   1  12
ATOM     12  CAP AGI d          21.535  42.559  39.612  0.00  0.00    -0.002 A 
ATOM     13  CAG AGI d          21.333  43.748  40.284  0.00  0.00     0.017 A 
ATOM     14  CAE AGI d          21.353  43.755  41.636  0.00  0.00     0.037 A 
ATOM     15  CAM AGI d          21.566  42.564  42.296  0.00  0.00     0.065 A 
ATOM     16  CAF AGI d          21.763  41.371  41.638  0.00  0.00     0.037 A 
ATOM     17  CAH AGI d          21.748  41.374  40.287  0.00  0.00     0.017 A 
BRANCH  15  18
ATOM     18  OAB AGI d          21.583  42.564  43.622  0.00  0.00    -0.361 OA
ATOM     19  H3  AGI d          21.739  41.681  43.936  0.00  0.00     0.217 HD
ENDBRANCH  15  18
ENDBRANCH   1  12
BRANCH  11  20
ATOM     20  OAD AGI d          20.359  41.739  33.618  0.00  0.00    -0.360 OA
ATOM     21  H10 AGI d          19.802  41.356  34.286  0.00  0.00     0.217 HD
ENDBRANCH  11  20
BRANCH   9  22
ATOM     22  OAC AGI d          24.298  44.376  33.514  0.00  0.00    -0.361 OA
ATOM     23  H8  AGI d          24.154  44.293  32.579  0.00  0.00     0.217 HD
ENDBRANCH   9  22
TORSDOF 4
