REMARK  9 active torsions:
REMARK  status: ('A' for Active; 'I' for Inactive)
REMARK    1  A    between atoms: C65_1  and  C34_10 
REMARK    2  A    between atoms: C61_6  and  C25_7 
REMARK    3  A    between atoms: C25_7  and  N43_8 
REMARK    4  A    between atoms: C34_10  and  C31_11 
REMARK    5  A    between atoms: C31_11  and  N29_23 
REMARK    6  A    between atoms: C31_11  and  C35_12 
REMARK       I    between atoms: C35_12  and  N81_14 
REMARK    7  A    between atoms: C71_15  and  C91_20 
REMARK    8  A    between atoms: N29_23  and  S12_24 
REMARK    9  A    between atoms: S12_24  and  C2_27 
ROOT
ATOM      1  C31 FD1 d          -1.562  18.898  17.730  0.00  0.00     0.189 C 
ENDROOT
BRANCH   1   2
ATOM      2  C34 FD1 d          -2.496  17.769  18.195  0.00  0.00     0.074 C 
BRANCH   2   3
ATOM      3  C65 FD1 d          -1.946  16.358  17.919  0.00  0.00    -0.055 A 
ATOM      4  C64 FD1 d          -1.209  15.657  18.908  0.00  0.00     0.007 A 
ATOM      5  C63 FD1 d          -0.712  14.370  18.644  0.00  0.00     0.002 A 
ATOM      6  C62 FD1 d          -0.951  13.774  17.388  0.00  0.00     0.015 A 
ATOM      7  C61 FD1 d          -1.685  14.466  16.394  0.00  0.00     0.007 A 
ATOM      8  C66 FD1 d          -2.172  15.750  16.669  0.00  0.00     0.022 A 
BRANCH   7   9
ATOM      9  C25 FD1 d          -1.939  13.837  15.052  0.00  0.00     0.102 C 
ATOM     10  N54 FD1 d          -2.559  14.517  14.114  0.00  0.00    -0.385 N 
ATOM     11  H7  FD1 d          -2.875  15.480  14.299  0.00  0.00     0.157 HD
ATOM     12  H8  FD1 d          -2.729  14.087  13.193  0.00  0.00     0.157 HD
BRANCH   9  13
ATOM     13  N43 FD1 d          -1.530  12.622  14.845  0.00  0.00    -0.385 N 
ATOM     14  H5  FD1 d          -1.694  12.172  13.933  0.00  0.00     0.157 HD
ATOM     15  H6  FD1 d          -1.042  12.108  15.593  0.00  0.00     0.157 HD
ENDBRANCH   9  13
ENDBRANCH   7   9
ENDBRANCH   2   3
ENDBRANCH   1   2
BRANCH   1  16
ATOM     16  N29 FD1 d          -1.763  19.227  16.313  0.00  0.00    -0.301 N 
ATOM     17  H21 FD1 d          -1.663  18.520  15.613  0.00  0.00     0.173 HD
BRANCH  16  18
ATOM     18  S12 FD1 d          -2.170  20.831  15.868  0.00  0.00     0.259 S 
ATOM     19  O33 FD1 d          -3.081  21.379  16.816  0.00  0.00    -0.201 OA
ATOM     20  O32 FD1 d          -2.450  20.876  14.461  0.00  0.00    -0.201 OA
BRANCH  18  21
ATOM     21  C2  FD1 d          -0.652  21.613  16.082  0.00  0.00     0.080 A 
ATOM     22  C1  FD1 d          -0.560  22.748  16.874  0.00  0.00     0.037 A 
ATOM     23  C9  FD1 d           0.682  23.406  17.038  0.00  0.00    -0.025 A 
ATOM     24  C10 FD1 d           1.852  22.900  16.368  0.00  0.00    -0.026 A 
ATOM     25  C8  FD1 d           0.766  24.569  17.866  0.00  0.00     0.012 A 
ATOM     26  C4  FD1 d           1.743  21.734  15.542  0.00  0.00     0.014 A 
ATOM     27  C5  FD1 d           3.089  23.591  16.551  0.00  0.00     0.012 A 
ATOM     28  C3  FD1 d           0.473  21.099  15.400  0.00  0.00     0.026 A 
ATOM     29  C6  FD1 d           3.156  24.765  17.391  0.00  0.00     0.001 A 
ATOM     30  C7  FD1 d           1.996  25.238  18.041  0.00  0.00     0.001 A 
ENDBRANCH  18  21
ENDBRANCH  16  18
ENDBRANCH   1  16
BRANCH   1  31
ATOM     31  C35 FD1 d          -0.087  18.668  18.021  0.00  0.00     0.244 C 
ATOM     32  N81 FD1 d           0.501  19.023  19.210  0.00  0.00    -0.336 N 
ATOM     33  C75 FD1 d           1.778  18.395  19.613  0.00  0.00     0.127 C 
ATOM     34  C71 FD1 d          -0.247  19.815  20.232  0.00  0.00     0.188 C 
ATOM     35  C74 FD1 d           2.715  19.571  19.948  0.00  0.00     0.020 C 
ATOM     36  C40 FD1 d           2.067  20.697  20.695  0.00  0.00     0.004 C 
ATOM     37  C72 FD1 d           0.653  21.023  20.592  0.00  0.00     0.036 C 
ATOM     38  O36 FD1 d           0.534  18.136  17.100  0.00  0.00    -0.271 OA
BRANCH  34  39
ATOM     39  C91 FD1 d          -0.582  18.988  21.449  0.00  0.00     0.196 C 
ATOM     40  O93 FD1 d          -0.501  17.715  21.405  0.00  0.00    -0.646 OA
ATOM     41  O92 FD1 d          -0.965  19.546  22.522  0.00  0.00    -0.646 OA
ENDBRANCH  34  39
ENDBRANCH   1  31
TORSDOF 9
