REMARK  1 active torsions:
REMARK  status: ('A' for Active; 'I' for Inactive)
REMARK    1  A    between atoms: CAR_6  and  CAQ_7 
ROOT
ATOM      1  CAQ 1M1 d          25.379  -7.838 -14.619  0.00  0.00     0.244 C 
ATOM      2  NAE 1M1 d          24.703  -7.472 -13.348  0.00  0.00    -0.301 N 
ATOM      3  CAD 1M1 d          23.497  -6.804 -13.173  0.00  0.00     0.067 A 
ATOM      4  CAI 1M1 d          22.665  -6.129 -14.128  0.00  0.00     0.032 A 
ATOM      5  CAH 1M1 d          21.500  -5.556 -13.638  0.00  0.00     0.002 A 
ATOM      6  CAG 1M1 d          21.196  -5.607 -12.262  0.00  0.00     0.002 A 
ATOM      7  CAF 1M1 d          22.039  -6.289 -11.341  0.00  0.00     0.034 A 
ATOM      8  CAC 1M1 d          23.178  -6.915 -11.873  0.00  0.00     0.086 A 
ATOM      9  NAB 1M1 d          24.178  -7.584 -11.196  0.00  0.00    -0.228 NA
ATOM     10  CAA 1M1 d          25.042  -8.012 -12.124  0.00  0.00     0.145 C 
ATOM     11  CAJ 1M1 d          26.274  -8.697 -11.967  0.00  0.00     0.036 A 
ATOM     12  CAK 1M1 d          26.666  -9.179 -10.684  0.00  0.00     0.017 A 
ATOM     13  CAL 1M1 d          27.950  -9.747 -10.614  0.00  0.00     0.001 A 
ATOM     14  CAM 1M1 d          28.833  -9.835 -11.723  0.00  0.00     0.002 A 
ATOM     15  CAN 1M1 d          28.419  -9.306 -12.921  0.00  0.00     0.030 A 
ATOM     16  CAO 1M1 d          27.157  -8.691 -13.030  0.00  0.00     0.044 A 
ATOM     17  NAP 1M1 d          26.792  -8.153 -14.318  0.00  0.00    -0.362 N 
ATOM     18  H14 1M1 d          27.518  -7.988 -15.030  0.00  0.00     0.162 HD
ENDROOT
BRANCH   1  19
ATOM     19  CAR 1M1 d          24.617  -8.964 -15.295  0.00  0.00     0.076 A 
ATOM     20  CAS 1M1 d          23.499  -8.545 -15.936  0.00  0.00     0.031 A 
ATOM     21  CAT 1M1 d          22.765  -9.529 -16.475  0.00  0.00     0.003 A 
ATOM     22  CAU 1M1 d          23.089 -10.866 -16.489  0.00  0.00     0.019 A 
ATOM     23  CAV 1M1 d          24.205 -11.250 -15.869  0.00  0.00     0.117 A 
ATOM     24  NAW 1M1 d          24.967 -10.279 -15.232  0.00  0.00    -0.262 NA
ENDBRANCH   1  19
TORSDOF 1
