REMARK  14 active torsions:
REMARK  status: ('A' for Active; 'I' for Inactive)
REMARK    1  A    between atoms: C3_2  and  C30_14 
REMARK    2  A    between atoms: C4_3  and  O4_39 
REMARK    3  A    between atoms: C5_4  and  O5_40 
REMARK    4  A    between atoms: C6_5  and  C60_21 
REMARK    5  A    between atoms: N2_36  and  C20_6 
REMARK    6  A    between atoms: C20_6  and  C21_7 
REMARK    7  A    between atoms: C24_10  and  C27_13 
REMARK    8  A    between atoms: C27_13  and  O27_41 
REMARK    9  A    between atoms: C30_14  and  C31_15 
REMARK   10  A    between atoms: C60_21  and  C61_22 
REMARK   11  A    between atoms: N7_37  and  C70_28 
REMARK   12  A    between atoms: C70_28  and  C71_29 
REMARK   13  A    between atoms: C74_32  and  C77_35 
REMARK   14  A    between atoms: C77_35  and  O77_42 
ROOT
ATOM      1  C1  DMP d          -8.777  15.301  27.889  0.00  0.00     0.322 C 
ATOM      2  C3  DMP d          -8.710  17.600  26.924  0.00  0.00     0.124 C 
ATOM      3  C4  DMP d         -10.087  18.186  27.182  0.00  0.00     0.172 C 
ATOM      4  C5  DMP d         -10.493  17.964  28.620  0.00  0.00     0.172 C 
ATOM      5  C6  DMP d         -10.788  16.495  28.841  0.00  0.00     0.124 C 
ATOM      6  N2  DMP d          -8.594  16.130  26.843  0.00  0.00    -0.322 N 
ATOM      7  N7  DMP d          -9.638  15.553  28.893  0.00  0.00    -0.322 N 
ATOM      8  O1  DMP d          -8.127  14.267  27.932  0.00  0.00    -0.247 OA
ENDROOT
BRANCH   6   9
ATOM      9  C20 DMP d          -8.025  15.516  25.646  0.00  0.00     0.166 C 
BRANCH   9  10
ATOM     10  C21 DMP d          -8.545  15.943  24.302  0.00  0.00    -0.040 A 
ATOM     11  C26 DMP d          -7.564  16.285  23.360  0.00  0.00     0.009 A 
ATOM     12  C25 DMP d          -7.944  16.621  22.057  0.00  0.00     0.010 A 
ATOM     13  C24 DMP d          -9.304  16.636  21.683  0.00  0.00    -0.035 A 
ATOM     14  C23 DMP d         -10.304  16.294  22.635  0.00  0.00     0.010 A 
ATOM     15  C22 DMP d          -9.921  15.949  23.957  0.00  0.00     0.009 A 
BRANCH  13  16
ATOM     16  C27 DMP d          -9.680  17.014  20.263  0.00  0.00     0.202 C 
BRANCH  16  17
ATOM     17  O27 DMP d          -8.804  18.023  19.736  0.00  0.00    -0.396 OA
ATOM     18  H37 DMP d          -9.066  18.236  18.848  0.00  0.00     0.209 HD
ENDBRANCH  16  17
ENDBRANCH  13  16
ENDBRANCH   9  10
ENDBRANCH   6   9
BRANCH   2  19
ATOM     19  C30 DMP d          -7.590  18.146  27.835  0.00  0.00     0.066 C 
BRANCH  19  20
ATOM     20  C31 DMP d          -6.219  17.996  27.215  0.00  0.00    -0.056 A 
ATOM     21  C36 DMP d          -5.892  18.756  26.061  0.00  0.00     0.007 A 
ATOM     22  C35 DMP d          -4.644  18.567  25.440  0.00  0.00     0.001 A 
ATOM     23  C34 DMP d          -3.729  17.633  25.984  0.00  0.00     0.000 A 
ATOM     24  C33 DMP d          -4.053  16.894  27.141  0.00  0.00     0.001 A 
ATOM     25  C32 DMP d          -5.303  17.073  27.759  0.00  0.00     0.007 A 
ENDBRANCH  19  20
ENDBRANCH   2  19
BRANCH   7  26
ATOM     26  C70 DMP d          -9.476  14.679  30.041  0.00  0.00     0.166 C 
BRANCH  26  27
ATOM     27  C71 DMP d          -9.556  15.315  31.388  0.00  0.00    -0.040 A 
ATOM     28  C76 DMP d          -8.871  16.510  31.725  0.00  0.00     0.009 A 
ATOM     29  C75 DMP d          -8.969  17.013  33.041  0.00  0.00     0.010 A 
ATOM     30  C74 DMP d          -9.755  16.300  33.991  0.00  0.00    -0.035 A 
ATOM     31  C73 DMP d         -10.431  15.113  33.623  0.00  0.00     0.010 A 
ATOM     32  C72 DMP d         -10.336  14.618  32.323  0.00  0.00     0.009 A 
BRANCH  30  33
ATOM     33  C77 DMP d          -9.855  16.791  35.414  0.00  0.00     0.202 C 
BRANCH  33  34
ATOM     34  O77 DMP d         -11.157  16.528  35.967  0.00  0.00    -0.396 OA
ATOM     35  H38 DMP d         -11.190  16.847  36.861  0.00  0.00     0.209 HD
ENDBRANCH  33  34
ENDBRANCH  30  33
ENDBRANCH  26  27
ENDBRANCH   7  26
BRANCH   3  36
ATOM     36  O4  DMP d          -9.977  19.549  26.867  0.00  0.00    -0.391 OA
ATOM     37  H35 DMP d         -10.814  19.974  27.009  0.00  0.00     0.210 HD
ENDBRANCH   3  36
BRANCH   5  38
ATOM     38  C60 DMP d         -11.906  15.921  27.933  0.00  0.00     0.066 C 
BRANCH  38  39
ATOM     39  C61 DMP d         -12.389  14.645  28.537  0.00  0.00    -0.056 A 
ATOM     40  C66 DMP d         -12.119  13.429  27.884  0.00  0.00     0.007 A 
ATOM     41  C65 DMP d         -12.397  12.217  28.547  0.00  0.00     0.001 A 
ATOM     42  C64 DMP d         -12.940  12.234  29.853  0.00  0.00     0.000 A 
ATOM     43  C63 DMP d         -13.229  13.458  30.505  0.00  0.00     0.001 A 
ATOM     44  C62 DMP d         -12.963  14.672  29.838  0.00  0.00     0.007 A 
ENDBRANCH  38  39
ENDBRANCH   5  38
BRANCH   4  45
ATOM     45  O5  DMP d         -11.698  18.588  28.911  0.00  0.00    -0.391 OA
ATOM     46  H36 DMP d         -11.613  19.523  28.763  0.00  0.00     0.210 HD
ENDBRANCH   4  45
TORSDOF 14
