REMARK  3 active torsions:
REMARK  status: ('A' for Active; 'I' for Inactive)
REMARK    1  A    between atoms: N22_2  and  CAN_15 
REMARK    2  A    between atoms: CAN_15  and  SAC_4 
REMARK    3  A    between atoms: CAO_16  and  CAQ_17 
ROOT
ATOM      1  N11 IT5 d          -4.691   4.196  10.894  0.00  0.00    -0.196 NA
ATOM      2  N22 IT5 d          -5.293   2.569  14.815  0.00  0.00    -0.367 N 
ATOM      3  CAD IT5 d          -4.416   4.379  11.991  0.00  0.00     0.074 C 
ATOM      4  CAJ IT5 d          -6.117   3.726  14.473  0.00  0.00     0.126 C 
ATOM      5  CAK IT5 d          -4.221   2.235  13.903  0.00  0.00     0.126 C 
ATOM      6  CAL IT5 d          -5.258   4.922  14.201  0.00  0.00     0.049 C 
ATOM      7  CAM IT5 d          -3.341   3.416  13.902  0.00  0.00     0.049 C 
ATOM      8  CAQ IT5 d          -4.043   4.629  13.463  0.00  0.00     0.079 C 
ENDROOT
BRANCH   8   9
ATOM      9  CAO IT5 d          -3.046   5.806  13.561  0.00  0.00    -0.035 A 
ATOM     10  CAH IT5 d          -1.957   5.884  12.621  0.00  0.00     0.009 A 
ATOM     11  CAF IT5 d          -1.045   6.926  12.674  0.00  0.00     0.001 A 
ATOM     12  CAE IT5 d          -1.195   7.935  13.688  0.00  0.00     0.000 A 
ATOM     13  CAG IT5 d          -2.255   7.844  14.625  0.00  0.00     0.001 A 
ATOM     14  CAI IT5 d          -3.183   6.799  14.582  0.00  0.00     0.009 A 
ENDBRANCH   8   9
BRANCH   2  15
ATOM     15  CAN IT5 d          -5.680   1.712  15.859  0.00  0.00     0.134 C 
ATOM     16  SAB IT5 d          -4.914   0.147  15.950  0.00  0.00    -0.053 SA
BRANCH  15  17
ATOM     17  SAC IT5 d          -7.224   1.880  16.647  0.00  0.00    -0.114 SA
ATOM     18  H1  IT5 d          -7.561   2.822  16.525  0.00  0.00     0.109 HD
ENDBRANCH  15  17
ENDBRANCH   2  15
TORSDOF 3
