REMARK  7 active torsions:
REMARK  status: ('A' for Active; 'I' for Inactive)
REMARK    1  A    between atoms: C1_1  and  O1_3 
REMARK    2  A    between atoms: C2_2  and  O2_6 
REMARK    3  A    between atoms: C3_5  and  O3_8 
REMARK    4  A    between atoms: C4_7  and  O4_10 
REMARK    5  A    between atoms: C5_9  and  C6_11 
REMARK    6  A    between atoms: C6_11  and  O6_12 
REMARK    7  A    between atoms: O6_12  and  P_13 
ROOT
ATOM      1  C1  BG6 d          12.659  -5.703  12.591  0.00  0.00     0.288 C 
ATOM      2  C2  BG6 d          11.539  -6.536  12.053  0.00  0.00     0.204 C 
ATOM      3  O5  BG6 d          13.861  -6.449  12.554  0.00  0.00    -0.349 OA
ATOM      4  C3  BG6 d          11.400  -7.888  12.762  0.00  0.00     0.183 C 
ATOM      5  C4  BG6 d          12.780  -8.585  12.770  0.00  0.00     0.180 C 
ATOM      6  C5  BG6 d          13.833  -7.629  13.325  0.00  0.00     0.180 C 
ENDROOT
BRANCH   6   7
ATOM      7  C6  BG6 d          15.253  -8.271  13.362  0.00  0.00     0.217 C 
BRANCH   7   8
ATOM      8  O6  BG6 d          15.648  -8.426  12.038  0.00  0.00    -0.280 OA
BRANCH   8   9
ATOM      9  P   BG6 d          16.978  -9.260  11.654  0.00  0.00     0.422 P 
ATOM     10  O1P BG6 d          17.164  -8.882  10.192  0.00  0.00    -0.617 OA
ATOM     11  O2P BG6 d          18.074  -8.734  12.533  0.00  0.00    -0.617 OA
ATOM     12  O3P BG6 d          16.713 -10.715  11.890  0.00  0.00    -0.617 OA
ENDBRANCH   8   9
ENDBRANCH   7   8
ENDBRANCH   6   7
BRANCH   5  13
ATOM     13  O4  BG6 d          12.723  -9.757  13.580  0.00  0.00    -0.390 OA
ATOM     14  H9  BG6 d          12.067 -10.350  13.232  0.00  0.00     0.210 HD
ENDBRANCH   5  13
BRANCH   1  15
ATOM     15  O1  BG6 d          12.867  -4.576  11.734  0.00  0.00    -0.369 OA
ATOM     16  H3  BG6 d          12.084  -4.039  11.723  0.00  0.00     0.212 HD
ENDBRANCH   1  15
BRANCH   4  17
ATOM     17  O3  BG6 d          10.413  -8.666  12.124  0.00  0.00    -0.390 OA
ATOM     18  H7  BG6 d           9.585  -8.201  12.142  0.00  0.00     0.210 HD
ENDBRANCH   4  17
BRANCH   2  19
ATOM     19  O2  BG6 d          10.318  -5.830  12.162  0.00  0.00    -0.388 OA
ATOM     20  H5  BG6 d           9.624  -6.335  11.755  0.00  0.00     0.210 HD
ENDBRANCH   2  19
TORSDOF 7
