REMARK  2 active torsions:
REMARK  status: ('A' for Active; 'I' for Inactive)
REMARK    1  A    between atoms: C4_4  and  S_7 
REMARK    2  A    between atoms: S_7  and  N2_8 
ROOT
ATOM      1  C1  FBV d          17.136   6.081  14.290  0.00  0.00     0.003 A 
ATOM      2  C2  FBV d          15.758   6.050  14.481  0.00  0.00     0.002 A 
ATOM      3  C3  FBV d          15.136   5.039  15.233  0.00  0.00     0.028 A 
ATOM      4  C4  FBV d          15.933   3.993  15.782  0.00  0.00     0.117 A 
ATOM      5  C5  FBV d          17.344   4.110  15.541  0.00  0.00     0.139 A 
ATOM      6  C6  FBV d          17.934   5.114  14.825  0.00  0.00     0.044 A 
ATOM      7  F   FBV d          18.103   3.153  16.120  0.00  0.00    -0.204 F 
ENDROOT
BRANCH   4   8
ATOM      8  S   FBV d          15.238   2.685  16.731  0.00  0.00     0.259 S 
ATOM      9  O1  FBV d          15.819   2.849  18.077  0.00  0.00    -0.201 OA
ATOM     10  O2  FBV d          13.833   2.826  16.556  0.00  0.00    -0.201 OA
BRANCH   8  11
ATOM     11  N2  FBV d          15.714   1.304  16.072  0.00  0.00    -0.324 N 
ATOM     12  H5  FBV d          15.422   0.434  16.469  0.00  0.00     0.169 HD
ATOM     13  H6  FBV d          16.303   1.312  15.264  0.00  0.00     0.169 HD
ENDBRANCH   8  11
ENDBRANCH   4   8
TORSDOF 2
