REMARK  16 active torsions:
REMARK  status: ('A' for Active; 'I' for Inactive)
REMARK    1  A    between atoms: C10_1  and  C12_4 
REMARK       I    between atoms: C12_4  and  N01_9 
REMARK    2  A    between atoms: N01_9  and  C15_10 
REMARK    3  A    between atoms: C15_10  and  C16_11 
REMARK    4  A    between atoms: C15_10  and  C17_13 
REMARK       I    between atoms: C16_11  and  N02_16 
REMARK    5  A    between atoms: N02_16  and  C22_17 
REMARK    6  A    between atoms: C22_17  and  C24_18 
REMARK    7  A    between atoms: C22_17  and  C23_25 
REMARK    8  A    between atoms: C24_18  and  C25_19 
REMARK    9  A    between atoms: C23_25  and  O42_26 
REMARK   10  A    between atoms: C23_25  and  C26_27 
REMARK   11  A    between atoms: C26_27  and  C28_28 
REMARK       I    between atoms: C28_28  and  N04_30 
REMARK   12  A    between atoms: N04_30  and  C31_31 
REMARK   13  A    between atoms: C31_31  and  C32_32 
REMARK   14  A    between atoms: C31_31  and  C33_34 
REMARK       I    between atoms: C32_32  and  N03_41 
REMARK   15  A    between atoms: C33_34  and  C34_35 
REMARK   16  A    between atoms: N03_41  and  C37_42 
ROOT
ATOM      1  C37 RSZ d          12.339   6.775  -3.413  0.00  0.00     0.122 C 
ATOM      2  C38 RSZ d          10.990   6.069  -4.277  0.00  0.00     0.015 C 
ATOM      3  C39 RSZ d           9.803   5.448  -5.037  0.00  0.00     0.006 C 
ENDROOT
BRANCH   1   4
ATOM      4  N03 RSZ d          12.200   6.917  -1.940  0.00  0.00    -0.359 N 
ATOM      5  C32 RSZ d          11.268   6.826  -0.988  0.00  0.00     0.240 C 
ATOM      6  O44 RSZ d          10.086   6.557  -1.135  0.00  0.00    -0.271 OA
ATOM      7  H36 RSZ d          13.082   7.156  -1.534  0.00  0.00     0.162 HD
BRANCH   5   8
ATOM      8  C31 RSZ d          11.841   7.087   0.377  0.00  0.00     0.180 C 
BRANCH   8   9
ATOM      9  N04 RSZ d          12.808   6.038   0.721  0.00  0.00    -0.347 N 
ATOM     10  C28 RSZ d          14.137   6.123   0.896  0.00  0.00     0.220 C 
ATOM     11  O43 RSZ d          14.761   5.119   1.197  0.00  0.00    -0.274 OA
ATOM     12  H27 RSZ d          12.420   5.125   0.843  0.00  0.00     0.163 HD
BRANCH  10  13
ATOM     13  C26 RSZ d          14.891   7.434   0.723  0.00  0.00     0.136 C 
BRANCH  13  14
ATOM     14  C23 RSZ d          16.080   7.287  -0.248  0.00  0.00     0.150 C 
BRANCH  14  15
ATOM     15  C22 RSZ d          17.035   8.488  -0.346  0.00  0.00     0.117 C 
BRANCH  15  16
ATOM     16  N02 RSZ d          16.548   9.384  -1.422  0.00  0.00    -0.352 N 
ATOM     17  C16 RSZ d          15.466  10.186  -1.490  0.00  0.00     0.241 C 
ATOM     18  O41 RSZ d          14.649  10.255  -0.578  0.00  0.00    -0.271 OA
ATOM     19  H14 RSZ d          17.122   9.396  -2.241  0.00  0.00     0.163 HD
BRANCH  17  20
ATOM     20  C15 RSZ d          15.216  11.003  -2.753  0.00  0.00     0.180 C 
BRANCH  20  21
ATOM     21  N01 RSZ d          15.027  12.446  -2.568  0.00  0.00    -0.342 N 
ATOM     22  C12 RSZ d          14.392  13.268  -1.732  0.00  0.00     0.271 C 
ATOM     23  O40 RSZ d          14.538  14.455  -1.967  0.00  0.00    -0.266 OA
ATOM     24  H5  RSZ d          15.515  12.962  -3.272  0.00  0.00     0.163 HD
BRANCH  22  25
ATOM     25  C10 RSZ d          13.523  12.934  -0.541  0.00  0.00     0.123 A 
ATOM     26  C09 RSZ d          13.569  13.815   0.561  0.00  0.00     0.037 A 
ATOM     27  C08 RSZ d          12.778  13.564   1.689  0.00  0.00     0.004 A 
ATOM     28  C07 RSZ d          11.937  12.440   1.682  0.00  0.00     0.019 A 
ATOM     29  C06 RSZ d          11.910  11.589   0.561  0.00  0.00     0.117 A 
ATOM     30  N05 RSZ d          12.682  11.851  -0.520  0.00  0.00    -0.256 NA
ENDBRANCH  22  25
ENDBRANCH  20  21
BRANCH  20  31
ATOM     31  C17 RSZ d          16.356  11.232  -3.776  0.00  0.00     0.009 C 
ATOM     32  C18 RSZ d          15.909  10.833  -5.222  0.00  0.00     0.012 C 
ATOM     33  C19 RSZ d          17.760  10.607  -3.479  0.00  0.00     0.012 C 
ENDBRANCH  20  31
ENDBRANCH  17  20
ENDBRANCH  15  16
BRANCH  15  34
ATOM     34  C24 RSZ d          17.301   9.192   1.009  0.00  0.00     0.066 C 
BRANCH  34  35
ATOM     35  C25 RSZ d          17.297  10.719   0.994  0.00  0.00    -0.056 A 
ATOM     36  C11 RSZ d          16.383  11.395   1.825  0.00  0.00     0.007 A 
ATOM     37  C13 RSZ d          16.354  12.802   1.841  0.00  0.00     0.001 A 
ATOM     38  C14 RSZ d          17.238  13.536   1.029  0.00  0.00     0.000 A 
ATOM     39  C20 RSZ d          18.155  12.862   0.200  0.00  0.00     0.001 A 
ATOM     40  C21 RSZ d          18.190  11.454   0.185  0.00  0.00     0.007 A 
ENDBRANCH  34  35
ENDBRANCH  15  34
ENDBRANCH  14  15
BRANCH  14  41
ATOM     41  O42 RSZ d          16.879   6.140   0.095  0.00  0.00    -0.393 OA
ATOM     42  H24 RSZ d          16.320   5.375   0.165  0.00  0.00     0.210 HD
ENDBRANCH  14  41
ENDBRANCH  13  14
ENDBRANCH  10  13
ENDBRANCH   8   9
BRANCH   8  43
ATOM     43  C33 RSZ d          10.764   6.981   1.470  0.00  0.00     0.073 C 
BRANCH  43  44
ATOM     44  C34 RSZ d          11.432   6.748   2.814  0.00  0.00    -0.056 A 
ATOM     45  C27 RSZ d          11.842   5.432   3.179  0.00  0.00     0.007 A 
ATOM     46  C29 RSZ d          12.479   5.211   4.397  0.00  0.00     0.001 A 
ATOM     47  C30 RSZ d          12.692   6.308   5.260  0.00  0.00     0.000 A 
ATOM     48  C35 RSZ d          12.286   7.619   4.899  0.00  0.00     0.001 A 
ATOM     49  C36 RSZ d          11.655   7.842   3.673  0.00  0.00     0.007 A 
ENDBRANCH  43  44
ENDBRANCH   8  43
ENDBRANCH   5   8
ENDBRANCH   1   4
TORSDOF 16
