3r0y_ligand

Created by X-TOOL on Fri Sep 26 17:34:56 2014
 87 89  0  0  0  0  0  0  0  0999 V2000
   13.5230   12.9340   -0.5410  C 0  0  0  1  0  3
   11.9100   11.5890    0.5610  C 0  0  0  2  0  3
   11.9370   12.4400    1.6820  C 0  0  0  2  0  3
   14.3920   13.2680   -1.7320  C 0  0  0  1  0  3
   12.7780   13.5640    1.6890  C 0  0  0  2  0  3
   13.5690   13.8150    0.5610  C 0  0  0  2  0  3
   14.5380   14.4550   -1.9670  O 0  0  0  1  0  1
   12.6820   11.8510   -0.5200  N 0  0  0  1  0  2
   15.0270   12.4460   -2.5680  N 0  0  0  2  0  3
   15.2160   11.0030   -2.7530  C 0  0  0  2  0  4
   15.4660   10.1860   -1.4900  C 0  0  0  1  0  3
   14.6490   10.2550   -0.5780  O 0  0  0  1  0  1
   16.3560   11.2320   -3.7760  C 0  0  0  2  0  4
   15.9090   10.8330   -5.2220  C 0  0  0  4  0  4
   17.7600   10.6070   -3.4790  C 0  0  0  4  0  4
   16.5480    9.3840   -1.4220  N 0  0  0  2  0  3
   17.0350    8.4880   -0.3460  C 0  0  0  2  0  4
   17.3010    9.1920    1.0090  C 0  0  0  3  0  4
   17.2970   10.7190    0.9940  C 0  0  0  1  0  3
   16.3830   11.3950    1.8250  C 0  0  0  2  0  3
   18.1900   11.4540    0.1850  C 0  0  0  2  0  3
   16.3540   12.8020    1.8410  C 0  0  0  2  0  3
   18.1550   12.8620    0.2000  C 0  0  0  2  0  3
   17.2380   13.5360    1.0290  C 0  0  0  2  0  3
   16.0800    7.2870   -0.2480  C 0  0  0  2  0  4
   16.8790    6.1400    0.0950  O 0  0  0  2  0  2
   14.8910    7.4340    0.7230  C 0  0  0  3  0  4
   14.1370    6.1230    0.8960  C 0  0  0  1  0  3
   14.7610    5.1190    1.1970  O 0  0  0  1  0  1
   12.8080    6.0380    0.7210  N 0  0  0  2  0  3
   11.8410    7.0870    0.3770  C 0  0  0  2  0  4
   11.2680    6.8260   -0.9880  C 0  0  0  1  0  3
   10.0860    6.5570   -1.1350  O 0  0  0  1  0  1
   10.7640    6.9810    1.4700  C 0  0  0  3  0  4
   11.4320    6.7480    2.8140  C 0  0  0  1  0  3
   11.8420    5.4320    3.1790  C 0  0  0  2  0  3
   11.6550    7.8420    3.6730  C 0  0  0  2  0  3
   12.4790    5.2110    4.3970  C 0  0  0  2  0  3
   12.2860    7.6190    4.8990  C 0  0  0  2  0  3
   12.6920    6.3080    5.2600  C 0  0  0  2  0  3
   12.2000    6.9170   -1.9400  N 0  0  0  2  0  3
   12.3390    6.7750   -3.4130  C 0  0  0  3  0  4
   10.9900    6.0690   -4.2770  C 0  0  0  3  0  4
    9.8030    5.4480   -5.0370  C 0  0  0  4  0  4
   11.2660   10.7170    0.5632  H 0  0  0  1  0  1
   11.3087   12.2275    2.5394  H 0  0  0  1  0  1
   12.8143   14.2232    2.5488  H 0  0  0  1  0  1
   14.2157   14.6846    0.5341  H 0  0  0  1  0  1
   15.5152   12.9619   -3.2719  H 0  0  0  1  0  1
   14.3451   10.5437   -3.2435  H 0  0  0  1  0  1
   16.5174   12.3201   -3.7825  H 0  0  0  1  0  1
   16.7385   11.0068   -5.9232  H 0  0  0  1  0  1
   15.0434   11.4429   -5.5196  H 0  0  0  1  0  1
   15.6311    9.7688   -5.2394  H 0  0  0  1  0  1
   18.0777   10.8852   -2.4633  H 0  0  0  1  0  1
   18.4914   10.9851   -4.2084  H 0  0  0  1  0  1
   17.6975    9.5115   -3.5564  H 0  0  0  1  0  1
   17.1223    9.3957   -2.2406  H 0  0  0  1  0  1
   18.0091    8.0967   -0.6747  H 0  0  0  1  0  1
   18.2873    8.8636    1.3686  H 0  0  0  1  0  1
   16.5248    8.8624    1.7153  H 0  0  0  1  0  1
   15.7017   10.8317    2.4524  H 0  0  0  1  0  1
   18.9019   10.9355   -0.4471  H 0  0  0  1  0  1
   15.6491   13.3212    2.4802  H 0  0  0  1  0  1
   18.8347   13.4272   -0.4273  H 0  0  0  1  0  1
   17.2131   14.6196    1.0416  H 0  0  0  1  0  1
   15.6514    7.1268   -1.2483  H 0  0  0  1  0  1
   16.3197    5.3752    0.1645  H 0  0  0  1  0  1
   14.1998    8.1927    0.3273  H 0  0  0  1  0  1
   15.2699    7.7588    1.7033  H 0  0  0  1  0  1
   12.4199    5.1245    0.8432  H 0  0  0  1  0  1
   12.3141    8.0799    0.3937  H 0  0  0  1  0  1
   10.0922    6.1400    1.2432  H 0  0  0  1  0  1
   10.1836    7.9147    1.5054  H 0  0  0  1  0  1
   11.6573    4.6019    2.5067  H 0  0  0  1  0  1
   11.3422    8.8398    3.3874  H 0  0  0  1  0  1
   12.8051    4.2160    4.6774  H 0  0  0  1  0  1
   12.4656    8.4474    5.5747  H 0  0  0  1  0  1
   13.1750    6.1457    6.2168  H 0  0  0  1  0  1
   13.0821    7.1559   -1.5341  H 0  0  0  1  0  1
   13.2205    6.1452   -3.6035  H 0  0  0  1  0  1
   12.5092    7.7793   -3.8281  H 0  0  0  1  0  1
   10.3549    6.0690   -3.3788  H 0  0  0  1  0  1
   10.3549    6.0690   -5.1752  H 0  0  0  1  0  1
    9.8941    5.6766   -6.1091  H 0  0  0  1  0  1
    8.8615    5.8665   -4.6517  H 0  0  0  1  0  1
    9.8056    4.3575   -4.8931  H 0  0  0  1  0  1
  1  4  1  0  0  2
  1  6  4  0  0  1
  8  1  4  0  0  1
  2  3  4  0  0  1
  2  8  4  0  0  1
  3  5  4  0  0  1
  4  7  2  0  0  2
  4  9  1  0  0  2
  5  6  4  0  0  1
  9 10  1  0  0  2
 10 11  1  0  0  2
 10 13  1  0  0  2
 11 12  2  0  0  2
 11 16  1  0  0  2
 13 14  1  0  0  2
 13 15  1  0  0  2
 16 17  1  0  0  2
 17 18  1  0  0  2
 17 25  1  0  0  2
 18 19  1  0  0  2
 19 20  4  0  0  1
 19 21  4  0  0  1
 20 22  4  0  0  1
 21 23  4  0  0  1
 22 24  4  0  0  1
 23 24  4  0  0  1
 25 26  1  0  0  2
 25 27  1  0  0  2
 27 28  1  0  0  2
 28 29  2  0  0  2
 28 30  1  0  0  2
 30 31  1  0  0  2
 31 32  1  0  0  2
 31 34  1  0  0  2
 32 33  2  0  0  2
 32 41  1  0  0  2
 34 35  1  0  0  2
 35 36  4  0  0  1
 35 37  4  0  0  1
 36 38  4  0  0  1
 37 39  4  0  0  1
 38 40  4  0  0  1
 39 40  4  0  0  1
 41 42  1  0  0  2
 42 43  1  0  0  2
 43 44  1  0  0  2
  2 45  1  0  0  2
  3 46  1  0  0  2
  5 47  1  0  0  2
  6 48  1  0  0  2
  9 49  1  0  0  2
 10 50  1  0  0  2
 13 51  1  0  0  2
 14 52  1  0  0  2
 14 53  1  0  0  2
 14 54  1  0  0  2
 15 55  1  0  0  2
 15 56  1  0  0  2
 15 57  1  0  0  2
 16 58  1  0  0  2
 17 59  1  0  0  2
 18 60  1  0  0  2
 18 61  1  0  0  2
 20 62  1  0  0  2
 21 63  1  0  0  2
 22 64  1  0  0  2
 23 65  1  0  0  2
 24 66  1  0  0  2
 25 67  1  0  0  2
 26 68  1  0  0  2
 27 69  1  0  0  2
 27 70  1  0  0  2
 30 71  1  0  0  2
 31 72  1  0  0  2
 34 73  1  0  0  2
 34 74  1  0  0  2
 36 75  1  0  0  2
 37 76  1  0  0  2
 38 77  1  0  0  2
 39 78  1  0  0  2
 40 79  1  0  0  2
 41 80  1  0  0  2
 42 81  1  0  0  2
 42 82  1  0  0  2
 43 83  1  0  0  2
 43 84  1  0  0  2
 44 85  1  0  0  2
 44 86  1  0  0  2
 44 87  1  0  0  2
M  END
> <MOLECULAR_FORMULA>
C34H43N5O5

> <MOLECULAR_WEIGHT>
601.4

> <NUM_HB_ATOMS>
10 

> <NUM_ROTOR>
15 

> <XLOGP2>
3.11 

$$$$
