REMARK  5 active torsions:
REMARK  status: ('A' for Active; 'I' for Inactive)
REMARK    1  A    between atoms: C11_1  and  C10_4 
REMARK    2  A    between atoms: C10_4  and  C9_5 
REMARK    3  A    between atoms: C9_5  and  C8_6 
REMARK    4  A    between atoms: C8_6  and  C7_7 
REMARK    5  A    between atoms: C7_7  and  C2_8 
ROOT
ATOM      1  C2  BTN d          11.952 -12.988  23.208  0.00  0.00     0.072 C 
ATOM      2  S1  BTN d          13.115 -14.110  22.348  0.00  0.00    -0.160 SA
ATOM      3  C6  BTN d          13.750 -12.712  21.385  0.00  0.00     0.101 C 
ATOM      4  C5  BTN d          13.811 -11.520  22.322  0.00  0.00     0.119 A 
ATOM      5  N1  BTN d          15.056 -11.448  23.056  0.00  0.00    -0.336 N 
ATOM      6  C3  BTN d          14.865 -11.573  24.375  0.00  0.00     0.316 A 
ATOM      7  O3  BTN d          15.748 -11.518  25.252  0.00  0.00    -0.247 OA
ATOM      8  N2  BTN d          13.553 -11.738  24.630  0.00  0.00    -0.335 N 
ATOM      9  C4  BTN d          12.747 -11.721  23.434  0.00  0.00     0.123 A 
ATOM     10  H13 BTN d          15.951 -11.320  22.629  0.00  0.00     0.164 HD
ATOM     11  H14 BTN d          13.178 -11.859  25.549  0.00  0.00     0.164 HD
ENDROOT
BRANCH   1  12
ATOM     12  C7  BTN d          11.145 -13.611  24.320  0.00  0.00     0.017 C 
BRANCH  12  13
ATOM     13  C8  BTN d          10.304 -14.862  23.933  0.00  0.00     0.002 C 
BRANCH  13  14
ATOM     14  C9  BTN d           9.583 -15.499  25.119  0.00  0.00     0.010 C 
BRANCH  14  15
ATOM     15  C10 BTN d           8.659 -16.630  24.644  0.00  0.00     0.113 C 
BRANCH  15  16
ATOM     16  C11 BTN d           7.408 -16.099  24.045  0.00  0.00     0.172 C 
ATOM     17  O12 BTN d           6.764 -16.741  23.183  0.00  0.00    -0.648 OA
ATOM     18  O11 BTN d           7.007 -14.983  24.447  0.00  0.00    -0.648 OA
ENDBRANCH  15  16
ENDBRANCH  14  15
ENDBRANCH  13  14
ENDBRANCH  12  13
ENDBRANCH   1  12
TORSDOF 5
