REMARK  10 active torsions:
REMARK  status: ('A' for Active; 'I' for Inactive)
REMARK    1  A    between atoms: N2_3  and  C2_4 
REMARK    2  A    between atoms: C2_4  and  C20_13 
REMARK    3  A    between atoms: C3_5  and  C31_23 
REMARK    4  A    between atoms: C4_6  and  O4_7 
REMARK    5  A    between atoms: C5_8  and  O5_9 
REMARK    6  A    between atoms: C6_10  and  C61_30 
REMARK    7  A    between atoms: N7_11  and  C7_12 
REMARK    8  A    between atoms: C7_12  and  C70_37 
REMARK    9  A    between atoms: C31_23  and  C32_24 
REMARK   10  A    between atoms: C61_30  and  C62_31 
ROOT
ATOM      1  C1  XK2 d          -8.611  15.060  27.954  0.00  0.00     0.322 C 
ATOM      2  O1  XK2 d          -7.939  14.039  27.941  0.00  0.00    -0.247 OA
ATOM      3  N2  XK2 d          -8.461  15.923  26.905  0.00  0.00    -0.322 N 
ATOM      4  C3  XK2 d          -8.627  17.388  27.011  0.00  0.00     0.124 C 
ATOM      5  C4  XK2 d         -10.029  17.910  27.298  0.00  0.00     0.172 C 
ATOM      6  C5  XK2 d         -10.461  17.645  28.733  0.00  0.00     0.172 C 
ATOM      7  C6  XK2 d         -10.657  16.152  28.964  0.00  0.00     0.124 C 
ATOM      8  N7  XK2 d          -9.461  15.294  29.004  0.00  0.00    -0.322 N 
ENDROOT
BRANCH   3   9
ATOM      9  C2  XK2 d          -7.854  15.351  25.696  0.00  0.00     0.166 C 
BRANCH   9  10
ATOM     10  C20 XK2 d          -8.381  15.730  24.336  0.00  0.00    -0.039 A 
ATOM     11  C21 XK2 d          -9.769  15.712  24.022  0.00  0.00     0.010 A 
ATOM     12  C22 XK2 d         -10.195  15.919  22.694  0.00  0.00     0.013 A 
ATOM     13  C23 XK2 d          -9.219  16.152  21.693  0.00  0.00    -0.026 A 
ATOM     14  C24 XK2 d          -9.608  16.304  20.349  0.00  0.00     0.012 A 
ATOM     15  C28 XK2 d          -7.828  16.192  22.022  0.00  0.00    -0.025 A 
ATOM     16  C25 XK2 d          -8.626  16.508  19.349  0.00  0.00     0.001 A 
ATOM     17  C26 XK2 d          -7.263  16.562  19.662  0.00  0.00     0.001 A 
ATOM     18  C27 XK2 d          -6.860  16.403  21.006  0.00  0.00     0.012 A 
ATOM     19  C29 XK2 d          -7.408  15.983  23.346  0.00  0.00     0.021 A 
ENDBRANCH   9  10
ENDBRANCH   3   9
BRANCH   4  20
ATOM     20  C31 XK2 d          -7.476  17.972  27.894  0.00  0.00     0.066 C 
BRANCH  20  21
ATOM     21  C32 XK2 d          -6.124  17.890  27.193  0.00  0.00    -0.056 A 
ATOM     22  C33 XK2 d          -5.226  16.826  27.494  0.00  0.00     0.007 A 
ATOM     23  C34 XK2 d          -4.029  16.667  26.750  0.00  0.00     0.001 A 
ATOM     24  C35 XK2 d          -3.730  17.585  25.723  0.00  0.00     0.000 A 
ATOM     25  C36 XK2 d          -4.607  18.660  25.432  0.00  0.00     0.001 A 
ATOM     26  C37 XK2 d          -5.803  18.811  26.163  0.00  0.00     0.007 A 
ENDBRANCH  20  21
ENDBRANCH   4  20
BRANCH   8  27
ATOM     27  C7  XK2 d          -9.271  14.491  30.215  0.00  0.00     0.166 C 
BRANCH  27  28
ATOM     28  C70 XK2 d          -9.374  15.148  31.571  0.00  0.00    -0.039 A 
ATOM     29  C71 XK2 d         -10.228  14.492  32.477  0.00  0.00     0.021 A 
ATOM     30  C72 XK2 d         -10.272  14.926  33.800  0.00  0.00    -0.025 A 
ATOM     31  C73 XK2 d         -11.156  14.282  34.709  0.00  0.00     0.012 A 
ATOM     32  C77 XK2 d          -9.455  16.028  34.212  0.00  0.00    -0.026 A 
ATOM     33  C74 XK2 d         -11.245  14.748  36.044  0.00  0.00     0.001 A 
ATOM     34  C75 XK2 d         -10.435  15.837  36.451  0.00  0.00     0.001 A 
ATOM     35  C76 XK2 d          -9.540  16.475  35.553  0.00  0.00     0.012 A 
ATOM     36  C78 XK2 d          -8.605  16.691  33.288  0.00  0.00     0.013 A 
ATOM     37  C79 XK2 d          -8.574  16.252  31.962  0.00  0.00     0.010 A 
ENDBRANCH  27  28
ENDBRANCH   8  27
BRANCH   5  38
ATOM     38  O4  XK2 d          -9.929  19.274  26.998  0.00  0.00    -0.391 OA
ATOM     39  H5  XK2 d         -10.768  19.693  27.149  0.00  0.00     0.210 HD
ENDBRANCH   5  38
BRANCH   7  40
ATOM     40  C61 XK2 d         -11.712  15.451  28.079  0.00  0.00     0.066 C 
BRANCH  40  41
ATOM     41  C62 XK2 d         -12.310  14.248  28.779  0.00  0.00    -0.056 A 
ATOM     42  C63 XK2 d         -13.167  14.422  29.898  0.00  0.00     0.007 A 
ATOM     43  C64 XK2 d         -13.700  13.281  30.542  0.00  0.00     0.001 A 
ATOM     44  C65 XK2 d         -13.374  11.982  30.058  0.00  0.00     0.000 A 
ATOM     45  C66 XK2 d         -12.529  11.814  28.944  0.00  0.00     0.001 A 
ATOM     46  C67 XK2 d         -11.992  12.954  28.304  0.00  0.00     0.007 A 
ENDBRANCH  40  41
ENDBRANCH   7  40
BRANCH   6  47
ATOM     47  O5  XK2 d         -11.692  18.254  29.020  0.00  0.00    -0.391 OA
ATOM     48  H7  XK2 d         -11.616  19.193  28.897  0.00  0.00     0.210 HD
ENDBRANCH   6  47
TORSDOF 10
