REMARK  9 active torsions:
REMARK  status: ('A' for Active; 'I' for Inactive)
REMARK    1  A    between atoms: N1_8  and  C1'_9 
REMARK    2  A    between atoms: C3'_11  and  O3'_12 
REMARK    3  A    between atoms: C4'_14  and  C5'_15 
REMARK    4  A    between atoms: C5'_15  and  O5'_16 
REMARK    5  A    between atoms: O5'_16  and  PA_17 
REMARK    6  A    between atoms: PA_17  and  N3A_20 
REMARK    7  A    between atoms: N3A_20  and  PB_21 
REMARK    8  A    between atoms: PB_21  and  O3B_24 
REMARK    9  A    between atoms: O3B_24  and  PG_25 
ROOT
ATOM      1  C1' DUP d          12.933  11.594  39.402  0.00  0.00     0.235 C 
ATOM      2  C2' DUP d          13.072  11.692  37.880  0.00  0.00     0.088 C 
ATOM      3  C3' DUP d          13.907  10.442  37.554  0.00  0.00     0.153 C 
ATOM      4  O4' DUP d          13.212  10.244  39.764  0.00  0.00    -0.356 OA
ATOM      5  C4' DUP d          13.425   9.479  38.575  0.00  0.00     0.177 C 
ENDROOT
BRANCH   5   6
ATOM      6  C5' DUP d          14.351   8.317  38.913  0.00  0.00     0.215 C 
BRANCH   6   7
ATOM      7  O5' DUP d          15.604   8.900  39.292  0.00  0.00    -0.293 OA
BRANCH   7   8
ATOM      8  PA  DUP d          16.819   7.922  39.751  0.00  0.00     0.368 P 
ATOM      9  O1A DUP d          16.874   6.781  38.737  0.00  0.00    -0.629 OA
ATOM     10  O2A DUP d          18.037   8.832  39.778  0.00  0.00    -0.629 OA
BRANCH   8  11
ATOM     11  N3A DUP d          16.426   7.408  41.230  0.00  0.00    -0.225 N 
ATOM     12  H12 DUP d          16.454   8.061  41.987  0.00  0.00     0.178 HD
BRANCH  11  13
ATOM     13  PB  DUP d          15.974   5.830  41.550  0.00  0.00     0.378 P 
ATOM     14  O1B DUP d          16.737   4.817  40.753  0.00  0.00    -0.629 OA
ATOM     15  O2B DUP d          15.991   5.675  43.069  0.00  0.00    -0.629 OA
BRANCH  13  16
ATOM     16  O3B DUP d          14.463   5.677  41.079  0.00  0.00    -0.178 OA
BRANCH  16  17
ATOM     17  PG  DUP d          13.860   4.655  40.019  0.00  0.00     0.431 P 
ATOM     18  O2G DUP d          14.718   4.695  38.788  0.00  0.00    -0.616 OA
ATOM     19  O1G DUP d          13.908   3.361  40.764  0.00  0.00    -0.616 OA
ATOM     20  O3G DUP d          12.453   5.155  39.732  0.00  0.00    -0.616 OA
ENDBRANCH  16  17
ENDBRANCH  13  16
ENDBRANCH  11  13
ENDBRANCH   8  11
ENDBRANCH   7   8
ENDBRANCH   6   7
ENDBRANCH   5   6
BRANCH   3  21
ATOM     21  O3' DUP d          13.660   9.949  36.211  0.00  0.00    -0.393 OA
ATOM     22  H8  DUP d          14.195   9.180  36.054  0.00  0.00     0.210 HD
ENDBRANCH   3  21
BRANCH   1  23
ATOM     23  N1  DUP d          13.945  12.485  40.003  0.00  0.00    -0.282 N 
ATOM     24  C6  DUP d          15.253  12.043  40.028  0.00  0.00     0.104 A 
ATOM     25  C5  DUP d          16.274  12.899  40.501  0.00  0.00     0.092 A 
ATOM     26  C4  DUP d          15.905  14.145  41.008  0.00  0.00     0.250 A 
ATOM     27  O4  DUP d          16.709  14.967  41.477  0.00  0.00    -0.268 OA
ATOM     28  N3  DUP d          14.580  14.538  40.984  0.00  0.00    -0.275 N 
ATOM     29  C2  DUP d          13.587  13.723  40.454  0.00  0.00     0.331 A 
ATOM     30  H3  DUP d          14.330  15.431  41.357  0.00  0.00     0.173 HD
ATOM     31  O2  DUP d          12.408  14.130  40.451  0.00  0.00    -0.246 OA
ENDBRANCH   1  23
TORSDOF 9
