REMARK  2 active torsions:
REMARK  status: ('A' for Active; 'I' for Inactive)
REMARK    1  A    between atoms: S61_29  and  C16_16 
REMARK    2  A    between atoms: C22_22  and  S61_29 
ROOT
ATOM      1  C8  SNL d         -22.965  57.783   2.881  0.00  0.00     0.040 C 
ATOM      2  C4  SNL d         -21.441  61.431   3.234  0.00  0.00     0.013 C 
ATOM      3  C5  SNL d         -21.642  59.860   2.607  0.00  0.00    -0.008 C 
ATOM      4  C2  SNL d         -17.679  61.079   4.575  0.00  0.00    -0.016 C 
ATOM      5  C6  SNL d         -20.995  58.858   3.722  0.00  0.00     0.002 C 
ATOM      6  C1  SNL d         -17.454  62.604   5.236  0.00  0.00     0.022 C 
ATOM      7  C3  SNL d         -19.998  61.784   3.489  0.00  0.00     0.007 C 
ATOM      8  C7  SNL d         -21.615  57.450   3.453  0.00  0.00     0.009 C 
ATOM      9  C9  SNL d         -23.098  59.272   2.643  0.00  0.00     0.079 C 
ATOM     10  C10 SNL d         -20.980  59.765   1.120  0.00  0.00     0.019 C 
ATOM     11  C11 SNL d         -16.946  61.068   3.149  0.00  0.00     0.020 C 
ATOM     12  C12 SNL d         -16.008  62.874   5.800  0.00  0.00     0.084 C 
ATOM     13  C13 SNL d         -24.129  59.857   3.686  0.00  0.00     0.049 C 
ATOM     14  C14 SNL d         -25.147  60.705   2.876  0.00  0.00     0.114 C 
ATOM     15  C15 SNL d         -24.740  60.484   1.450  0.00  0.00     0.259 C 
ATOM     16  C18 SNL d         -15.482  61.625   6.654  0.00  0.00     0.149 C 
ATOM     17  C19 SNL d         -15.949  60.238   6.401  0.00  0.00     0.053 C 
ATOM     18  C20 SNL d         -16.879  59.945   5.404  0.00  0.00    -0.067 C 
ATOM     19  C21 SNL d         -17.278  58.407   5.135  0.00  0.00     0.051 C 
ATOM     20  C22 SNL d         -18.812  58.154   4.983  0.00  0.00     0.064 C 
ATOM     21  C23 SNL d         -19.491  59.096   3.969  0.00  0.00     0.010 C 
ATOM     22  C24 SNL d         -19.225  60.712   4.406  0.00  0.00     0.004 C 
ATOM     23  O57 SNL d         -25.135  61.162   0.490  0.00  0.00    -0.265 OA
ATOM     24  O58 SNL d         -23.821  59.422   1.358  0.00  0.00    -0.309 OA
ATOM     25  O60 SNL d         -14.704  61.823   7.550  0.00  0.00    -0.293 OA
ENDROOT
BRANCH  20  26
ATOM     26  S61 SNL d         -19.716  58.300   6.708  0.00  0.00    -0.087 SA
BRANCH  26  27
ATOM     27  C16 SNL d         -19.294  56.754   7.612  0.00  0.00     0.182 C 
ATOM     28  C17 SNL d         -20.003  56.358   8.899  0.00  0.00     0.104 C 
ATOM     29  O59 SNL d         -18.393  56.032   7.205  0.00  0.00    -0.286 OA
ENDBRANCH  26  27
ENDBRANCH  20  26
TORSDOF 2
