REMARK  9 active torsions:
REMARK  status: ('A' for Active; 'I' for Inactive)
REMARK    1  A    between atoms: C17_7  and  N16_23 
REMARK    2  A    between atoms: C18_24  and  C17_7 
REMARK    3  A    between atoms: C11_19  and  C1_14 
REMARK    4  A    between atoms: N4_16  and  C2_15 
REMARK    5  A    between atoms: C29_29  and  N4_16 
REMARK    6  A    between atoms: N19_25  and  C18_24 
REMARK    7  A    between atoms: N33_33  and  C36_36 
REMARK    8  A    between atoms: C36_36  and  C37_37 
REMARK    9  A    between atoms: C37_37  and  O38_38 
ROOT
ATOM      1  N3  MOL d           5.483  21.311  18.169  0.00  0.00    -0.061 NA
ATOM      2  C5  MOL d           5.606  20.350  15.660  0.00  0.00     0.146 A 
ATOM      3  C7  MOL d           6.521  21.649  17.399  0.00  0.00     0.098 A 
ATOM      4  C8  MOL d           6.613  21.172  16.088  0.00  0.00    -0.005 A 
ATOM      5  C10 MOL d           8.385  22.887  15.483  0.00  0.00     0.071 C 
ATOM      6  C13 MOL d           8.435  23.189  16.939  0.00  0.00     0.070 A 
ATOM      7  C26 MOL d           8.893  20.496  15.323  0.00  0.00     0.015 C 
ATOM      8  C2  MOL d           4.562  20.504  17.642  0.00  0.00     0.728 A 
ATOM      9  N6  MOL d           4.575  19.997  16.413  0.00  0.00    -0.074 NA
ATOM     10  C9  MOL d           7.775  21.523  15.211  0.00  0.00     0.024 C 
ATOM     11  C11 MOL d           7.946  23.140  19.061  0.00  0.00     0.077 A 
ATOM     12  C12 MOL d           7.560  22.562  17.864  0.00  0.00     0.050 A 
ATOM     13  N14 MOL d           9.248  23.967  17.484  0.00  0.00    -0.176 NA
ATOM     14  N15 MOL d           8.974  23.951  18.772  0.00  0.00    -0.272 N 
ATOM     15  C25 MOL d           9.775  24.769  19.667  0.00  0.00     0.180 C 
ENDROOT
BRANCH   8  16
ATOM     16  N4  MOL d           3.491  20.135  18.430  0.00  0.00    -0.169 N 
ATOM     17  H14 MOL d           2.807  19.499  17.996  0.00  0.00     0.186 HD
BRANCH  16  18
ATOM     18  C29 MOL d           3.228  20.514  19.722  0.00  0.00     0.164 A 
ATOM     19  C28 MOL d           3.968  21.328  20.574  0.00  0.00     0.071 A 
ATOM     20  C27 MOL d           3.295  21.379  21.741  0.00  0.00     0.116 A 
ATOM     21  N19 MOL d           2.208  20.616  21.598  0.00  0.00    -0.277 N 
ATOM     22  N30 MOL d           2.123  20.080  20.359  0.00  0.00    -0.154 NA
BRANCH  21  23
ATOM     23  C18 MOL d           1.196  20.456  22.633  0.00  0.00     0.178 C 
BRANCH  23  24
ATOM     24  C17 MOL d           1.091  19.098  23.084  0.00  0.00     0.256 C 
BRANCH  24  25
ATOM     25  N16 MOL d          -0.137  18.895  23.843  0.00  0.00    -0.066 N 
ATOM     26  C31 MOL d          -0.015  19.446  25.201  0.00  0.00     0.262 C 
ATOM     27  C32 MOL d          -1.266  19.160  26.017  0.00  0.00     0.262 C 
ATOM     28  N33 MOL d          -1.545  17.721  26.043  0.00  0.00    -0.066 N 
ATOM     29  C34 MOL d          -1.705  17.224  24.683  0.00  0.00     0.262 C 
ATOM     30  H28 MOL d          -0.745  17.261  26.449  0.00  0.00     0.280 HD
ATOM     31  C35 MOL d          -0.446  17.470  23.889  0.00  0.00     0.262 C 
ATOM     32  H16 MOL d          -0.889  19.374  23.373  0.00  0.00     0.280 HD
BRANCH  28  33
ATOM     33  C36 MOL d          -2.708  17.392  26.874  0.00  0.00     0.261 C 
BRANCH  33  34
ATOM     34  C37 MOL d          -2.368  17.127  28.323  0.00  0.00     0.194 C 
BRANCH  34  35
ATOM     35  O38 MOL d          -1.891  15.808  28.453  0.00  0.00    -0.394 OA
ATOM     36  C39 MOL d          -2.903  14.885  28.757  0.00  0.00     0.201 C 
ENDBRANCH  34  35
ENDBRANCH  33  34
ENDBRANCH  28  33
ENDBRANCH  24  25
ENDBRANCH  23  24
ENDBRANCH  21  23
ENDBRANCH  16  18
ENDBRANCH   8  16
BRANCH  11  37
ATOM     37  C1  MOL d           7.432  22.921  20.424  0.00  0.00    -0.007 A 
ATOM     38  C20 MOL d           7.720  21.757  21.116  0.00  0.00     0.014 A 
ATOM     39  C21 MOL d           7.243  21.569  22.398  0.00  0.00     0.001 A 
ATOM     40  C22 MOL d           6.494  22.535  23.002  0.00  0.00     0.000 A 
ATOM     41  C23 MOL d           6.210  23.693  22.333  0.00  0.00     0.001 A 
ATOM     42  C24 MOL d           6.678  23.895  21.055  0.00  0.00     0.014 A 
ENDBRANCH  11  37
TORSDOF 9
