REMARK  15 active torsions:
REMARK  status: ('A' for Active; 'I' for Inactive)
REMARK    1  A    between atoms: C24_4  and  C22_7 
REMARK    2  A    between atoms: C22_7  and  O23_8 
REMARK    3  A    between atoms: O23_8  and  C21_9 
REMARK       I    between atoms: C21_9  and  N20_11 
REMARK    4  A    between atoms: N20_11  and  C19_12 
REMARK    5  A    between atoms: C19_12  and  C32_13 
REMARK    6  A    between atoms: C19_12  and  C17_20 
REMARK    7  A    between atoms: C32_13  and  C38_14 
REMARK    8  A    between atoms: C17_20  and  O18_21 
REMARK    9  A    between atoms: C17_20  and  C16_22 
REMARK   10  A    between atoms: C16_22  and  N11_23 
REMARK   11  A    between atoms: N11_23  and  C12_24 
REMARK   12  A    between atoms: N11_23  and  S8_29 
REMARK   13  A    between atoms: C12_24  and  C13_25 
REMARK   14  A    between atoms: C13_25  and  C15_27 
REMARK   15  A    between atoms: S8_29  and  C5_32 
ROOT
ATOM      1  C17 MOL d          19.944  29.299  15.452  0.00  0.00     0.155 C 
ENDROOT
BRANCH   1   2
ATOM      2  C19 MOL d          19.510  28.885  14.044  0.00  0.00     0.120 C 
BRANCH   2   3
ATOM      3  N20 MOL d          20.545  28.063  13.438  0.00  0.00    -0.329 N 
ATOM      4  C21 MOL d          21.329  28.418  12.425  0.00  0.00     0.361 C 
ATOM      5  O22 MOL d          21.344  29.510  11.881  0.00  0.00    -0.239 OA
ATOM      6  H9  MOL d          20.679  27.148  13.818  0.00  0.00     0.165 HD
BRANCH   4   7
ATOM      7  O23 MOL d          22.210  27.381  11.917  0.00  0.00    -0.302 OA
BRANCH   7   8
ATOM      8  C22 MOL d          22.855  27.552  10.654  0.00  0.00     0.205 C 
BRANCH   8   9
ATOM      9  C24 MOL d          22.446  26.366   9.798  0.00  0.00     0.109 C 
ATOM     10  N29 MOL d          22.801  25.142  10.465  0.00  0.00    -0.354 N 
ATOM     11  C27 MOL d          21.765  24.441  10.891  0.00  0.00     0.218 C 
ATOM     12  H1  MOL d          23.748  24.848  10.595  0.00  0.00     0.162 HD
ATOM     13  O28 MOL d          21.820  23.393  11.491  0.00  0.00    -0.274 OA
ATOM     14  C26 MOL d          20.470  25.110  10.505  0.00  0.00     0.105 C 
ATOM     15  C25 MOL d          20.931  26.258   9.621  0.00  0.00     0.036 C 
ENDBRANCH   8   9
ENDBRANCH   7   8
ENDBRANCH   4   7
ENDBRANCH   2   3
BRANCH   2  16
ATOM     16  C32 MOL d          18.188  28.113  13.992  0.00  0.00     0.066 C 
BRANCH  16  17
ATOM     17  C38 MOL d          17.799  27.777  12.560  0.00  0.00    -0.056 A 
ATOM     18  C37 MOL d          17.701  26.447  12.170  0.00  0.00     0.007 A 
ATOM     19  C36 MOL d          17.341  26.124  10.863  0.00  0.00     0.001 A 
ATOM     20  C35 MOL d          17.071  27.130   9.943  0.00  0.00     0.000 A 
ATOM     21  C34 MOL d          17.166  28.461  10.332  0.00  0.00     0.001 A 
ATOM     22  C33 MOL d          17.522  28.778  11.640  0.00  0.00     0.007 A 
ENDBRANCH  16  17
ENDBRANCH   2  16
ENDBRANCH   1   2
BRANCH   1  23
ATOM     23  O18 MOL d          19.878  28.176  16.336  0.00  0.00    -0.392 OA
ATOM     24  H19 MOL d          20.149  28.443  17.206  0.00  0.00     0.210 HD
ENDBRANCH   1  23
BRANCH   1  25
ATOM     25  C16 MOL d          19.096  30.432  16.048  0.00  0.00     0.141 C 
BRANCH  25  26
ATOM     26  N11 MOL d          19.338  31.674  15.267  0.00  0.00    -0.204 NA
BRANCH  26  27
ATOM     27  C12 MOL d          20.117  32.672  16.036  0.00  0.00     0.112 C 
BRANCH  27  28
ATOM     28  C13 MOL d          21.627  32.379  15.988  0.00  0.00    -0.005 C 
ATOM     29  C14 MOL d          22.233  32.432  14.585  0.00  0.00     0.011 C 
BRANCH  28  30
ATOM     30  C15 MOL d          22.354  33.363  16.912  0.00  0.00     0.001 C 
ATOM     31  C18 MOL d          22.201  34.818  16.497  0.00  0.00     0.005 C 
ENDBRANCH  28  30
ENDBRANCH  27  28
ENDBRANCH  26  27
BRANCH  26  32
ATOM     32  S8  MOL d          18.017  32.292  14.541  0.00  0.00     0.243 S 
ATOM     33  O10 MOL d          17.247  31.187  14.058  0.00  0.00    -0.206 OA
ATOM     34  O9  MOL d          18.513  33.171  13.508  0.00  0.00    -0.206 OA
BRANCH  32  35
ATOM     35  C5  MOL d          17.127  33.193  15.590  0.00  0.00     0.076 A 
ATOM     36  C6  MOL d          16.147  32.544  16.344  0.00  0.00     0.027 A 
ATOM     37  C7  MOL d          15.393  33.227  17.297  0.00  0.00     0.034 A 
ATOM     38  C2  MOL d          15.581  34.577  17.514  0.00  0.00     0.074 A 
ATOM     39  C3  MOL d          16.541  35.263  16.767  0.00  0.00     0.036 A 
ATOM     40  N1  MOL d          14.956  35.414  18.375  0.00  0.00    -0.253 NA
ATOM     41  C4  MOL d          17.305  34.567  15.815  0.00  0.00     0.046 A 
ATOM     42  S1  MOL d          16.674  36.933  17.121  0.00  0.00    -0.081 SA
ATOM     43  C1  MOL d          15.414  36.673  18.288  0.00  0.00     0.167 A 
ENDBRANCH  32  35
ENDBRANCH  26  32
ENDBRANCH  25  26
ENDBRANCH   1  25
TORSDOF 15
