REMARK  2 active torsions:
REMARK  status: ('A' for Active; 'I' for Inactive)
REMARK    1  A    between atoms: C1_1  and  C_7 
REMARK    2  A    between atoms: C_7  and  N1_8 
ROOT
ATOM      1  C   BEN d           7.569  51.787  54.928  0.00  0.00     0.102 C 
ATOM      2  N2  BEN d           7.802  51.953  53.658  0.00  0.00    -0.385 N 
ATOM      3  H8  BEN d           8.079  51.150  53.076  0.00  0.00     0.157 HD
ATOM      4  H9  BEN d           7.710  52.888  53.235  0.00  0.00     0.157 HD
ENDROOT
BRANCH   1   5
ATOM      5  C1  BEN d           7.723  50.404  55.533  0.00  0.00     0.007 A 
ATOM      6  C6  BEN d           7.875  50.250  56.922  0.00  0.00     0.015 A 
ATOM      7  C5  BEN d           8.012  48.971  57.487  0.00  0.00     0.001 A 
ATOM      8  C4  BEN d           8.007  47.833  56.661  0.00  0.00     0.000 A 
ATOM      9  C3  BEN d           7.859  47.978  55.270  0.00  0.00     0.001 A 
ATOM     10  C2  BEN d           7.713  49.261  54.711  0.00  0.00     0.015 A 
ENDBRANCH   1   5
BRANCH   1  11
ATOM     11  N1  BEN d           7.216  52.792  55.690  0.00  0.00    -0.385 N 
ATOM     12  H6  BEN d           7.110  53.733  55.285  0.00  0.00     0.157 HD
ATOM     13  H7  BEN d           7.045  52.641  56.694  0.00  0.00     0.157 HD
ENDBRANCH   1  11
TORSDOF 2
