REMARK  4 active torsions:
REMARK  status: ('A' for Active; 'I' for Inactive)
REMARK    1  A    between atoms: C1_1  and  O1_6 
REMARK    2  A    between atoms: C2_2  and  O2_7 
REMARK    3  A    between atoms: C3_3  and  O3_8 
REMARK    4  A    between atoms: C4_4  and  O4_9 
ROOT
ATOM      1  C1  ARW d          22.452  22.430  30.097  0.00  0.00     0.290 C 
ATOM      2  C2  ARW d          21.708  23.171  28.983  0.00  0.00     0.204 C 
ATOM      3  C3  ARW d          20.780  22.186  28.266  0.00  0.00     0.182 C 
ATOM      4  C4  ARW d          19.810  21.550  29.253  0.00  0.00     0.173 C 
ATOM      5  C5  ARW d          20.510  20.963  30.476  0.00  0.00     0.205 C 
ATOM      6  O5  ARW d          21.468  21.892  31.014  0.00  0.00    -0.356 OA
ENDROOT
BRANCH   1   7
ATOM      7  O1  ARW d          23.291  21.452  29.469  0.00  0.00    -0.363 OA
ATOM      8  CM  ARW d          24.190  20.799  30.380  0.00  0.00     0.204 C 
ENDBRANCH   1   7
BRANCH   2   9
ATOM      9  O2  ARW d          22.618  23.793  28.050  0.00  0.00    -0.388 OA
ATOM     10  H7  ARW d          23.146  23.124  27.631  0.00  0.00     0.210 HD
ENDBRANCH   2   9
BRANCH   3  11
ATOM     11  O3  ARW d          20.010  22.931  27.299  0.00  0.00    -0.390 OA
ATOM     12  H8  ARW d          19.508  23.603  27.745  0.00  0.00     0.210 HD
ENDBRANCH   3  11
BRANCH   4  13
ATOM     13  O4  ARW d          18.912  22.567  29.717  0.00  0.00    -0.391 OA
ATOM     14  H9  ARW d          18.460  22.952  28.975  0.00  0.00     0.210 HD
ENDBRANCH   4  13
TORSDOF 4
