REMARK  6 active torsions:
REMARK  status: ('A' for Active; 'I' for Inactive)
REMARK    1  A    between atoms: P_1  and  O5'_4 
REMARK    2  A    between atoms: O5'_4  and  C5'_6 
REMARK    3  A    between atoms: C5'_6  and  C4'_7 
REMARK    4  A    between atoms: C1'_9  and  N9_10 
REMARK    5  A    between atoms: C2'_21  and  O2'_22 
REMARK    6  A    between atoms: C3'_23  and  O3'_24 
ROOT
ATOM      1  C4' XMP d           1.975  39.312  47.477  0.00  0.00     0.180 C 
ATOM      2  O4' XMP d           2.965  40.348  47.169  0.00  0.00    -0.353 OA
ATOM      3  C1' XMP d           2.283  41.581  46.876  0.00  0.00     0.262 C 
ATOM      4  C2' XMP d           0.786  41.319  46.967  0.00  0.00     0.198 C 
ATOM      5  C3' XMP d           0.695  39.828  46.826  0.00  0.00     0.182 C 
ENDROOT
BRANCH   3   6
ATOM      6  N9  XMP d           2.809  42.062  45.577  0.00  0.00    -0.295 N 
ATOM      7  C4  XMP d           3.531  43.228  45.431  0.00  0.00     0.149 A 
ATOM      8  N3  XMP d           3.877  44.120  46.432  0.00  0.00    -0.292 N 
ATOM      9  C5  XMP d           3.829  43.305  44.086  0.00  0.00     0.170 A 
ATOM     10  C2  XMP d           4.598  45.171  45.950  0.00  0.00     0.328 A 
ATOM     11  H5  XMP d           3.628  44.007  47.394  0.00  0.00     0.172 HD
ATOM     12  N1  XMP d           4.945  45.331  44.604  0.00  0.00    -0.273 N 
ATOM     13  O2  XMP d           5.002  46.067  46.686  0.00  0.00    -0.247 OA
ATOM     14  C6  XMP d           4.580  44.402  43.577  0.00  0.00     0.282 A 
ATOM     15  H6  XMP d           5.476  46.138  44.345  0.00  0.00     0.173 HD
ATOM     16  O6  XMP d           4.912  44.596  42.414  0.00  0.00    -0.265 OA
ATOM     17  N7  XMP d           3.301  42.199  43.369  0.00  0.00    -0.234 NA
ATOM     18  C8  XMP d           2.716  41.512  44.318  0.00  0.00     0.214 A 
ENDBRANCH   3   6
BRANCH   4  19
ATOM     19  O2' XMP d           0.241  41.755  48.219  0.00  0.00    -0.388 OA
ATOM     20  H9  XMP d          -0.692  41.575  48.237  0.00  0.00     0.210 HD
ENDBRANCH   4  19
BRANCH   1  21
ATOM     21  C5' XMP d           2.580  38.043  46.935  0.00  0.00     0.217 C 
BRANCH  21  22
ATOM     22  O5' XMP d           2.711  38.138  45.513  0.00  0.00    -0.280 OA
BRANCH  22  23
ATOM     23  P   XMP d           3.293  36.948  44.605  0.00  0.00     0.422 P 
ATOM     24  O1P XMP d           4.121  37.490  43.525  0.00  0.00    -0.617 OA
ATOM     25  O2P XMP d           2.086  36.228  44.064  0.00  0.00    -0.617 OA
ATOM     26  O3P XMP d           4.110  36.055  45.571  0.00  0.00    -0.617 OA
ENDBRANCH  22  23
ENDBRANCH  21  22
ENDBRANCH   1  21
BRANCH   5  27
ATOM     27  O3' XMP d          -0.478  39.334  47.451  0.00  0.00    -0.390 OA
ATOM     28  H11 XMP d          -0.460  39.554  48.375  0.00  0.00     0.210 HD
ENDBRANCH   5  27
TORSDOF 6
