REMARK  10 active torsions:
REMARK  status: ('A' for Active; 'I' for Inactive)
REMARK    1  A    between atoms: O6_1  and  C6_2 
REMARK    2  A    between atoms: C6_2  and  C5_3 
REMARK    3  A    between atoms: C4_5  and  O4_6 
REMARK    4  A    between atoms: C3_7  and  O3_8 
REMARK    5  A    between atoms: C2_9  and  O2_10 
REMARK    6  A    between atoms: C1_11  and  O1_12 
REMARK    7  A    between atoms: O1_12  and  C7_13 
REMARK    8  A    between atoms: C7_13  and  C8_14 
REMARK    9  A    between atoms: C9_15  and  C10_16 
REMARK   10  A    between atoms: C13_19  and  O7_20 
ROOT
ATOM      1  C5  HNV d         -14.371   1.908 -11.260  0.00  0.00     0.179 C 
ATOM      2  O5  HNV d         -12.997   1.630 -11.374  0.00  0.00    -0.348 OA
ATOM      3  C4  HNV d         -15.052   0.797 -10.452  0.00  0.00     0.180 C 
ATOM      4  C3  HNV d         -14.776  -0.477 -11.026  0.00  0.00     0.183 C 
ATOM      5  C2  HNV d         -13.393  -0.746 -11.246  0.00  0.00     0.204 C 
ATOM      6  C1  HNV d         -12.730   0.400 -11.993  0.00  0.00     0.292 C 
ENDROOT
BRANCH   6   7
ATOM      7  O1  HNV d         -13.116   0.405 -13.302  0.00  0.00    -0.347 OA
BRANCH   7   8
ATOM      8  C7  HNV d         -12.485   1.336 -14.079  0.00  0.00     0.265 C 
BRANCH   8   9
ATOM      9  C8  HNV d         -13.082   1.556 -15.413  0.00  0.00    -0.075 C 
ATOM     10  C9  HNV d         -13.546   1.727 -16.512  0.00  0.00    -0.065 C 
BRANCH  10  11
ATOM     11  C10 HNV d         -14.092   1.921 -17.871  0.00  0.00     0.018 A 
ATOM     12  C15 HNV d         -15.374   1.501 -18.187  0.00  0.00     0.023 A 
ATOM     13  C14 HNV d         -15.866   1.708 -19.469  0.00  0.00     0.038 A 
ATOM     14  C13 HNV d         -15.057   2.336 -20.411  0.00  0.00     0.068 A 
ATOM     15  C12 HNV d         -13.781   2.750 -20.082  0.00  0.00     0.038 A 
ATOM     16  C11 HNV d         -13.288   2.554 -18.807  0.00  0.00     0.023 A 
BRANCH  14  17
ATOM     17  O7  HNV d         -15.508   2.554 -21.694  0.00  0.00    -0.356 OA
ATOM     18  C16 HNV d         -16.831   2.294 -21.994  0.00  0.00     0.210 C 
ENDBRANCH  14  17
ENDBRANCH  10  11
ENDBRANCH   8   9
ENDBRANCH   7   8
ENDBRANCH   6   7
BRANCH   5  19
ATOM     19  O2  HNV d         -12.658  -0.873 -10.028  0.00  0.00    -0.388 OA
ATOM     20  H10 HNV d         -13.017  -1.588  -9.516  0.00  0.00     0.210 HD
ENDBRANCH   5  19
BRANCH   1  21
ATOM     21  C6  HNV d         -14.487   3.242 -10.621  0.00  0.00     0.198 C 
BRANCH  21  22
ATOM     22  O6  HNV d         -13.870   3.338  -9.387  0.00  0.00    -0.398 OA
ATOM     23  H1  HNV d         -12.943   3.155  -9.483  0.00  0.00     0.209 HD
ENDBRANCH  21  22
ENDBRANCH   1  21
BRANCH   4  24
ATOM     24  O3  HNV d         -15.358  -1.563 -10.191  0.00  0.00    -0.390 OA
ATOM     25  H8  HNV d         -14.980  -1.528  -9.320  0.00  0.00     0.210 HD
ENDBRANCH   4  24
BRANCH   3  26
ATOM     26  O4  HNV d         -16.459   1.059 -10.350  0.00  0.00    -0.390 OA
ATOM     27  H6  HNV d         -16.873   0.367  -9.848  0.00  0.00     0.210 HD
ENDBRANCH   3  26
TORSDOF 10
