REMARK  16 active torsions:
REMARK  status: ('A' for Active; 'I' for Inactive)
REMARK    1  A    between atoms: P1_1  and  O3P_4 
REMARK    2  A    between atoms: O3P_4  and  C6_6 
REMARK    3  A    between atoms: C6_6  and  C5_7 
REMARK    4  A    between atoms: C5_7  and  C4_9 
REMARK    5  A    between atoms: C5_7  and  O1_8 
REMARK    6  A    between atoms: C4_9  and  C3_11 
REMARK    7  A    between atoms: C4_9  and  O4_10 
REMARK    8  A    between atoms: C3_11  and  C2_13 
REMARK    9  A    between atoms: C3_11  and  O3_12 
REMARK   10  A    between atoms: C2_13  and  C1_15 
REMARK   11  A    between atoms: C2_13  and  O2_14 
REMARK   12  A    between atoms: C1_15  and  N1_16 
REMARK   13  A    between atoms: N1_16  and  C9_21 
REMARK   14  A    between atoms: N1_16  and  C7_17 
REMARK   15  A    between atoms: C7_17  and  C8_18 
REMARK   16  A    between atoms: C9_21  and  P2_22 
ROOT
ATOM      1  C3  PAI d          35.766  52.425  18.931  0.00  0.00     0.179 C 
ENDROOT
BRANCH   1   2
ATOM      2  C4  PAI d          35.885  53.704  18.084  0.00  0.00     0.180 C 
BRANCH   2   3
ATOM      3  C5  PAI d          37.155  53.593  17.228  0.00  0.00     0.173 C 
BRANCH   3   4
ATOM      4  C6  PAI d          37.197  54.820  16.318  0.00  0.00     0.217 C 
BRANCH   4   5
ATOM      5  O3P PAI d          38.350  55.648  16.461  0.00  0.00    -0.280 OA
BRANCH   5   6
ATOM      6  P1  PAI d          39.566  55.805  15.441  0.00  0.00     0.422 P 
ATOM      7  O4P PAI d          39.266  55.166  14.135  0.00  0.00    -0.617 OA
ATOM      8  O2P PAI d          40.716  55.151  16.106  0.00  0.00    -0.617 OA
ATOM      9  O1P PAI d          39.684  57.281  15.343  0.00  0.00    -0.617 OA
ENDBRANCH   5   6
ENDBRANCH   4   5
ENDBRANCH   3   4
BRANCH   3  10
ATOM     10  O1  PAI d          38.322  53.457  18.046  0.00  0.00    -0.391 OA
ATOM     11  H4  PAI d          38.402  54.217  18.610  0.00  0.00     0.210 HD
ENDBRANCH   3  10
ENDBRANCH   2   3
BRANCH   2  12
ATOM     12  O4  PAI d          34.677  54.002  17.369  0.00  0.00    -0.390 OA
ATOM     13  H6  PAI d          34.798  54.797  16.863  0.00  0.00     0.210 HD
ENDBRANCH   2  12
ENDBRANCH   1   2
BRANCH   1  14
ATOM     14  C2  PAI d          34.612  52.664  19.904  0.00  0.00     0.175 C 
BRANCH  14  15
ATOM     15  C1  PAI d          34.392  51.426  20.765  0.00  0.00     0.270 C 
BRANCH  15  16
ATOM     16  N1  PAI d          33.057  51.344  21.040  0.00  0.00    -0.047 N 
ATOM     17  H13 PAI d          32.654  52.131  20.556  0.00  0.00     0.281 HD
BRANCH  16  18
ATOM     18  C9  PAI d          32.454  50.248  20.470  0.00  0.00     0.380 C 
BRANCH  18  19
ATOM     19  P2  PAI d          32.314  49.429  19.164  0.00  0.00     0.286 P 
ATOM     20  O7P PAI d          30.787  49.442  18.848  0.00  0.00    -0.638 OA
ATOM     21  O6P PAI d          33.037  50.045  18.016  0.00  0.00    -0.638 OA
ATOM     22  O5P PAI d          32.937  48.201  19.649  0.00  0.00    -0.638 OA
ENDBRANCH  18  19
ENDBRANCH  16  18
BRANCH  16  23
ATOM     23  C7  PAI d          32.728  51.557  22.357  0.00  0.00     0.348 C 
BRANCH  23  24
ATOM     24  C8  PAI d          31.438  52.182  22.871  0.00  0.00     0.199 C 
ATOM     25  O6  PAI d          31.479  53.255  23.376  0.00  0.00    -0.647 OA
ATOM     26  O5  PAI d          30.404  51.487  22.619  0.00  0.00    -0.647 OA
ENDBRANCH  23  24
ENDBRANCH  16  23
ENDBRANCH  15  16
ENDBRANCH  14  15
BRANCH  14  27
ATOM     27  O2  PAI d          34.796  53.734  20.826  0.00  0.00    -0.391 OA
ATOM     28  H10 PAI d          34.939  54.542  20.347  0.00  0.00     0.210 HD
ENDBRANCH  14  27
ENDBRANCH   1  14
BRANCH   1  29
ATOM     29  O3  PAI d          35.592  51.236  18.149  0.00  0.00    -0.390 OA
ATOM     30  H8  PAI d          34.792  51.306  17.641  0.00  0.00     0.210 HD
ENDBRANCH   1  29
TORSDOF 16
