REMARK  13 active torsions:
REMARK  status: ('A' for Active; 'I' for Inactive)
REMARK    1  A    between atoms: OAE_5  and  NAB_2 
REMARK    2  A    between atoms: CAF_6  and  OAE_5 
REMARK    3  A    between atoms: CAG_7  and  CAF_6 
REMARK    4  A    between atoms: CAH_8  and  CAG_7 
REMARK    5  A    between atoms: CAI_9  and  CAH_8 
REMARK    6  A    between atoms: OAJ_10  and  CAI_9 
REMARK    7  A    between atoms: CAK_11  and  OAJ_10 
REMARK    8  A    between atoms: CAL_12  and  CAK_11 
REMARK    9  A    between atoms: SAO_15  and  CAN_14 
REMARK   10  A    between atoms: NAP_16  and  SAO_15 
REMARK   11  A    between atoms: CAQ_17  and  NAP_16 
REMARK   12  A    between atoms: CAZ_26  and  SBA_27 
REMARK   13  A    between atoms: SBA_27  and  NBB_28 
ROOT
ATOM      1  CAL C1H d          -4.330   8.660  10.136  0.00  0.00     0.041 A 
ATOM      2  CAM C1H d          -4.213   7.681  11.146  0.00  0.00     0.042 A 
ATOM      3  CAN C1H d          -5.354   7.123  11.741  0.00  0.00     0.080 A 
ATOM      4  CAU C1H d          -5.595   9.098   9.713  0.00  0.00     0.017 A 
ATOM      5  CAV C1H d          -6.740   8.566  10.295  0.00  0.00     0.003 A 
ATOM      6  CAW C1H d          -6.604   7.605  11.304  0.00  0.00     0.025 A 
ENDROOT
BRANCH   3   7
ATOM      7  SAO C1H d          -5.351   6.017  12.926  0.00  0.00     0.264 S 
ATOM      8  OAD C1H d          -6.574   5.282  12.782  0.00  0.00    -0.200 OA
ATOM      9  OAX C1H d          -5.479   6.790  14.128  0.00  0.00    -0.200 OA
BRANCH   7  10
ATOM     10  NAP C1H d          -4.191   5.033  13.193  0.00  0.00    -0.257 N 
ATOM     11  H10 C1H d          -3.314   5.192  12.739  0.00  0.00     0.181 HD
BRANCH  10  12
ATOM     12  CAQ C1H d          -4.315   3.926  14.045  0.00  0.00     0.204 A 
ATOM     13  NAR C1H d          -3.309   3.036  14.348  0.00  0.00    -0.122 NA
ATOM     14  NAS C1H d          -3.704   1.988  15.252  0.00  0.00    -0.126 NA
ATOM     15  CAZ C1H d          -5.012   2.102  15.659  0.00  0.00     0.237 A 
ATOM     16  SAY C1H d          -5.753   3.466  14.888  0.00  0.00    -0.015 SA
BRANCH  15  17
ATOM     17  SBA C1H d          -5.843   1.066  16.712  0.00  0.00     0.282 S 
ATOM     18  OAT C1H d          -5.316   1.023  18.124  0.00  0.00    -0.199 OA
ATOM     19  OBC C1H d          -7.257   1.506  16.762  0.00  0.00    -0.199 OA
BRANCH  17  20
ATOM     20  NBB C1H d          -5.712  -0.301  16.166  0.00  0.00    -0.323 N 
ATOM     21  H14 C1H d          -6.007  -0.496  15.231  0.00  0.00     0.169 HD
ATOM     22  H15 C1H d          -5.328  -1.031  16.732  0.00  0.00     0.169 HD
ENDBRANCH  17  20
ENDBRANCH  15  17
ENDBRANCH  10  12
ENDBRANCH   7  10
ENDBRANCH   3   7
BRANCH   1  23
ATOM     23  CAK C1H d          -3.098   9.236   9.476  0.00  0.00     0.293 C 
ATOM     24  OAC C1H d          -2.947   9.113   8.264  0.00  0.00    -0.259 OA
BRANCH  23  25
ATOM     25  OAJ C1H d          -2.082   9.945  10.257  0.00  0.00    -0.318 OA
BRANCH  25  26
ATOM     26  CAI C1H d          -1.009   9.247  10.891  0.00  0.00     0.179 C 
BRANCH  26  27
ATOM     27  CAH C1H d          -1.286   9.080  12.390  0.00  0.00     0.029 C 
BRANCH  27  28
ATOM     28  CAG C1H d          -0.009   9.106  13.227  0.00  0.00     0.031 C 
BRANCH  28  29
ATOM     29  CAF C1H d           1.001   8.046  12.780  0.00  0.00     0.208 C 
BRANCH  29  30
ATOM     30  OAE C1H d           2.086   8.600  12.018  0.00  0.00    -0.221 OA
BRANCH  30  31
ATOM     31  NAB C1H d           3.092   9.357  12.558  0.00  0.00     0.004 N 
ATOM     32  OAA C1H d           4.064   9.906  11.714  0.00  0.00    -0.511 OA
ATOM     33  ONA C1H d           3.163   9.575  13.763  0.00  0.00    -0.511 OA
ENDBRANCH  30  31
ENDBRANCH  29  30
ENDBRANCH  28  29
ENDBRANCH  27  28
ENDBRANCH  26  27
ENDBRANCH  25  26
ENDBRANCH  23  25
ENDBRANCH   1  23
TORSDOF 13
