REMARK  6 active torsions:
REMARK  status: ('A' for Active; 'I' for Inactive)
REMARK    1  A    between atoms: N07_17  and  C11_2 
REMARK    2  A    between atoms: C14_3  and  C15_5 
REMARK       I    between atoms: N07_17  and  C14_3 
REMARK    3  A    between atoms: C03_13  and  C01_11 
REMARK    4  A    between atoms: C05_15  and  C08_18 
REMARK    5  A    between atoms: C06_16  and  N07_17 
REMARK    6  A    between atoms: C23_23  and  C24_24 
ROOT
ATOM      1  C02 MOL d           9.130  32.908  74.076  0.00  0.00     0.059 A 
ATOM      2  C03 MOL d           9.219  32.324  72.828  0.00  0.00     0.061 A 
ATOM      3  S04 MOL d           7.705  32.256  72.065  0.00  0.00    -0.072 SA
ATOM      4  C05 MOL d           6.909  33.014  73.375  0.00  0.00     0.109 A 
ATOM      5  C06 MOL d           7.795  33.326  74.410  0.00  0.00     0.063 A 
ENDROOT
BRANCH   5   6
ATOM      6  N07 MOL d           7.408  33.941  75.630  0.00  0.00    -0.312 N 
ATOM      7  C14 MOL d           7.394  35.349  75.700  0.00  0.00     0.229 C 
ATOM      8  O16 MOL d           7.078  35.969  76.721  0.00  0.00    -0.273 OA
BRANCH   6   9
ATOM      9  C11 MOL d           7.045  33.093  76.802  0.00  0.00     0.085 C 
ATOM     10  C12 MOL d           6.245  31.856  76.387  0.00  0.00     0.032 C 
ATOM     11  C13 MOL d           8.306  32.671  77.568  0.00  0.00     0.032 C 
ENDBRANCH   6   9
BRANCH   7  12
ATOM     12  C15 MOL d           7.822  36.136  74.462  0.00  0.00     0.078 C 
ATOM     13  C17 MOL d           9.295  36.526  74.693  0.00  0.00     0.014 C 
ATOM     14  C18 MOL d           9.851  37.411  73.579  0.00  0.00     0.005 C 
ATOM     15  C19 MOL d           8.956  38.635  73.350  0.00  0.00    -0.019 C 
ATOM     16  C20 MOL d           7.491  38.222  73.105  0.00  0.00     0.005 C 
ATOM     17  C22 MOL d           9.505  39.466  72.186  0.00  0.00     0.010 C 
ATOM     18  C21 MOL d           6.962  37.388  74.280  0.00  0.00     0.014 C 
ENDBRANCH   7  12
ENDBRANCH   5   6
BRANCH   4  19
ATOM     19  C08 MOL d           5.483  33.269  73.277  0.00  0.00     0.219 C 
ATOM     20  O09 MOL d           4.889  32.539  72.297  0.00  0.00    -0.643 OA
ATOM     21  O10 MOL d           4.853  34.083  73.935  0.00  0.00    -0.643 OA
ENDBRANCH   4  19
BRANCH   2  22
ATOM     22  C01 MOL d          10.408  31.822  72.227  0.00  0.00    -0.059 C 
ATOM     23  C23 MOL d          11.396  31.393  71.693  0.00  0.00    -0.092 C 
BRANCH  23  24
ATOM     24  C24 MOL d          12.602  30.866  71.019  0.00  0.00     0.013 C 
ATOM     25  C25 MOL d          13.857  31.524  71.615  0.00  0.00     0.028 C 
ATOM     26  C26 MOL d          12.665  29.340  71.184  0.00  0.00     0.028 C 
ATOM     27  C27 MOL d          12.538  31.223  69.519  0.00  0.00     0.028 C 
ENDBRANCH  23  24
ENDBRANCH   2  22
TORSDOF 6
