REMARK  0 active torsions:
REMARK  status: ('A' for Active; 'I' for Inactive)
REMARK       I    between atoms: NAQ_14  and  CAK_15 
ROOT
ATOM      1  CAH MOL d          67.552  40.862  -0.361  0.00  0.00     0.101 C 
ATOM      2  CAG MOL d          68.683  41.127  -1.365  0.00  0.00     0.050 C 
ATOM      3  CAM MOL d          69.720  40.101  -1.236  0.00  0.00     0.071 A 
ATOM      4  NAJ MOL d          70.966  40.147  -1.735  0.00  0.00    -0.247 NA
ATOM      5  CAO MOL d          71.639  39.028  -1.445  0.00  0.00     0.068 A 
ATOM      6  CAE MOL d          72.909  38.692  -1.764  0.00  0.00     0.034 A 
ATOM      7  CAD MOL d          73.435  37.459  -1.344  0.00  0.00     0.026 A 
ATOM      8  CAL MOL d          72.602  36.606  -0.597  0.00  0.00     0.035 A 
ATOM      9 CL   MOL d          73.257  35.108  -0.076  0.00  0.00    -0.084 Cl
ATOM     10  CAF MOL d          71.280  37.009  -0.316  0.00  0.00     0.038 A 
ATOM     11  CAP MOL d          70.811  38.203  -0.718  0.00  0.00     0.008 A 
ATOM     12  CAN MOL d          69.623  38.867  -0.580  0.00  0.00     0.021 A 
ATOM     13  CAI MOL d          68.419  38.490   0.034  0.00  0.00     0.114 C 
ATOM     14  NAQ MOL d          67.284  39.447  -0.407  0.00  0.00    -0.303 N 
ATOM     15  CAK MOL d          66.161  39.066  -0.922  0.00  0.00     0.223 C 
ATOM     16  OAB MOL d          65.183  39.762  -1.161  0.00  0.00    -0.273 OA
ATOM     17  CAA MOL d          65.947  37.502  -0.793  0.00  0.00     0.118 C 
ENDROOT
TORSDOF 0
