REMARK  2 active torsions:
REMARK  status: ('A' for Active; 'I' for Inactive)
REMARK    1  A    between atoms: C_2  and  CA_4 
REMARK    2  A    between atoms: CB_10  and  OG1_11 
ROOT
ATOM      1  CA  MOL d          43.502  32.168  32.905  0.00  0.00     0.240 C 
ATOM      2  N   MOL d          42.870  31.764  31.642  0.00  0.00    -0.259 NA
ATOM      3  CAI MOL d          42.184  32.568  30.921  0.00  0.00     0.091 C 
ATOM      4  CAA MOL d          41.579  32.084  29.621  0.00  0.00     0.090 C 
ATOM      5  NAG MOL d          41.984  33.840  31.284  0.00  0.00    -0.376 N 
ATOM      6  CG2 MOL d          42.405  34.447  32.545  0.00  0.00     0.155 C 
ATOM      7  CB  MOL d          42.650  33.288  33.510  0.00  0.00     0.171 C 
ATOM      8  H5  MOL d          41.489  34.446  30.614  0.00  0.00     0.160 HD
ENDROOT
BRANCH   1   9
ATOM      9  C   MOL d          43.675  31.011  33.878  0.00  0.00     0.201 C 
ATOM     10  O   MOL d          43.530  29.850  33.451  0.00  0.00    -0.646 OA
ATOM     11  OXT MOL d          44.007  31.224  35.069  0.00  0.00    -0.646 OA
ENDBRANCH   1   9
BRANCH   7  12
ATOM     12  OG1 MOL d          43.281  33.823  34.684  0.00  0.00    -0.391 OA
ATOM     13  H9  MOL d          43.445  33.120  35.302  0.00  0.00     0.210 HD
ENDBRANCH   7  12
TORSDOF 2
