REMARK  2 active torsions:
REMARK  status: ('A' for Active; 'I' for Inactive)
REMARK    1  A    between atoms: N_1  and  CA_2 
REMARK    2  A    between atoms: CA_2  and  C_3 
ROOT
ATOM      1  CA  ALA d           8.938  60.469  43.989  0.00  0.00     0.279 C 
ATOM      2  CB  ALA d           9.508  59.082  43.900  0.00  0.00     0.051 C 
ENDROOT
BRANCH   1   3
ATOM      3  N   ALA d          10.005  61.460  43.689  0.00  0.00    -0.066 N 
ATOM      4  H1  ALA d          10.383  61.280  42.772  0.00  0.00     0.275 HD
ATOM      5  H2  ALA d          10.739  61.382  44.376  0.00  0.00     0.275 HD
ATOM      6  H3  ALA d           9.617  62.390  43.716  0.00  0.00     0.275 HD
ENDBRANCH   1   3
BRANCH   1   7
ATOM      7  C   ALA d           8.352  60.720  45.369  0.00  0.00     0.204 C 
ATOM      8  O   ALA d           7.365  60.072  45.773  0.00  0.00    -0.646 OA
ATOM      9  OXT ALA d           8.861  61.602  46.082  0.00  0.00    -0.646 OA
ENDBRANCH   1   7
TORSDOF 2
