REMARK  7 active torsions:
REMARK  status: ('A' for Active; 'I' for Inactive)
REMARK    1  A    between atoms: C9_6  and  C4_5 
REMARK    2  A    between atoms: C6_28  and  C9_6 
REMARK    3  A    between atoms: S1_7  and  N1_10 
REMARK    4  A    between atoms: S1_7  and  C6_28 
REMARK    5  A    between atoms: N1_10  and  C12_11 
REMARK    6  A    between atoms: N2_16  and  C16_17 
REMARK    7  A    between atoms: C16_17  and  C18_19 
REMARK       I    between atoms: C18_19  and  N3_21 
ROOT
ATOM      1  C12 MOL d           7.022  17.962  49.497  0.00  0.00     0.186 C 
ATOM      2  C13 MOL d           6.016  17.024  50.210  0.00  0.00     0.055 C 
ATOM      3  C14 MOL d           4.675  17.383  49.533  0.00  0.00     0.129 C 
ATOM      4  C15 MOL d           6.186  19.102  48.930  0.00  0.00     0.244 C 
ATOM      5  O3  MOL d           6.636  20.201  48.612  0.00  0.00    -0.271 OA
ATOM      6  N2  MOL d           4.902  18.679  48.870  0.00  0.00    -0.337 N 
ENDROOT
BRANCH   1   7
ATOM      7  N1  MOL d           8.129  18.393  50.347  0.00  0.00    -0.306 N 
ATOM      8  H5  MOL d           7.941  18.790  51.245  0.00  0.00     0.173 HD
BRANCH   7   9
ATOM      9  S1  MOL d           9.646  18.232  49.845  0.00  0.00     0.227 S 
ATOM     10  O2  MOL d           9.782  17.012  49.110  0.00  0.00    -0.206 OA
ATOM     11  O1  MOL d          10.402  18.409  51.049  0.00  0.00    -0.206 OA
BRANCH   9  12
ATOM     12  C6  MOL d          10.043  19.539  48.691  0.00  0.00     0.168 C 
BRANCH  12  13
ATOM     13  C9  MOL d           9.888  20.924  49.331  0.00  0.00     0.063 C 
BRANCH  13  14
ATOM     14  C4  MOL d          10.224  21.971  48.300  0.00  0.00    -0.015 A 
ATOM     15  C3  MOL d          11.260  21.824  47.309  0.00  0.00     0.017 A 
ATOM     16  C2  MOL d          11.334  22.969  46.437  0.00  0.00     0.032 A 
ATOM     17  C1  MOL d          10.344  23.952  46.820  0.00  0.00     0.075 A 
ATOM     18 CL1  MOL d          10.182  25.484  46.027  0.00  0.00    -0.076 Cl
ATOM     19  S6  MOL d           9.415  23.475  48.186  0.00  0.00    -0.083 SA
ENDBRANCH  13  14
ENDBRANCH  12  13
ENDBRANCH   9  12
ENDBRANCH   7   9
ENDBRANCH   1   7
BRANCH   6  20
ATOM     20  C16 MOL d           3.822  19.454  48.236  0.00  0.00     0.175 C 
ATOM     21  C17 MOL d           3.453  18.904  46.841  0.00  0.00     0.042 C 
BRANCH  20  22
ATOM     22  C18 MOL d           2.572  19.512  49.111  0.00  0.00     0.242 C 
ATOM     23  O4  MOL d           1.571  18.907  48.775  0.00  0.00    -0.271 OA
ATOM     24  N3  MOL d           2.610  20.231  50.258  0.00  0.00    -0.346 N 
ATOM     25  C19 MOL d           1.420  20.297  51.110  0.00  0.00     0.152 C 
ATOM     26  C23 MOL d           3.767  21.000  50.748  0.00  0.00     0.152 C 
ATOM     27  C20 MOL d           1.792  19.946  52.543  0.00  0.00     0.187 C 
ATOM     28  O5  MOL d           2.909  20.737  52.986  0.00  0.00    -0.388 OA
ATOM     29  C22 MOL d           4.081  20.544  52.180  0.00  0.00     0.187 C 
ENDBRANCH  20  22
ENDBRANCH   6  20
TORSDOF 7
