REMARK  11 active torsions:
REMARK  status: ('A' for Active; 'I' for Inactive)
REMARK    1  A    between atoms: C8_8  and  C1_1 
REMARK    2  A    between atoms: C8_8  and  N7_7 
REMARK    3  A    between atoms: N7_7  and  C28_28 
REMARK    4  A    between atoms: C8_8  and  C9_9 
REMARK       I    between atoms: C9_9  and  N11_11 
REMARK    5  A    between atoms: C12_12  and  C13_13 
REMARK       I    between atoms: C13_13  and  N15_15 
REMARK    6  A    between atoms: N15_15  and  C16_16 
REMARK    7  A    between atoms: C16_16  and  C17_17 
REMARK    8  A    between atoms: C20_20  and  C23_23 
REMARK    9  A    between atoms: C23_23  and  N25_25 
REMARK   10  A    between atoms: C23_23  and  N24_24 
REMARK   11  A    between atoms: C28_28  and  C29_29 
ROOT
ATOM      1  C9  MEL d          17.869 -13.402  22.281  0.00  0.00     0.251 C 
ATOM      2  O0  MEL d          16.827 -12.790  22.666  0.00  0.00    -0.271 OA
ATOM      3  N11 MEL d          18.615 -12.912  21.293  0.00  0.00    -0.337 N 
ATOM      4  C12 MEL d          18.455 -11.694  20.481  0.00  0.00     0.180 C 
ATOM      5  C26 MEL d          19.783 -11.919  19.842  0.00  0.00     0.055 C 
ATOM      6  C27 MEL d          19.832 -13.283  20.576  0.00  0.00     0.129 C 
ENDROOT
BRANCH   4   7
ATOM      7  C13 MEL d          17.086 -11.815  19.815  0.00  0.00     0.240 C 
ATOM      8  N15 MEL d          16.142 -10.799  19.952  0.00  0.00    -0.355 N 
ATOM      9  H16 MEL d          16.401  -9.929  20.372  0.00  0.00     0.162 HD
ATOM     10  O14 MEL d          16.818 -12.826  19.183  0.00  0.00    -0.271 OA
BRANCH   8  11
ATOM     11  C16 MEL d          14.789 -11.001  19.488  0.00  0.00     0.161 C 
BRANCH  11  12
ATOM     12  C17 MEL d          13.847 -10.969  20.619  0.00  0.00    -0.040 A 
ATOM     13  C22 MEL d          13.505 -12.164  21.307  0.00  0.00     0.010 A 
ATOM     14  C21 MEL d          12.581 -12.110  22.409  0.00  0.00     0.016 A 
ATOM     15  C20 MEL d          12.013 -10.846  22.800  0.00  0.00     0.007 A 
ATOM     16  C19 MEL d          12.368  -9.678  22.101  0.00  0.00     0.016 A 
ATOM     17  C18 MEL d          13.290  -9.743  21.006  0.00  0.00     0.010 A 
BRANCH  15  18
ATOM     18  C23 MEL d          11.108 -10.779  23.869  0.00  0.00     0.102 C 
BRANCH  18  19
ATOM     19  N25 MEL d          10.363 -11.880  24.215  0.00  0.00    -0.385 N 
ATOM     20  H25 MEL d          10.474 -12.761  23.694  0.00  0.00     0.157 HD
ATOM     21  H26 MEL d           9.693 -11.824  24.996  0.00  0.00     0.157 HD
ENDBRANCH  18  19
BRANCH  18  22
ATOM     22  N24 MEL d          10.949  -9.615  24.571  0.00  0.00    -0.385 N 
ATOM     23  H23 MEL d          10.282  -9.573  25.355  0.00  0.00     0.157 HD
ATOM     24  H24 MEL d          11.496  -8.781  24.315  0.00  0.00     0.157 HD
ENDBRANCH  18  22
ENDBRANCH  15  18
ENDBRANCH  11  12
ENDBRANCH   8  11
ENDBRANCH   4   7
BRANCH   1  25
ATOM     25  C8  MEL d          18.248 -14.692  22.938  0.00  0.00     0.281 C 
BRANCH  25  26
ATOM     26  C1  MEL d          18.740 -14.409  24.419  0.00  0.00     0.026 C 
ATOM     27  C6  MEL d          20.088 -13.612  24.366  0.00  0.00     0.007 C 
ATOM     28  C5  MEL d          20.589 -13.345  25.818  0.00  0.00     0.000 C 
ATOM     29  C4  MEL d          20.811 -14.718  26.538  0.00  0.00     0.000 C 
ATOM     30  C3  MEL d          19.489 -15.529  26.632  0.00  0.00     0.000 C 
ATOM     31  C2  MEL d          18.906 -15.746  25.200  0.00  0.00     0.007 C 
ENDBRANCH  25  26
BRANCH  25  32
ATOM     32  N7  MEL d          17.041 -15.566  22.981  0.00  0.00    -0.052 N 
ATOM     33  H12 MEL d          16.302 -15.021  23.396  0.00  0.00     0.278 HD
ATOM     34  H13 MEL d          17.266 -16.342  23.584  0.00  0.00     0.278 HD
BRANCH  32  35
ATOM     35  C28 MEL d          16.490 -16.147  21.719  0.00  0.00     0.345 C 
BRANCH  35  36
ATOM     36  C29 MEL d          14.978 -16.471  21.814  0.00  0.00     0.199 C 
ATOM     37  O31 MEL d          14.277 -16.627  20.722  0.00  0.00    -0.647 OA
ATOM     38  O30 MEL d          14.389 -16.599  23.001  0.00  0.00    -0.647 OA
ENDBRANCH  35  36
ENDBRANCH  32  35
ENDBRANCH  25  32
ENDBRANCH   1  25
TORSDOF 11
