REMARK  11 active torsions:
REMARK  status: ('A' for Active; 'I' for Inactive)
REMARK    1  A    between atoms: PG_1  and  N3B_5 
REMARK    2  A    between atoms: N3B_5  and  PB_6 
REMARK    3  A    between atoms: PB_6  and  O3A_9 
REMARK    4  A    between atoms: O3A_9  and  PA_10 
REMARK    5  A    between atoms: PA_10  and  O5'_13 
REMARK    6  A    between atoms: O5'_13  and  C5'_14 
REMARK    7  A    between atoms: C5'_14  and  C4'_15 
REMARK    8  A    between atoms: C3'_17  and  O3'_18 
REMARK    9  A    between atoms: C2'_19  and  O2'_20 
REMARK   10  A    between atoms: C1'_21  and  N9_22 
REMARK   11  A    between atoms: C2_29  and  N2_30 
ROOT
ATOM      1  C4' GNP d          63.159   1.981  47.035  0.00  0.00     0.180 C 
ATOM      2  O4' GNP d          64.340   2.773  47.152  0.00  0.00    -0.353 OA
ATOM      3  C3' GNP d          62.628   1.774  48.450  0.00  0.00     0.182 C 
ATOM      4  C2' GNP d          63.188   2.927  49.237  0.00  0.00     0.198 C 
ATOM      5  C1' GNP d          64.510   3.137  48.528  0.00  0.00     0.262 C 
ENDROOT
BRANCH   1   6
ATOM      6  C5' GNP d          62.162   2.701  46.157  0.00  0.00     0.216 C 
BRANCH   6   7
ATOM      7  O5' GNP d          61.725   3.884  46.838  0.00  0.00    -0.287 OA
BRANCH   7   8
ATOM      8  PA  GNP d          60.334   4.551  46.417  0.00  0.00     0.417 P 
ATOM      9  O1A GNP d          60.213   5.887  47.140  0.00  0.00    -0.624 OA
ATOM     10  O2A GNP d          59.243   3.536  46.522  0.00  0.00    -0.624 OA
BRANCH   8  11
ATOM     11  O3A GNP d          60.687   4.783  44.854  0.00  0.00    -0.186 OA
BRANCH  11  12
ATOM     12  PB  GNP d          59.681   5.367  43.738  0.00  0.00     0.379 P 
ATOM     13  O1B GNP d          60.475   6.231  42.826  0.00  0.00    -0.629 OA
ATOM     14  O2B GNP d          58.583   6.230  44.486  0.00  0.00    -0.629 OA
BRANCH  12  15
ATOM     15  N3B GNP d          59.019   4.062  42.796  0.00  0.00    -0.218 N 
ATOM     16  H1  GNP d          59.476   3.172  42.809  0.00  0.00     0.179 HD
BRANCH  15  17
ATOM     17  PG  GNP d          57.555   4.266  41.812  0.00  0.00     0.381 P 
ATOM     18  O1G GNP d          57.315   2.988  41.103  0.00  0.00    -0.622 OA
ATOM     19  O2G GNP d          57.716   5.431  40.707  0.00  0.00    -0.622 OA
ATOM     20  O3G GNP d          56.314   4.668  42.770  0.00  0.00    -0.622 OA
ENDBRANCH  15  17
ENDBRANCH  12  15
ENDBRANCH  11  12
ENDBRANCH   8  11
ENDBRANCH   7   8
ENDBRANCH   6   7
ENDBRANCH   1   6
BRANCH   3  21
ATOM     21  O3' GNP d          63.135   0.548  48.992  0.00  0.00    -0.390 OA
ATOM     22  H6  GNP d          62.798   0.429  49.872  0.00  0.00     0.210 HD
ENDBRANCH   3  21
BRANCH   5  23
ATOM     23  N9  GNP d          64.950   4.533  48.715  0.00  0.00    -0.295 N 
ATOM     24  C8  GNP d          64.268   5.688  48.516  0.00  0.00     0.214 A 
ATOM     25  N7  GNP d          65.054   6.762  48.819  0.00  0.00    -0.234 NA
ATOM     26  C5  GNP d          66.251   6.284  49.238  0.00  0.00     0.171 A 
ATOM     27  C6  GNP d          67.522   6.845  49.726  0.00  0.00     0.292 A 
ATOM     28  C4  GNP d          66.153   4.824  49.167  0.00  0.00     0.161 A 
ATOM     29  O6  GNP d          67.689   8.087  49.803  0.00  0.00    -0.265 OA
ATOM     30  N1  GNP d          68.505   5.974  50.061  0.00  0.00    -0.154 N 
ATOM     31  C2  GNP d          68.333   4.635  49.969  0.00  0.00     0.680 A 
ATOM     32  H11 GNP d          69.381   6.331  50.385  0.00  0.00     0.187 HD
ATOM     33  N3  GNP d          67.186   4.056  49.540  0.00  0.00    -0.174 N 
ATOM     34  H14 GNP d          67.108   3.030  49.501  0.00  0.00     0.186 HD
BRANCH  31  35
ATOM     35  N2  GNP d          69.314   3.789  50.300  0.00  0.00    -0.234 N 
ATOM     36  H12 GNP d          69.165   2.773  50.224  0.00  0.00     0.174 HD
ATOM     37  H13 GNP d          70.219   4.154  50.631  0.00  0.00     0.174 HD
ENDBRANCH  31  35
ENDBRANCH   5  23
BRANCH   4  38
ATOM     38  O2' GNP d          63.432   2.666  50.626  0.00  0.00    -0.388 OA
ATOM     39  H8  GNP d          64.057   1.956  50.709  0.00  0.00     0.210 HD
ENDBRANCH   4  38
TORSDOF 11
