REMARK  0 active torsions:
REMARK  status: ('A' for Active; 'I' for Inactive)
ROOT
ATOM      1  N1  H33 d          38.074  20.531  22.212  0.00  0.00    -0.269 N 
ATOM      2  C2  H33 d          38.080  20.395  23.611  0.00  0.00     0.284 A 
ATOM      3  C3  H33 d          38.316  21.533  24.423  0.00  0.00     0.172 A 
ATOM      4  C4  H33 d          38.541  22.785  23.848  0.00  0.00     0.148 A 
ATOM      5  N5  H33 d          38.516  22.947  22.445  0.00  0.00    -0.287 N 
ATOM      6  C6  H33 d          38.290  21.814  21.619  0.00  0.00     0.332 A 
ATOM      7  N7  H33 d          38.375  21.718  25.760  0.00  0.00    -0.211 NA
ATOM      8  C8  H33 d          38.634  23.018  25.992  0.00  0.00     0.203 A 
ATOM      9  N9  H33 d          38.721  23.669  24.845  0.00  0.00    -0.315 N 
ATOM     10  C11 H33 d          38.742  24.283  21.825  0.00  0.00     0.163 C 
ATOM     11  C15 H33 d          37.833  19.322  21.380  0.00  0.00     0.164 C 
ATOM     12  O19 H33 d          38.279  21.929  20.393  0.00  0.00    -0.246 OA
ATOM     13  O20 H33 d          37.880  19.261  24.068  0.00  0.00    -0.265 OA
ATOM     14 CL   H33 d          38.808  23.699  27.356  0.00  0.00    -0.043 Cl
ATOM     15  H1  H33 d          38.896  24.678  24.734  0.00  0.00     0.170 HD
ENDROOT
TORSDOF 0
