REMARK  12 active torsions:
REMARK  status: ('A' for Active; 'I' for Inactive)
REMARK    1  A    between atoms: O1D_1  and  C1D_2 
REMARK    2  A    between atoms: C2D_3  and  O2D_4 
REMARK    3  A    between atoms: C5D_6  and  C6D_7 
REMARK    4  A    between atoms: C6D_7  and  O6D_8 
REMARK    5  A    between atoms: C4D_9  and  O4D_10 
REMARK    6  A    between atoms: C3D_11  and  O3D_12 
REMARK    7  A    between atoms: O3D_12  and  C1E_13 
REMARK    8  A    between atoms: C2E_14  and  O2E_15 
REMARK    9  A    between atoms: C3E_16  and  O3E_17 
REMARK   10  A    between atoms: C4E_18  and  O4E_19 
REMARK   11  A    between atoms: C5E_21  and  C6E_22 
REMARK   12  A    between atoms: C6E_22  and  O6E_23 
ROOT
ATOM      1  O3D LB2 d           5.321   0.755  38.171  0.00  0.00    -0.348 OA
ENDROOT
BRANCH   1   2
ATOM      2  C3D LB2 d           4.649   1.585  39.125  0.00  0.00     0.189 C 
ATOM      3  C2D LB2 d           5.507   1.631  40.380  0.00  0.00     0.204 C 
ATOM      4  C1D LB2 d           4.758   2.246  41.557  0.00  0.00     0.288 C 
ATOM      5  O5D LB2 d           3.614   1.443  41.826  0.00  0.00    -0.349 OA
ATOM      6  C5D LB2 d           2.682   1.486  40.744  0.00  0.00     0.179 C 
ATOM      7  C4D LB2 d           3.316   0.927  39.468  0.00  0.00     0.181 C 
BRANCH   3   8
ATOM      8  O2D LB2 d           6.712   2.362  40.151  0.00  0.00    -0.388 OA
ATOM      9  H4  LB2 d           7.256   2.325  40.929  0.00  0.00     0.210 HD
ENDBRANCH   3   8
BRANCH   4  10
ATOM     10  O1D LB2 d           5.610   2.249  42.705  0.00  0.00    -0.369 OA
ATOM     11  H1  LB2 d           6.375   2.784  42.529  0.00  0.00     0.212 HD
ENDBRANCH   4  10
BRANCH   6  12
ATOM     12  C6D LB2 d           1.435   0.699  41.142  0.00  0.00     0.198 C 
BRANCH  12  13
ATOM     13  O6D LB2 d           1.812  -0.561  41.718  0.00  0.00    -0.398 OA
ATOM     14  H8  LB2 d           2.345  -0.408  42.489  0.00  0.00     0.209 HD
ENDBRANCH  12  13
ENDBRANCH   6  12
BRANCH   7  15
ATOM     15  O4D LB2 d           2.417   1.113  38.371  0.00  0.00    -0.390 OA
ATOM     16  H10 LB2 d           2.243   2.040  38.260  0.00  0.00     0.210 HD
ENDBRANCH   7  15
ENDBRANCH   1   2
BRANCH   1  17
ATOM     17  C1E LB2 d           5.542   1.331  36.847  0.00  0.00     0.292 C 
ATOM     18  C2E LB2 d           5.990   0.449  35.700  0.00  0.00     0.204 C 
ATOM     19  C3E LB2 d           5.362   0.983  34.429  0.00  0.00     0.183 C 
ATOM     20  C4E LB2 d           4.038   1.638  34.826  0.00  0.00     0.180 C 
ATOM     21  C5E LB2 d           4.344   2.964  35.523  0.00  0.00     0.179 C 
ATOM     22  O5E LB2 d           5.240   2.740  36.623  0.00  0.00    -0.348 OA
BRANCH  18  23
ATOM     23  O2E LB2 d           7.401   0.197  35.464  0.00  0.00    -0.388 OA
ATOM     24  H14 LB2 d           7.498  -0.372  34.710  0.00  0.00     0.210 HD
ENDBRANCH  18  23
BRANCH  19  25
ATOM     25  O3E LB2 d           5.166  -0.151  33.585  0.00  0.00    -0.390 OA
ATOM     26  H16 LB2 d           4.771   0.129  32.767  0.00  0.00     0.210 HD
ENDBRANCH  19  25
BRANCH  20  27
ATOM     27  O4E LB2 d           3.200   1.816  33.671  0.00  0.00    -0.390 OA
ATOM     28  H18 LB2 d           3.021   0.970  33.277  0.00  0.00     0.210 HD
ENDBRANCH  20  27
BRANCH  21  29
ATOM     29  C6E LB2 d           3.102   3.719  36.005  0.00  0.00     0.198 C 
BRANCH  29  30
ATOM     30  O6E LB2 d           2.216   2.864  36.747  0.00  0.00    -0.398 OA
ATOM     31  H22 LB2 d           2.672   2.520  37.507  0.00  0.00     0.209 HD
ENDBRANCH  29  30
ENDBRANCH  21  29
ENDBRANCH   1  17
TORSDOF 12
