REMARK  4 active torsions:
REMARK  status: ('A' for Active; 'I' for Inactive)
REMARK    1  A    between atoms: C02_2  and  C01_1 
REMARK    2  A    between atoms: C03_3  and  C02_2 
REMARK    3  A    between atoms: C02_2  and  NP3_6 
REMARK    4  A    between atoms: N14_7  and  C03_3 
ROOT
ATOM      1  C03 QUS d          16.057   2.087  16.637  0.00  0.00     0.205 C 
ENDROOT
BRANCH   1   2
ATOM      2  C02 QUS d          14.670   1.578  17.055  0.00  0.00     0.303 C 
BRANCH   2   3
ATOM      3  C01 QUS d          14.814   1.269  18.550  0.00  0.00     0.206 C 
ATOM      4  O16 QUS d          13.996   1.757  19.348  0.00  0.00    -0.646 OA
ATOM      5  O17 QUS d          15.764   0.527  18.892  0.00  0.00    -0.646 OA
ENDBRANCH   2   3
BRANCH   2   6
ATOM      6  NP3 QUS d          13.519   2.536  16.941  0.00  0.00    -0.064 N 
ATOM      7  H4  QUS d          12.672   2.081  17.244  0.00  0.00     0.275 HD
ATOM      8  H5  QUS d          13.418   2.828  15.981  0.00  0.00     0.275 HD
ATOM      9  H6  QUS d          13.694   3.342  17.521  0.00  0.00     0.275 HD
ENDBRANCH   2   6
ENDBRANCH   1   2
BRANCH   1  10
ATOM     10  N14 QUS d          16.379   1.667  15.271  0.00  0.00    -0.194 N 
ATOM     11  O20 QUS d          15.915   2.486  14.190  0.00  0.00    -0.174 OA
ATOM     12  C05 QUS d          15.878   1.649  13.098  0.00  0.00     0.391 A 
ATOM     13  O19 QUS d          15.525   2.042  12.001  0.00  0.00    -0.236 OA
ATOM     14  N15 QUS d          16.285   0.417  13.505  0.00  0.00    -0.251 N 
ATOM     15  C04 QUS d          16.589   0.395  14.825  0.00  0.00     0.351 A 
ATOM     16  H7  QUS d          16.352  -0.378  12.902  0.00  0.00     0.176 HD
ATOM     17  O18 QUS d          16.967  -0.502  15.515  0.00  0.00    -0.244 OA
ENDBRANCH   1  10
TORSDOF 4
