REMARK  13 active torsions:
REMARK  status: ('A' for Active; 'I' for Inactive)
REMARK    1  A    between atoms: O1_31  and  C13_4 
REMARK    2  A    between atoms: C21_5  and  O2_32 
REMARK    3  A    between atoms: C22_6  and  O11_48 
REMARK    4  A    between atoms: C23_7  and  O4_34 
REMARK    5  A    between atoms: O4_34  and  C27_9 
REMARK    6  A    between atoms: C31_13  and  N1_30 
REMARK    7  A    between atoms: C9_14  and  O5_35 
REMARK       I    between atoms: N1_30  and  C14_18 
REMARK    8  A    between atoms: C14_18  and  C15_19 
REMARK    9  A    between atoms: C17_21  and  C25_25 
REMARK   10  A    between atoms: C18_22  and  O9_39 
REMARK   11  A    between atoms: C25_25  and  C26_26 
REMARK   12  A    between atoms: O2_32  and  C10_46 
REMARK   13  A    between atoms: C10_46  and  C3_42 
ROOT
ATOM      1  C27 CBN d          21.080  30.527  34.993  0.00  0.00     0.096 A 
ATOM      2  C28 CBN d          20.118  31.521  35.418  0.00  0.00     0.102 A 
ATOM      3  C4  CBN d          19.899  32.669  34.581  0.00  0.00     0.117 A 
ATOM      4  C11 CBN d          18.971  34.987  34.335  0.00  0.00     0.318 A 
ATOM      5  C31 CBN d          19.654  35.136  33.018  0.00  0.00     0.146 A 
ATOM      6  C9  CBN d          20.445  34.112  32.549  0.00  0.00     0.111 A 
ATOM      7  C32 CBN d          20.627  32.839  33.318  0.00  0.00     0.035 A 
ATOM      8  C33 CBN d          21.574  31.819  32.890  0.00  0.00     0.020 A 
ATOM      9  C35 CBN d          21.807  30.676  33.711  0.00  0.00     0.040 A 
ATOM     10  O6  CBN d          19.061  33.742  35.021  0.00  0.00    -0.271 OA
ATOM     11  O7  CBN d          18.192  35.797  34.737  0.00  0.00    -0.257 OA
ATOM     12 CL1  CBN d          19.240  31.404  36.920  0.00  0.00    -0.078 Cl
ENDROOT
BRANCH   1  13
ATOM     13  O4  CBN d          21.276  29.461  35.867  0.00  0.00    -0.316 OA
BRANCH  13  14
ATOM     14  C23 CBN d          21.939  28.269  35.489  0.00  0.00     0.298 C 
ATOM     15  C22 CBN d          21.980  27.398  36.780  0.00  0.00     0.206 C 
ATOM     16  C21 CBN d          20.553  26.864  37.001  0.00  0.00     0.197 C 
ATOM     17  C13 CBN d          20.083  26.085  35.750  0.00  0.00     0.186 C 
ATOM     18  C24 CBN d          20.006  27.028  34.495  0.00  0.00     0.085 C 
ATOM     19  O3  CBN d          21.262  27.686  34.374  0.00  0.00    -0.345 OA
ATOM     20  C12 CBN d          19.780  26.263  33.194  0.00  0.00     0.048 C 
ATOM     21  C8  CBN d          18.867  28.061  34.496  0.00  0.00     0.048 C 
BRANCH  15  22
ATOM     22  O11 CBN d          22.853  26.265  36.710  0.00  0.00    -0.388 OA
ATOM     23  H37 CBN d          22.802  25.776  37.523  0.00  0.00     0.210 HD
ENDBRANCH  15  22
BRANCH  16  24
ATOM     24  O2  CBN d          20.518  26.019  38.154  0.00  0.00    -0.305 OA
BRANCH  24  25
ATOM     25  C10 CBN d          20.378  26.573  39.407  0.00  0.00     0.310 C 
ATOM     26  O10 CBN d          20.524  27.762  39.612  0.00  0.00    -0.258 OA
BRANCH  25  27
ATOM     27  C3  CBN d          20.040  25.633  40.453  0.00  0.00     0.108 A 
ATOM     28  N2  CBN d          20.310  25.940  41.856  0.00  0.00    -0.355 N 
ATOM     29  C5  CBN d          19.890  24.725  42.561  0.00  0.00     0.005 A 
ATOM     30  H33 CBN d          20.702  26.805  42.255  0.00  0.00     0.166 HD
ATOM     31  C1  CBN d          19.513  23.742  41.559  0.00  0.00     0.027 A 
ATOM     32  C6  CBN d          19.681  24.860  44.006  0.00  0.00     0.068 C 
ATOM     33  C2  CBN d          19.556  24.269  40.345  0.00  0.00     0.038 A 
ENDBRANCH  25  27
ENDBRANCH  24  25
ENDBRANCH  16  24
BRANCH  17  34
ATOM     34  O1  CBN d          18.830  25.504  36.088  0.00  0.00    -0.385 OA
ATOM     35  C7  CBN d          18.802  24.105  36.349  0.00  0.00     0.202 C 
ENDBRANCH  17  34
ENDBRANCH  13  14
ENDBRANCH   1  13
BRANCH   6  36
ATOM     36  O5  CBN d          21.115  34.220  31.371  0.00  0.00    -0.357 OA
ATOM     37  H29 CBN d          21.605  33.422  31.212  0.00  0.00     0.217 HD
ENDBRANCH   6  36
BRANCH   5  38
ATOM     38  N1  CBN d          19.318  36.294  32.184  0.00  0.00    -0.316 N 
ATOM     39  C14 CBN d          18.084  36.676  31.852  0.00  0.00     0.256 C 
ATOM     40  O8  CBN d          17.887  37.824  31.757  0.00  0.00    -0.267 OA
ATOM     41  H28 CBN d          20.077  36.843  31.835  0.00  0.00     0.169 HD
BRANCH  39  42
ATOM     42  C15 CBN d          17.000  35.742  31.497  0.00  0.00     0.033 A 
ATOM     43  C20 CBN d          15.620  36.140  31.766  0.00  0.00     0.020 A 
ATOM     44  C19 CBN d          14.544  35.351  31.245  0.00  0.00     0.038 A 
ATOM     45  C18 CBN d          14.845  34.145  30.489  0.00  0.00     0.072 A 
ATOM     46  C17 CBN d          16.212  33.701  30.252  0.00  0.00    -0.021 A 
ATOM     47  C16 CBN d          17.292  34.507  30.756  0.00  0.00     0.027 A 
BRANCH  45  48
ATOM     48  O9  CBN d          13.797  33.380  30.044  0.00  0.00    -0.360 OA
ATOM     49  H30 CBN d          12.978  33.802  30.275  0.00  0.00     0.217 HD
ENDBRANCH  45  48
BRANCH  46  50
ATOM     50  C25 CBN d          16.501  32.412  29.517  0.00  0.00     0.068 C 
BRANCH  50  51
ATOM     51  C26 CBN d          16.296  31.130  30.375  0.00  0.00    -0.020 C 
ATOM     52  C29 CBN d          17.196  30.279  30.898  0.00  0.00    -0.091 C 
ATOM     53  C34 CBN d          18.621  30.536  30.738  0.00  0.00     0.042 C 
ATOM     54  C30 CBN d          16.721  29.156  31.716  0.00  0.00     0.042 C 
ENDBRANCH  50  51
ENDBRANCH  46  50
ENDBRANCH  39  42
ENDBRANCH   5  38
TORSDOF 13
