REMARK  8 active torsions:
REMARK  status: ('A' for Active; 'I' for Inactive)
REMARK    1  A    between atoms: P_2  and  O5'_5 
REMARK    2  A    between atoms: O5'_5  and  C5'_6 
REMARK    3  A    between atoms: C5'_6  and  C4'_7 
REMARK    4  A    between atoms: C3'_8  and  O3'_9 
REMARK    5  A    between atoms: C2'_10  and  O2'_11 
REMARK    6  A    between atoms: C1'_13  and  N1_14 
REMARK    7  A    between atoms: C5_15  and  N6_16 
REMARK    8  A    between atoms: C4_17  and  N7_18 
ROOT
ATOM      1  C4' NIA d          13.348 -11.780 -12.767  0.00  0.00     0.180 C 
ATOM      2  C3' NIA d          12.538 -13.077 -12.506  0.00  0.00     0.182 C 
ATOM      3  C2' NIA d          13.214 -14.092 -13.440  0.00  0.00     0.198 C 
ATOM      4  O4' NIA d          14.405 -12.071 -13.715  0.00  0.00    -0.353 OA
ATOM      5  C1' NIA d          13.973 -13.175 -14.462  0.00  0.00     0.262 C 
ENDROOT
BRANCH   5   6
ATOM      6  N1  NIA d          14.874 -14.073 -15.154  0.00  0.00    -0.294 N 
ATOM      7  C5  NIA d          14.777 -14.288 -16.484  0.00  0.00     0.157 A 
ATOM      8  C4  NIA d          15.589 -15.360 -16.772  0.00  0.00     0.240 A 
ATOM      9  N3  NIA d          16.244 -15.741 -15.652  0.00  0.00    -0.217 NA
ATOM     10  C2  NIA d          15.760 -14.958 -14.663  0.00  0.00     0.216 A 
BRANCH   7  11
ATOM     11  N6  NIA d          13.915 -13.641 -17.316  0.00  0.00    -0.382 N 
ATOM     12  H9  NIA d          13.904 -13.864 -18.321  0.00  0.00     0.157 HD
ATOM     13  H10 NIA d          13.274 -12.928 -16.940  0.00  0.00     0.157 HD
ENDBRANCH   7  11
BRANCH   8  14
ATOM     14  N7  NIA d          15.774 -15.971 -17.958  0.00  0.00    -0.092 N 
ATOM     15  O72 NIA d          14.989 -15.749 -18.913  0.00  0.00    -0.530 OA
ATOM     16  O71 NIA d          16.485 -17.004 -17.967  0.00  0.00    -0.530 OA
ENDBRANCH   8  14
ENDBRANCH   5   6
BRANCH   3  17
ATOM     17  O2' NIA d          12.306 -15.067 -14.060  0.00  0.00    -0.388 OA
ATOM     18  H7  NIA d          11.658 -14.608 -14.580  0.00  0.00     0.210 HD
ENDBRANCH   3  17
BRANCH   2  19
ATOM     19  O3' NIA d          11.150 -12.861 -12.819  0.00  0.00    -0.390 OA
ATOM     20  H5  NIA d          10.662 -13.660 -12.656  0.00  0.00     0.210 HD
ENDBRANCH   2  19
BRANCH   1  21
ATOM     21  C5' NIA d          14.044 -11.149 -11.593  0.00  0.00     0.217 C 
BRANCH  21  22
ATOM     22  O5' NIA d          14.781 -12.140 -10.905  0.00  0.00    -0.280 OA
BRANCH  22  23
ATOM     23  P   NIA d          15.601 -11.667  -9.589  0.00  0.00     0.422 P 
ATOM     24  O8  NIA d          16.277 -12.941  -9.181  0.00  0.00    -0.617 OA
ATOM     25  O6  NIA d          14.590 -11.160  -8.616  0.00  0.00    -0.617 OA
ATOM     26  O7  NIA d          16.536 -10.585 -10.075  0.00  0.00    -0.617 OA
ENDBRANCH  22  23
ENDBRANCH  21  22
ENDBRANCH   1  21
TORSDOF 8
