2ate_ligand

Created by X-TOOL on Fri Sep 26 17:34:31 2014
 33 34  0  0  0  0  0  0  0  0999 V2000
   16.2770  -12.9410   -9.1810  O 0  0  0  1  0  1
   15.6010  -11.6670   -9.5890  P 0  0  0  1  0  4
   14.5900  -11.1600   -8.6160  O 0  0  0  1  0  1
   16.5360  -10.5850  -10.0750  O 0  0  0  1  0  1
   14.7810  -12.1400  -10.9050  O 0  0  0  1  0  2
   14.0440  -11.1490  -11.5930  C 0  0  0  3  0  4
   13.3480  -11.7800  -12.7670  C 0  0  0  2  0  4
   12.5380  -13.0770  -12.5060  C 0  0  0  2  0  4
   11.1500  -12.8610  -12.8190  O 0  0  0  2  0  2
   13.2140  -14.0920  -13.4400  C 0  0  0  2  0  4
   12.3060  -15.0670  -14.0600  O 0  0  0  2  0  2
   14.4050  -12.0710  -13.7150  O 0  0  0  1  0  2
   13.9730  -13.1750  -14.4620  C 0  0  0  2  0  4
   14.8740  -14.0730  -15.1540  N 0  0  0  1  0  3
   14.7770  -14.2880  -16.4840  C 0  0  0  1  0  3
   13.9150  -13.6410  -17.3160  N 0  0  0  3  0  3
   15.5890  -15.3600  -16.7720  C 0  0  0  1  0  3
   15.7740  -15.9710  -17.9580  N 0  0  0  1  0  3
   14.9890  -15.7490  -18.9130  O 0  0  0  1  0  1
   16.4850  -17.0040  -17.9670  O 0  0  0  1  0  1
   16.2440  -15.7410  -15.6520  N 0  0  0  1  0  2
   15.7600  -14.9580  -14.6630  C 0  0  0  2  0  3
   14.7263  -10.3628  -11.9484  H 0  0  0  1  0  1
   13.2977  -10.7083  -10.9157  H 0  0  0  1  0  1
   12.6553  -11.0395  -13.1934  H 0  0  0  1  0  1
   12.6264  -13.3977  -11.4575  H 0  0  0  1  0  1
   10.6619  -13.6596  -12.6564  H 0  0  0  1  0  1
   13.9504  -14.6703  -12.8627  H 0  0  0  1  0  1
   11.6575  -14.6077  -14.5804  H 0  0  0  1  0  1
   13.2756  -12.7857  -15.2183  H 0  0  0  1  0  1
   13.9042  -13.8645  -18.3214  H 0  0  0  1  0  1
   13.2737  -12.9281  -16.9400  H 0  0  0  1  0  1
   16.0470  -15.0329  -13.6152  H 0  0  0  1  0  1
  1  2  2  0  0  2
  2  3  2  0  0  2
  2  4  2  0  0  2
  2  5  1  0  0  2
  5  6  1  0  0  2
  6  7  1  0  0  2
  7  8  1  0  0  1
  7 12  1  0  0  1
  8  9  1  0  0  2
  8 10  1  0  0  1
 10 11  1  0  0  2
 10 13  1  0  0  1
 12 13  1  0  0  1
 13 14  1  0  0  2
 14 15  1  0  0  1
 14 22  1  0  0  1
 15 16  1  0  0  2
 15 17  2  0  0  1
 17 18  1  0  0  2
 17 21  1  0  0  1
 18 19  2  0  0  2
 18 20  2  0  0  2
 21 22  2  0  0  1
  6 23  1  0  0  2
  6 24  1  0  0  2
  7 25  1  0  0  2
  8 26  1  0  0  2
  9 27  1  0  0  2
 10 28  1  0  0  2
 11 29  1  0  0  2
 13 30  1  0  0  2
 16 31  1  0  0  2
 16 32  1  0  0  2
 22 33  1  0  0  2
M  END
> <MOLECULAR_FORMULA>
C8H11N4O9P

> <MOLECULAR_WEIGHT>
338.1

> <NUM_HB_ATOMS>
12 

> <NUM_ROTOR>
3  

> <XLOGP2>
-1.77

$$$$
