REMARK  5 active torsions:
REMARK  status: ('A' for Active; 'I' for Inactive)
REMARK    1  A    between atoms: S2_2  and  N3_4 
REMARK    2  A    between atoms: S2_2  and  C5_5 
REMARK    3  A    between atoms: C8_8  and  S11_11 
REMARK    4  A    between atoms: S11_11  and  C12_12 
REMARK    5  A    between atoms: C12_12  and  C13_13 
ROOT
ATOM      1  C5  VD9 d          24.541   3.890  10.292  0.00  0.00     0.079 C 
ATOM      2  C10 VD9 d          25.926   3.926  10.227  0.00  0.00     0.026 C 
ATOM      3  C9  VD9 d          26.642   5.126  10.409  0.00  0.00     0.020 C 
ATOM      4  C8  VD9 d          25.888   6.249  10.742  0.00  0.00     0.000 C 
ATOM      5  C7  VD9 d          24.493   6.282  10.858  0.00  0.00     0.020 C 
ATOM      6  C6  VD9 d          23.866   5.031  10.687  0.00  0.00     0.026 C 
ENDROOT
BRANCH   1   7
ATOM      7  S2  VD9 d          23.683   2.401  10.007  0.00  0.00     0.256 S 
ATOM      8  O4  VD9 d          23.021   2.585   8.708  0.00  0.00    -0.201 OA
ATOM      9  O1  VD9 d          24.724   1.322  10.015  0.00  0.00    -0.201 OA
BRANCH   7  10
ATOM     10  N3  VD9 d          22.615   2.141  11.164  0.00  0.00    -0.324 N 
ATOM     11  H1  VD9 d          21.852   2.775  11.292  0.00  0.00     0.169 HD
ATOM     12  H2  VD9 d          22.709   1.344  11.761  0.00  0.00     0.169 HD
ENDBRANCH   7  10
ENDBRANCH   1   7
BRANCH   4  13
ATOM     13  S11 VD9 d          26.643   7.858  10.960  0.00  0.00    -0.130 SA
BRANCH  13  14
ATOM     14  C12 VD9 d          28.381   7.643  10.399  0.00  0.00     0.079 C 
BRANCH  14  15
ATOM     15  C13 VD9 d          28.465   7.459   8.903  0.00  0.00     0.006 C 
ATOM     16  C14 VD9 d          29.909   7.231   8.497  0.00  0.00     0.006 C 
ENDBRANCH  14  15
ENDBRANCH  13  14
ENDBRANCH   4  13
TORSDOF 5
