4ww8_ligand

Created by X-TOOL on Sun Nov 13 14:27:06 2016
 27 27  0  0  0  0  0  0  0  0999 V2000
   23.0210    2.5850    8.7080  O 0  0  0  1  0  1
   23.6830    2.4010   10.0070  S 0  0  0  1  0  4
   24.7240    1.3220   10.0150  O 0  0  0  1  0  1
   22.6150    2.1410   11.1640  N 0  0  0  3  0  3
   24.5410    3.8900   10.2920  C 0  0  0  1  0  3
   25.9260    3.9260   10.2270  C 0  0  0  2  0  3
   26.6420    5.1260   10.4090  C 0  0  0  2  0  3
   25.8880    6.2490   10.7420  C 0  0  0  1  0  3
   24.4930    6.2820   10.8580  C 0  0  0  2  0  3
   23.8660    5.0310   10.6870  C 0  0  0  2  0  3
   26.6430    7.8580   10.9600  S 0  0  0  1  0  2
   28.3810    7.6430   10.3990  C 0  0  0  3  0  4
   28.4650    7.4590    8.9030  C 0  0  0  3  0  4
   29.9090    7.2310    8.4970  C 0  0  0  4  0  4
   21.8521    2.7748   11.2919  H 0  0  0  1  0  1
   22.7086    1.3443   11.7611  H 0  0  0  1  0  1
   26.4706    3.0093   10.0316  H 0  0  0  1  0  1
   27.7191    5.1726   10.2962  H 0  0  0  1  0  1
   23.9416    7.1927   11.0621  H 0  0  0  1  0  1
   22.8007    4.9596   10.8746  H 0  0  0  1  0  1
   28.8079    6.7571   10.8918  H 0  0  0  1  0  1
   28.9600    8.5345   10.6817  H 0  0  0  1  0  1
   28.0820    8.3600    8.4015  H 0  0  0  1  0  1
   27.8601    6.5893    8.6068  H 0  0  0  1  0  1
   29.9666    7.0974    7.4067  H 0  0  0  1  0  1
   30.2927    6.3298    8.9976  H 0  0  0  1  0  1
   30.5146    8.1005    8.7923  H 0  0  0  1  0  1
  1  2  2  0  0  2
  2  3  2  0  0  2
  2  4  1  0  0  2
  2  5  1  0  0  2
  5  6  4  0  0  1
  5 10  4  0  0  1
  6  7  4  0  0  1
  7  8  4  0  0  1
  8  9  4  0  0  1
  8 11  1  0  0  2
  9 10  4  0  0  1
 11 12  1  0  0  2
 12 13  1  0  0  2
 13 14  1  0  0  2
  4 15  1  0  0  2
  4 16  1  0  0  2
  6 17  1  0  0  2
  7 18  1  0  0  2
  9 19  1  0  0  2
 10 20  1  0  0  2
 12 21  1  0  0  2
 12 22  1  0  0  2
 13 23  1  0  0  2
 13 24  1  0  0  2
 14 25  1  0  0  2
 14 26  1  0  0  2
 14 27  1  0  0  2
M  END
> <MOLECULAR_FORMULA>
C9H13NO2S2

> <MOLECULAR_WEIGHT>
231.2

> <NUM_HB_ATOMS>
4  

> <NUM_ROTOR>
4  

> <XLOGP2>
1.67 

$$$$
