REMARK  6 active torsions:
REMARK  status: ('A' for Active; 'I' for Inactive)
REMARK    1  A    between atoms: N1_9  and  C1'_10 
REMARK    2  A    between atoms: C2'_12  and  O2'_13 
REMARK    3  A    between atoms: C3'_14  and  O3'_15 
REMARK    4  A    between atoms: C4'_16  and  C5'_17 
REMARK    5  A    between atoms: C5'_17  and  O5'_18 
REMARK    6  A    between atoms: O5'_18  and  P_19 
ROOT
ATOM      1  C1' U6M d          17.978  40.011  35.851  0.00  0.00     0.264 C 
ATOM      2  O4' U6M d          18.208  38.674  35.337  0.00  0.00    -0.353 OA
ATOM      3  C2' U6M d          18.473  39.996  37.264  0.00  0.00     0.198 C 
ATOM      4  C3' U6M d          19.629  39.028  37.189  0.00  0.00     0.182 C 
ATOM      5  C4' U6M d          19.132  37.988  36.210  0.00  0.00     0.180 C 
ENDROOT
BRANCH   1   6
ATOM      6  N1  U6M d          16.530  40.266  35.655  0.00  0.00    -0.274 N 
ATOM      7  C2  U6M d          15.574  39.582  36.385  0.00  0.00     0.331 C 
ATOM      8  O2  U6M d          15.916  38.626  37.102  0.00  0.00    -0.246 OA
ATOM      9  N3  U6M d          14.258  39.887  36.297  0.00  0.00    -0.275 N 
ATOM     10  C4  U6M d          13.845  40.929  35.560  0.00  0.00     0.251 C 
ATOM     11  H1  U6M d          13.587  39.330  36.786  0.00  0.00     0.173 HD
ATOM     12  O4  U6M d          12.598  41.105  35.478  0.00  0.00    -0.268 OA
ATOM     13  C5  U6M d          14.716  41.501  34.645  0.00  0.00     0.099 C 
ATOM     14  C6  U6M d          16.058  41.129  34.598  0.00  0.00     0.020 C 
ATOM     15  C7  U6M d          16.799  41.286  33.289  0.00  0.00     0.068 C 
ENDBRANCH   1   6
BRANCH   3  16
ATOM     16  O2' U6M d          18.928  41.308  37.575  0.00  0.00    -0.388 OA
ATOM     17  H8  U6M d          19.629  41.548  36.981  0.00  0.00     0.210 HD
ENDBRANCH   3  16
BRANCH   5  18
ATOM     18  C5' U6M d          18.386  36.824  36.853  0.00  0.00     0.217 C 
BRANCH  18  19
ATOM     19  O5' U6M d          19.431  36.041  37.461  0.00  0.00    -0.280 OA
BRANCH  19  20
ATOM     20  P   U6M d          19.074  34.705  38.298  0.00  0.00     0.422 P 
ATOM     21  O3P U6M d          18.964  33.592  37.315  0.00  0.00    -0.617 OA
ATOM     22  O1P U6M d          17.781  34.892  39.007  0.00  0.00    -0.617 OA
ATOM     23  O2P U6M d          20.250  34.570  39.236  0.00  0.00    -0.617 OA
ENDBRANCH  19  20
ENDBRANCH  18  19
ENDBRANCH   5  18
BRANCH   4  24
ATOM     24  O3' U6M d          20.758  39.683  36.579  0.00  0.00    -0.390 OA
ATOM     25  H10 U6M d          21.006  40.436  37.102  0.00  0.00     0.210 HD
ENDBRANCH   4  24
TORSDOF 6
