REMARK  8 active torsions:
REMARK  status: ('A' for Active; 'I' for Inactive)
REMARK       I    between atoms: CAG_2  and  NAI_4 
REMARK    1  A    between atoms: NAI_4  and  CAB_5 
REMARK    2  A    between atoms: CAC_6  and  OAJ_7 
REMARK    3  A    between atoms: CAD_8  and  OAK_9 
REMARK    4  A    between atoms: CAE_10  and  CAF_11 
REMARK    5  A    between atoms: CAF_11  and  OAM_12 
REMARK    6  A    between atoms: NAY_15  and  OAQ_16 
REMARK    7  A    between atoms: OAQ_16  and  CAP_17 
REMARK       I    between atoms: CAP_17  and  NAO_19 
REMARK    8  A    between atoms: NAO_19  and  CAS_20 
ROOT
ATOM      1  CAB OAN d          40.495  -1.564  10.538  0.00  0.00     0.194 C 
ATOM      2  CAC OAN d          41.956  -1.237  10.973  0.00  0.00     0.180 C 
ATOM      3  CAD OAN d          41.985  -0.415  12.242  0.00  0.00     0.180 C 
ATOM      4  CAE OAN d          41.265  -1.231  13.315  0.00  0.00     0.185 C 
ATOM      5  OAL OAN d          39.882  -1.452  12.927  0.00  0.00    -0.324 OA
ATOM      6  CAA OAN d          39.531  -1.457  11.594  0.00  0.00     0.194 C 
ATOM      7  NAY OAN d          38.248  -1.350  11.268  0.00  0.00    -0.100 NA
ENDROOT
BRANCH   1   8
ATOM      8  NAI OAN d          40.507  -2.890   9.872  0.00  0.00    -0.347 N 
ATOM      9  CAG OAN d          40.533  -4.085  10.506  0.00  0.00     0.214 C 
ATOM     10  CAH OAN d          40.597  -5.300   9.582  0.00  0.00     0.117 C 
ATOM     11  OAN OAN d          40.497  -4.238  11.726  0.00  0.00    -0.274 OA
ATOM     12  H4  OAN d          40.495  -2.901   8.872  0.00  0.00     0.163 HD
ENDBRANCH   1   8
BRANCH   7  13
ATOM     13  OAQ OAN d          37.275  -1.209  12.488  0.00  0.00    -0.153 OA
BRANCH  13  14
ATOM     14  CAP OAN d          35.958  -1.059  12.151  0.00  0.00     0.389 C 
ATOM     15  OAR OAN d          35.649  -0.553  11.069  0.00  0.00    -0.236 OA
ATOM     16  NAO OAN d          35.021  -1.459  13.043  0.00  0.00    -0.301 N 
ATOM     17  H14 OAN d          35.320  -1.819  13.927  0.00  0.00     0.171 HD
BRANCH  16  18
ATOM     18  CAS OAN d          33.702  -1.390  12.784  0.00  0.00     0.036 A 
ATOM     19  CAT OAN d          33.051  -0.178  12.516  0.00  0.00     0.029 A 
ATOM     20  CAU OAN d          31.676  -0.162  12.263  0.00  0.00     0.002 A 
ATOM     21  CAV OAN d          30.943  -1.352  12.287  0.00  0.00     0.000 A 
ATOM     22  CAW OAN d          31.582  -2.564  12.563  0.00  0.00     0.002 A 
ATOM     23  CAX OAN d          32.958  -2.577  12.813  0.00  0.00     0.029 A 
ENDBRANCH  16  18
ENDBRANCH  13  14
ENDBRANCH   7  13
BRANCH   2  24
ATOM     24  OAJ OAN d          42.672  -0.554   9.919  0.00  0.00    -0.390 OA
ATOM     25  H7  OAN d          43.557  -0.367  10.209  0.00  0.00     0.210 HD
ENDBRANCH   2  24
BRANCH   4  26
ATOM     26  CAF OAN d          41.273  -0.515  14.668  0.00  0.00     0.199 C 
BRANCH  26  27
ATOM     27  OAM OAN d          40.654  -1.353  15.653  0.00  0.00    -0.398 OA
ATOM     28  H13 OAN d          39.758  -1.535  15.395  0.00  0.00     0.209 HD
ENDBRANCH  26  27
ENDBRANCH   4  26
BRANCH   3  29
ATOM     29  OAK OAN d          43.347  -0.193  12.598  0.00  0.00    -0.390 OA
ATOM     30  H9  OAN d          43.785   0.274  11.896  0.00  0.00     0.210 HD
ENDBRANCH   3  29
TORSDOF 8
