REMARK  2 active torsions:
REMARK  status: ('A' for Active; 'I' for Inactive)
REMARK    1  A    between atoms: S_2  and  C2_4 
REMARK    2  A    between atoms: S_2  and  NH_9 
ROOT
ATOM      1  S   EVG d          15.052   0.970  16.928  0.00  0.00     0.279 S 
ATOM      2  O1  EVG d          13.596   1.041  16.732  0.00  0.00    -0.199 OA
ATOM      3  O2  EVG d          15.533   1.075  18.248  0.00  0.00    -0.199 OA
ENDROOT
BRANCH   1   4
ATOM      4  C2  EVG d          15.710   2.328  16.105  0.00  0.00     0.189 A 
ATOM      5  O   EVG d          17.067   2.503  16.057  0.00  0.00    -0.310 OA
ATOM      6  C5  EVG d          17.294   3.692  15.291  0.00  0.00     0.143 A 
ATOM      7  C4  EVG d          16.061   4.219  14.922  0.00  0.00     0.028 A 
ATOM      8  C3  EVG d          15.026   3.405  15.438  0.00  0.00     0.053 A 
ENDBRANCH   1   4
BRANCH   1   9
ATOM      9  NH  EVG d          15.606  -0.313  16.216  0.00  0.00    -0.323 N 
ATOM     10  H4  EVG d          16.584  -0.520  16.248  0.00  0.00     0.169 HD
ATOM     11  H5  EVG d          14.981  -0.924  15.730  0.00  0.00     0.169 HD
ENDBRANCH   1   9
TORSDOF 2
