REMARK  0 active torsions:
REMARK  status: ('A' for Active; 'I' for Inactive)
ROOT
ATOM      1  CG  BNZ d          27.385   5.881   2.928  0.00  0.00     0.000 A 
ATOM      2  CD1 BNZ d          26.408   5.086   3.512  0.00  0.00     0.000 A 
ATOM      3  CD2 BNZ d          27.891   6.973   3.620  0.00  0.00     0.000 A 
ATOM      4  CE1 BNZ d          25.957   5.352   4.805  0.00  0.00     0.000 A 
ATOM      5  CE2 BNZ d          27.441   7.240   4.913  0.00  0.00     0.000 A 
ATOM      6  CZ  BNZ d          26.490   6.418   5.520  0.00  0.00     0.000 A 
ENDROOT
TORSDOF 0
