REMARK  7 active torsions:
REMARK  status: ('A' for Active; 'I' for Inactive)
REMARK    1  A    between atoms: C_1  and  CA_4 
REMARK       I    between atoms: NAV_21  and  C_1 
REMARK    2  A    between atoms: CAH_9  and  CAL_13 
REMARK    3  A    between atoms: CAZ_24  and  CAR_18 
REMARK    4  A    between atoms: CAX_22  and  NAV_21 
REMARK    5  A    between atoms: CAX_22  and  CAY_23 
REMARK       I    between atoms: CAY_23  and  NBK_35 
REMARK    6  A    between atoms: NBK_35  and  SBM_37 
REMARK    7  A    between atoms: SBM_37  and  CBN_38 
ROOT
ATOM      1  N   SU3 d         -15.037  -9.738  13.560  0.00  0.00    -0.334 N 
ATOM      2  CA  SU3 d         -13.639  -9.703  14.042  0.00  0.00     0.181 C 
ATOM      3  CB  SU3 d         -12.881 -10.515  13.017  0.00  0.00     0.069 C 
ATOM      4  CG  SU3 d         -13.905 -11.556  12.582  0.00  0.00     0.154 C 
ATOM      5  CAF SU3 d         -16.022  -9.011  14.101  0.00  0.00     0.244 C 
ATOM      6  OAG SU3 d         -15.778  -8.256  15.051  0.00  0.00    -0.271 OA
ATOM      7  CAH SU3 d         -17.409  -9.083  13.516  0.00  0.00     0.186 C 
ATOM      8  NAI SU3 d         -18.352  -9.338  14.602  0.00  0.00    -0.323 N 
ATOM      9  CAJ SU3 d         -18.962 -10.505  14.742  0.00  0.00     0.361 C 
ATOM     10  OAK SU3 d         -19.766 -10.553  15.819  0.00  0.00    -0.303 OA
ATOM     11  OAM SU3 d         -18.846 -11.449  13.956  0.00  0.00    -0.238 OA
ATOM     12  CAO SU3 d         -13.281 -13.592  13.673  0.00  0.00     0.363 C 
ATOM     13  OAP SU3 d         -12.401 -13.749  12.830  0.00  0.00    -0.238 OA
ATOM     14  NAQ SU3 d         -13.453 -14.466  14.644  0.00  0.00    -0.320 N 
ATOM     15  CBB SU3 d         -12.753 -15.737  14.902  0.00  0.00     0.167 A 
ATOM     16  CBC SU3 d         -13.374 -16.304  16.169  0.00  0.00    -0.032 A 
ATOM     17  CBD SU3 d         -14.354 -15.434  16.620  0.00  0.00    -0.026 A 
ATOM     18  CBE SU3 d         -14.470 -14.233  15.684  0.00  0.00     0.168 A 
ATOM     19  CBF SU3 d         -13.116 -17.475  16.881  0.00  0.00     0.009 A 
ATOM     20  CBG SU3 d         -13.839 -17.747  18.037  0.00  0.00     0.001 A 
ATOM     21  CBH SU3 d         -14.817 -16.864  18.482  0.00  0.00     0.007 A 
ATOM     22  CBI SU3 d         -15.089 -15.693  17.773  0.00  0.00    -0.050 A 
ATOM     23  CBJ SU3 d         -16.164 -14.759  18.325  0.00  0.00     0.039 C 
ATOM     24  CBS SU3 d         -17.546 -15.048  17.765  0.00  0.00     0.005 C 
ATOM     25  CBT SU3 d         -18.521 -13.956  18.223  0.00  0.00     0.001 C 
ATOM     26  CBU SU3 d         -18.990 -13.133  17.024  0.00  0.00     0.011 C 
ATOM     27  CBV SU3 d         -20.329 -12.428  17.255  0.00  0.00    -0.025 C 
ATOM     28  CBW SU3 d         -20.629 -11.686  15.965  0.00  0.00     0.189 C 
ATOM     29  CBX SU3 d         -21.451 -13.446  17.481  0.00  0.00     0.017 C 
ATOM     30  CBY SU3 d         -20.254 -11.441  18.432  0.00  0.00     0.017 C 
ATOM     31  CD1 SU3 d         -15.201 -10.741  12.481  0.00  0.00     0.159 C 
ATOM     32  OD2 SU3 d         -14.100 -12.516  13.652  0.00  0.00    -0.297 OA
ATOM     33  H6  SU3 d         -18.543  -8.609  15.260  0.00  0.00     0.165 HD
ENDROOT
BRANCH   2  34
ATOM     34  C   SU3 d         -13.167  -8.236  14.105  0.00  0.00     0.241 C 
ATOM     35  O   SU3 d         -13.330  -7.475  13.152  0.00  0.00    -0.271 OA
ATOM     36  NAV SU3 d         -12.576  -7.885  15.241  0.00  0.00    -0.341 N 
ATOM     37  H15 SU3 d         -12.329  -8.598  15.897  0.00  0.00     0.163 HD
BRANCH  36  38
ATOM     38  CAX SU3 d         -12.278  -6.505  15.561  0.00  0.00     0.119 A 
ATOM     39  CAZ SU3 d         -13.555  -5.676  15.863  0.00  0.00     0.026 A 
ATOM     40  CBA SU3 d         -12.610  -6.087  16.980  0.00  0.00     0.049 A 
BRANCH  38  41
ATOM     41  CAY SU3 d         -11.037  -5.880  14.948  0.00  0.00     0.259 C 
ATOM     42  NBK SU3 d         -10.269  -6.694  14.214  0.00  0.00    -0.252 N 
ATOM     43  H28 SU3 d         -10.483  -7.660  14.068  0.00  0.00     0.181 HD
ATOM     44  OBL SU3 d         -10.776  -4.707  15.218  0.00  0.00    -0.270 OA
BRANCH  42  45
ATOM     45  SBM SU3 d          -8.979  -5.985  13.592  0.00  0.00     0.237 S 
ATOM     46  OBO SU3 d          -9.366  -4.947  12.648  0.00  0.00    -0.205 OA
ATOM     47  OBP SU3 d          -8.019  -5.515  14.576  0.00  0.00    -0.205 OA
BRANCH  45  48
ATOM     48  CBN SU3 d          -8.221  -7.279  12.634  0.00  0.00     0.130 A 
ATOM     49  CBQ SU3 d          -6.804  -6.994  12.182  0.00  0.00     0.023 A 
ATOM     50  CBR SU3 d          -7.062  -8.022  13.287  0.00  0.00     0.023 A 
ENDBRANCH  45  48
ENDBRANCH  42  45
ENDBRANCH  38  41
BRANCH  39  51
ATOM     51  CAR SU3 d         -13.639  -4.183  15.528  0.00  0.00     0.003 C 
ATOM     52  CAS SU3 d         -14.070  -3.980  14.086  0.00  0.00     0.005 C 
ENDBRANCH  39  51
ENDBRANCH  36  38
ENDBRANCH   2  34
BRANCH   7  53
ATOM     53  CAL SU3 d         -17.785  -7.794  12.730  0.00  0.00    -0.022 C 
ATOM     54  CAT SU3 d         -19.154  -8.020  12.066  0.00  0.00     0.017 C 
ATOM     55  CBZ SU3 d         -17.856  -6.538  13.599  0.00  0.00     0.017 C 
ATOM     56  CCA SU3 d         -16.736  -7.565  11.648  0.00  0.00     0.017 C 
ENDBRANCH   7  53
TORSDOF 7
