REMARK  7 active torsions:
REMARK  status: ('A' for Active; 'I' for Inactive)
REMARK    1  A    between atoms: C1_1  and  C2_3 
REMARK    2  A    between atoms: C1_1  and  C16_21 
REMARK    3  A    between atoms: C2_3  and  N1_2 
REMARK    4  A    between atoms: C2_3  and  C3_4 
REMARK       I    between atoms: C3_4  and  N2_6 
REMARK    5  A    between atoms: C7_10  and  C8_11 
REMARK       I    between atoms: C8_11  and  N3_12 
REMARK    6  A    between atoms: N3_12  and  C9_13 
REMARK    7  A    between atoms: C9_13  and  C10_14 
ROOT
ATOM      1  C3  MOL d          17.449 -13.609  22.727  0.00  0.00     0.251 C 
ATOM      2  O1  MOL d          16.468 -12.982  23.144  0.00  0.00    -0.271 OA
ATOM      3  N2  MOL d          18.133 -13.163  21.657  0.00  0.00    -0.337 N 
ATOM      4  C4  MOL d          19.207 -13.915  20.981  0.00  0.00     0.127 C 
ATOM      5  C5  MOL d          19.973 -12.730  20.352  0.00  0.00     0.022 C 
ATOM      6  C6  MOL d          18.824 -11.777  19.917  0.00  0.00     0.037 C 
ATOM      7  C7  MOL d          17.836 -11.846  21.112  0.00  0.00     0.179 C 
ENDROOT
BRANCH   1   8
ATOM      8  C2  MOL d          17.627 -15.016  23.287  0.00  0.00     0.279 C 
BRANCH   8   9
ATOM      9  C1  MOL d          18.165 -14.964  24.731  0.00  0.00     0.081 C 
BRANCH   9  10
ATOM     10  C16 MOL d          19.564 -14.330  24.808  0.00  0.00    -0.056 C 
ATOM     11  C17 MOL d          20.664 -14.853  24.110  0.00  0.00     0.007 C 
ATOM     12  C18 MOL d          21.917 -14.234  24.232  0.00  0.00     0.001 C 
ATOM     13  C19 MOL d          22.073 -13.083  24.991  0.00  0.00     0.000 C 
ATOM     14  C20 MOL d          20.996 -12.589  25.757  0.00  0.00     0.001 C 
ATOM     15  C21 MOL d          19.744 -13.180  25.586  0.00  0.00     0.007 C 
ENDBRANCH   9  10
ENDBRANCH   8   9
BRANCH   8  16
ATOM     16  N1  MOL d          16.305 -15.714  23.232  0.00  0.00    -0.066 N 
ATOM     17  H3  MOL d          15.975 -15.735  22.280  0.00  0.00     0.275 HD
ATOM     18  H4  MOL d          15.640 -15.220  23.807  0.00  0.00     0.275 HD
ATOM     19  H5  MOL d          16.409 -16.657  23.572  0.00  0.00     0.275 HD
ENDBRANCH   8  16
ENDBRANCH   1   8
BRANCH   7  20
ATOM     20  C8  MOL d          16.402 -11.750  20.634  0.00  0.00     0.240 C 
ATOM     21  N3  MOL d          15.726 -10.608  20.932  0.00  0.00    -0.355 N 
ATOM     22  H14 MOL d          16.133  -9.903  21.514  0.00  0.00     0.162 HD
ATOM     23  O2  MOL d          15.885 -12.672  20.014  0.00  0.00    -0.271 OA
BRANCH  21  24
ATOM     24  C9  MOL d          14.369 -10.443  20.367  0.00  0.00     0.161 C 
BRANCH  24  25
ATOM     25  C10 MOL d          13.341 -10.361  21.513  0.00  0.00    -0.039 A 
ATOM     26  C11 MOL d          13.288  -9.259  22.386  0.00  0.00     0.032 A 
ATOM     27  C12 MOL d          12.335  -9.234  23.410  0.00  0.00     0.034 A 
ATOM     28  C13 MOL d          11.438 -10.295  23.561  0.00  0.00     0.024 A 
ATOM     29 CL1  MOL d          12.241  -7.883  24.526  0.00  0.00    -0.084 Cl
ATOM     30  C14 MOL d          11.512 -11.390  22.701  0.00  0.00     0.002 A 
ATOM     31  C15 MOL d          12.444 -11.403  21.672  0.00  0.00     0.009 A 
ENDBRANCH  24  25
ENDBRANCH  21  24
ENDBRANCH   7  20
TORSDOF 7
