REMARK  16 active torsions:
REMARK  status: ('A' for Active; 'I' for Inactive)
REMARK    1  A    between atoms: C21_17  and  C1_1 
REMARK       I    between atoms: C1_1  and  N1_47 
REMARK    2  A    between atoms: C2_2  and  C3_3 
REMARK    3  A    between atoms: C2_2  and  C20_16 
REMARK    4  A    between atoms: N1_47  and  C2_2 
REMARK       I    between atoms: C3_3  and  N2_44 
REMARK    5  A    between atoms: C4_4  and  C5_5 
REMARK    6  A    between atoms: C4_4  and  C7_7 
REMARK    7  A    between atoms: N2_44  and  C4_4 
REMARK    8  A    between atoms: C5_5  and  C6_6 
REMARK    9  A    between atoms: C5_5  and  O1_41 
REMARK       I    between atoms: C6_6  and  N3_39 
REMARK   10  A    between atoms: C7_7  and  C8_8 
REMARK   11  A    between atoms: C16_13  and  C17_26 
REMARK   12  A    between atoms: C20_16  and  S2_46 
REMARK   13  A    between atoms: O6_49  and  C21_17 
REMARK   14  A    between atoms: N4_27  and  C32_24 
REMARK       I    between atoms: C17_26  and  N4_27 
REMARK   15  A    between atoms: C36_35  and  O7_36 
REMARK   16  A    between atoms: O6_49  and  C23_50 
ROOT
ATOM      1  C4  O33 d          14.350 -20.627 -17.412  0.00  0.00     0.126 C 
ENDROOT
BRANCH   1   2
ATOM      2  C5  O33 d          14.220 -19.760 -18.659  0.00  0.00     0.233 C 
BRANCH   2   3
ATOM      3  C6  O33 d          12.924 -19.008 -18.591  0.00  0.00     0.252 C 
ATOM      4  N3  O33 d          11.885 -19.513 -19.234  0.00  0.00    -0.326 N 
ATOM      5  C14 O33 d          11.866 -20.770 -19.984  0.00  0.00     0.201 C 
ATOM      6  C16 O33 d          10.647 -18.739 -19.229  0.00  0.00     0.198 C 
ATOM      7  S1  O33 d          10.181 -21.064 -20.353  0.00  0.00    -0.137 SA
ATOM      8  C15 O33 d           9.780 -19.317 -20.361  0.00  0.00     0.032 C 
ATOM      9  C18 O33 d           8.269 -19.093 -20.245  0.00  0.00     0.029 C 
ATOM     10  C19 O33 d          10.215 -18.635 -21.664  0.00  0.00     0.029 C 
ATOM     11  O2  O33 d          12.856 -17.994 -17.940  0.00  0.00    -0.270 OA
BRANCH   6  12
ATOM     12  C17 O33 d           9.880 -18.733 -17.915  0.00  0.00     0.242 C 
ATOM     13  O4  O33 d           9.857 -19.729 -17.139  0.00  0.00    -0.271 OA
ATOM     14  N4  O33 d           9.224 -17.584 -17.702  0.00  0.00    -0.348 N 
ATOM     15  H29 O33 d           9.337 -16.832 -18.352  0.00  0.00     0.163 HD
BRANCH  14  16
ATOM     16  C32 O33 d           8.346 -17.397 -16.545  0.00  0.00     0.147 C 
ATOM     17  C33 O33 d           8.898 -16.788 -15.318  0.00  0.00    -0.027 A 
ATOM     18  C37 O33 d          10.133 -17.072 -14.723  0.00  0.00     0.010 A 
ATOM     19  C34 O33 d           8.020 -15.901 -14.771  0.00  0.00    -0.047 A 
ATOM     20  C38 O33 d          10.468 -16.410 -13.535  0.00  0.00     0.001 A 
ATOM     21  C39 O33 d           9.575 -15.467 -13.006  0.00  0.00     0.001 A 
ATOM     22  C40 O33 d           8.332 -15.214 -13.601  0.00  0.00     0.008 A 
ATOM     23  C35 O33 d           6.765 -15.778 -15.607  0.00  0.00     0.073 C 
ATOM     24  C36 O33 d           7.216 -16.422 -16.917  0.00  0.00     0.149 C 
BRANCH  24  25
ATOM     25  O7  O33 d           7.735 -15.408 -17.791  0.00  0.00    -0.393 OA
ATOM     26  H37 O33 d           8.016 -15.807 -18.606  0.00  0.00     0.210 HD
ENDBRANCH  24  25
ENDBRANCH  14  16
ENDBRANCH   6  12
ENDBRANCH   2   3
BRANCH   2  27
ATOM     27  O1  O33 d          15.317 -18.832 -18.719  0.00  0.00    -0.384 OA
ATOM     28  H38 O33 d          15.310 -18.285 -17.942  0.00  0.00     0.210 HD
ENDBRANCH   2  27
ENDBRANCH   1   2
BRANCH   1  29
ATOM     29  C7  O33 d          14.885 -19.875 -16.184  0.00  0.00     0.066 C 
BRANCH  29  30
ATOM     30  C8  O33 d          15.155 -20.894 -15.096  0.00  0.00    -0.056 A 
ATOM     31  C9  O33 d          16.480 -21.144 -14.733  0.00  0.00     0.007 A 
ATOM     32  C10 O33 d          16.737 -22.092 -13.759  0.00  0.00     0.001 A 
ATOM     33  C11 O33 d          15.676 -22.740 -13.132  0.00  0.00     0.000 A 
ATOM     34  C12 O33 d          14.348 -22.488 -13.460  0.00  0.00     0.001 A 
ATOM     35  C13 O33 d          14.084 -21.541 -14.457  0.00  0.00     0.007 A 
ENDBRANCH  29  30
ENDBRANCH   1  29
BRANCH   1  36
ATOM     36  N2  O33 d          15.324 -21.655 -17.764  0.00  0.00    -0.351 N 
ATOM     37  C3  O33 d          14.885 -22.885 -18.068  0.00  0.00     0.241 C 
ATOM     38  O3  O33 d          13.697 -23.218 -18.081  0.00  0.00    -0.271 OA
ATOM     39  H41 O33 d          16.302 -21.446 -17.778  0.00  0.00     0.163 HD
BRANCH  37  40
ATOM     40  C2  O33 d          15.953 -23.889 -18.386  0.00  0.00     0.185 C 
BRANCH  40  41
ATOM     41  C20 O33 d          15.302 -25.159 -18.959  0.00  0.00     0.108 C 
BRANCH  41  42
ATOM     42  S2  O33 d          14.872 -24.817 -20.648  0.00  0.00    -0.171 SA
ATOM     43  C22 O33 d          16.410 -25.193 -21.431  0.00  0.00     0.089 C 
ENDBRANCH  41  42
ENDBRANCH  40  41
BRANCH  40  44
ATOM     44  N1  O33 d          16.726 -24.257 -17.211  0.00  0.00    -0.345 N 
ATOM     45  C1  O33 d          18.034 -23.965 -17.173  0.00  0.00     0.242 C 
ATOM     46  O5  O33 d          18.635 -23.397 -18.063  0.00  0.00    -0.271 OA
ATOM     47  H42 O33 d          16.288 -24.722 -16.441  0.00  0.00     0.163 HD
BRANCH  45  48
ATOM     48  C21 O33 d          18.815 -24.337 -15.926  0.00  0.00     0.278 C 
BRANCH  48  49
ATOM     49  O6  O33 d          17.972 -24.875 -14.917  0.00  0.00    -0.341 OA
BRANCH  49  50
ATOM     50  C23 O33 d          18.479 -25.103 -13.662  0.00  0.00     0.080 A 
ATOM     51  C28 O33 d          17.692 -25.811 -12.759  0.00  0.00     0.010 A 
ATOM     52  C27 O33 d          18.180 -26.073 -11.469  0.00  0.00    -0.006 A 
ATOM     53  C31 O33 d          16.426 -26.259 -13.129  0.00  0.00     0.034 A 
ATOM     54  C29 O33 d          17.381 -26.798 -10.584  0.00  0.00     0.128 A 
ATOM     55  C26 O33 d          19.451 -25.617 -11.082  0.00  0.00     0.014 A 
ATOM     56  N5  O33 d          16.170 -27.234 -10.973  0.00  0.00    -0.272 NA
ATOM     57  C30 O33 d          15.686 -26.994 -12.195  0.00  0.00     0.117 A 
ATOM     58  C25 O33 d          20.229 -24.894 -11.993  0.00  0.00     0.004 A 
ATOM     59  C24 O33 d          19.742 -24.632 -13.288  0.00  0.00     0.038 A 
ENDBRANCH  49  50
ENDBRANCH  48  49
ENDBRANCH  45  48
ENDBRANCH  40  44
ENDBRANCH  37  40
ENDBRANCH   1  36
TORSDOF 16
