2i3v_ligand

Created by X-TOOL on Fri Sep 26 17:34:34 2014
 18 17  0  0  0  0  0  0  0  0999 V2000
    0.5280   71.8270   81.2660  N 0  3  0  4  0  4
    1.2150   71.8080   79.9430  C 0  0  0  2  0  4
    2.5230   72.5640   79.9900  C 0  5  0  1  0  3
    3.1810   72.6180   78.9380  O 0  0  0  1  0  1
    0.3150   72.4040   78.8640  C 0  0  0  3  0  4
   -0.8770   71.5110   78.5050  C 0  0  0  3  0  4
   -0.5210   70.3310   77.5940  C 0  5  0  1  0  3
   -1.3840   69.4590   77.4060  O 0  0  0  1  0  1
    0.6020   70.2610   77.0560  O 0  0  0  1  0  1
    2.8830   73.0630   81.0850  O 0  0  0  1  0  1
   -0.3385   71.3160   81.2020  H 0  0  0  1  0  1
    0.3370   72.7804   81.5318  H 0  0  0  1  0  1
    1.1210   71.3974   81.9587  H 0  0  0  1  0  1
    1.4287   70.7611   79.6815  H 0  0  0  1  0  1
    0.9166   72.5638   77.9571  H 0  0  0  1  0  1
   -0.0689   73.3698   79.2243  H 0  0  0  1  0  1
   -1.6296   72.1284   77.9928  H 0  0  0  1  0  1
   -1.3030   71.1117   79.4372  H 0  0  0  1  0  1
  1  2  1  0  0  2
  2  3  1  0  0  2
  2  5  1  0  0  2
  3  4  2  0  0  2
  3 10  2  0  0  2
  5  6  1  0  0  2
  6  7  1  0  0  2
  7  8  2  0  0  2
  7  9  2  0  0  2
  1 11  1  0  0  2
  1 12  1  0  0  2
  1 13  1  0  0  2
  2 14  1  0  0  2
  5 15  1  0  0  2
  5 16  1  0  0  2
  6 17  1  0  0  2
  6 18  1  0  0  2
M  END
> <MOLECULAR_FORMULA>
C5H8NO4

> <MOLECULAR_WEIGHT>
146.1

> <NUM_HB_ATOMS>
5  

> <NUM_ROTOR>
2  

> <XLOGP2>
-3.50

$$$$
