REMARK  18 active torsions:
REMARK  status: ('A' for Active; 'I' for Inactive)
REMARK    1  A    between atoms: OBJ_8  and  CBB_7 
REMARK    2  A    between atoms: CBB_7  and  CBP_10 
REMARK    3  A    between atoms: CBM_9  and  OBJ_8 
REMARK       I    between atoms: NBI_15  and  CBM_9 
REMARK    4  A    between atoms: PBY_12  and  CBX_14 
REMARK    5  A    between atoms: CBF_31  and  PBY_12 
REMARK    6  A    between atoms: CBX_14  and  NBI_15 
REMARK    7  A    between atoms: CBX_14  and  CBE_16 
REMARK    8  A    between atoms: CBE_16  and  CBQ_17 
REMARK    9  A    between atoms: CBS_35  and  CBC_30 
REMARK   10  A    between atoms: CBC_30  and  CBV_38 
REMARK   11  A    between atoms: CBV_38  and  CBF_31 
REMARK   12  A    between atoms: CBV_38  and  CBN_34 
REMARK       I    between atoms: CBN_34  and  N_39 
REMARK   13  A    between atoms: CBT_36  and  CBU_37 
REMARK   14  A    between atoms: N_39  and  CA_40 
REMARK   15  A    between atoms: CA_40  and  C_41 
REMARK   16  A    between atoms: CA_40  and  CB_43 
REMARK   17  A    between atoms: CB_43  and  CG_44 
REMARK   18  A    between atoms: CZ_49  and  OH_50 
ROOT
ATOM      1  CBV 3EF d          27.477  -3.788   9.593  0.00  0.00     0.093 C 
ENDROOT
BRANCH   1   2
ATOM      2  CBC 3EF d          27.021  -4.684   8.419  0.00  0.00     0.082 C 
BRANCH   2   3
ATOM      3  CBS 3EF d          27.362  -6.175   8.612  0.00  0.00     0.082 A 
ATOM      4  CBA 3EF d          26.970  -6.981   9.618  0.00  0.00     0.069 A 
ATOM      5  CBU 3EF d          27.475  -8.215   9.419  0.00  0.00     0.097 A 
ATOM      6  NBG 3EF d          28.200  -8.248   8.302  0.00  0.00    -0.128 NA
ATOM      7  OBK 3EF d          28.108  -6.846   7.749  0.00  0.00    -0.217 OA
BRANCH   5   8
ATOM      8  CBT 3EF d          27.301  -9.290  10.192  0.00  0.00    -0.005 A 
ATOM      9  CAU 3EF d          26.816  -9.185  11.496  0.00  0.00     0.014 A 
ATOM     10  CAO 3EF d          26.639 -10.337  12.273  0.00  0.00     0.001 A 
ATOM     11  CAJ 3EF d          26.953 -11.599  11.753  0.00  0.00     0.000 A 
ATOM     12  CAP 3EF d          27.432 -11.712  10.444  0.00  0.00     0.001 A 
ATOM     13  CAV 3EF d          27.601 -10.561   9.675  0.00  0.00     0.014 A 
ENDBRANCH   5   8
ENDBRANCH   2   3
ENDBRANCH   1   2
BRANCH   1  14
ATOM     14  CBF 3EF d          26.829  -2.396   9.411  0.00  0.00     0.120 C 
BRANCH  14  15
ATOM     15  PBY 3EF d          26.685  -1.519  11.059  0.00  0.00     0.130 P 
ATOM     16  OAD 3EF d          27.902  -1.803  11.838  0.00  0.00    -0.666 OA
ATOM     17  OAG 3EF d          25.374  -1.902  11.619  0.00  0.00    -0.666 OA
BRANCH  15  18
ATOM     18  CBX 3EF d          26.629   0.259  10.575  0.00  0.00     0.182 C 
BRANCH  18  19
ATOM     19  NBI 3EF d          26.503   0.965  11.845  0.00  0.00    -0.322 N 
ATOM     20  CBM 3EF d          25.376   1.547  12.253  0.00  0.00     0.361 C 
ATOM     21  OAB 3EF d          24.348   1.495  11.567  0.00  0.00    -0.238 OA
ATOM     22  H9  3EF d          27.305   1.015  12.441  0.00  0.00     0.165 HD
BRANCH  20  23
ATOM     23  OBJ 3EF d          25.407   2.186  13.463  0.00  0.00    -0.299 OA
BRANCH  23  24
ATOM     24  CBB 3EF d          24.191   2.719  14.016  0.00  0.00     0.219 C 
BRANCH  24  25
ATOM     25  CBP 3EF d          24.518   3.374  15.228  0.00  0.00    -0.034 A 
ATOM     26  CAQ 3EF d          23.914   4.597  15.546  0.00  0.00     0.009 A 
ATOM     27  CAK 3EF d          24.236   5.247  16.744  0.00  0.00     0.001 A 
ATOM     28  CAH 3EF d          25.173   4.682  17.613  0.00  0.00     0.000 A 
ATOM     29  CAL 3EF d          25.794   3.469  17.290  0.00  0.00     0.001 A 
ATOM     30  CAR 3EF d          25.466   2.813  16.092  0.00  0.00     0.009 A 
ENDBRANCH  24  25
ENDBRANCH  23  24
ENDBRANCH  20  23
ENDBRANCH  18  19
BRANCH  18  31
ATOM     31  CBE 3EF d          27.880   0.815   9.838  0.00  0.00     0.074 C 
BRANCH  31  32
ATOM     32  CBQ 3EF d          27.762   2.223   9.651  0.00  0.00    -0.056 A 
ATOM     33  CAS 3EF d          27.117   2.743   8.523  0.00  0.00     0.007 A 
ATOM     34  CAM 3EF d          26.987   4.127   8.343  0.00  0.00     0.001 A 
ATOM     35  CAI 3EF d          27.520   5.021   9.281  0.00  0.00     0.000 A 
ATOM     36  CAN 3EF d          28.176   4.511  10.418  0.00  0.00     0.001 A 
ATOM     37  CAT 3EF d          28.294   3.129  10.588  0.00  0.00     0.007 A 
ENDBRANCH  31  32
ENDBRANCH  18  31
ENDBRANCH  15  18
ENDBRANCH  14  15
ENDBRANCH   1  14
BRANCH   1  38
ATOM     38  CBN 3EF d          29.012  -3.635   9.590  0.00  0.00     0.223 C 
ATOM     39  OAC 3EF d          29.525  -2.579   9.209  0.00  0.00    -0.273 OA
ATOM     40  N   3EF d          29.728  -4.710   9.978  0.00  0.00    -0.346 N 
ATOM     41  H28 3EF d          29.253  -5.535  10.284  0.00  0.00     0.163 HD
BRANCH  40  42
ATOM     42  CA  3EF d          31.219  -4.685   9.956  0.00  0.00     0.189 C 
BRANCH  42  43
ATOM     43  C   3EF d          31.756  -4.638   8.500  0.00  0.00     0.197 C 
ATOM     44  O   3EF d          33.001  -4.537   8.345  0.00  0.00    -0.646 OA
ATOM     45  OXT 3EF d          30.914  -4.719   7.572  0.00  0.00    -0.646 OA
ENDBRANCH  42  43
BRANCH  42  46
ATOM     46  CB  3EF d          31.886  -5.920  10.564  0.00  0.00     0.074 C 
BRANCH  46  47
ATOM     47  CG  3EF d          31.209  -6.910  11.269  0.00  0.00    -0.056 A 
ATOM     48  CD1 3EF d          31.271  -8.232  10.813  0.00  0.00     0.010 A 
ATOM     49  CE1 3EF d          30.638  -9.253  11.537  0.00  0.00     0.037 A 
ATOM     50  CZ  3EF d          29.973  -8.935  12.727  0.00  0.00     0.065 A 
ATOM     51  CE2 3EF d          29.919  -7.618  13.183  0.00  0.00     0.037 A 
ATOM     52  CD2 3EF d          30.547  -6.600  12.463  0.00  0.00     0.010 A 
BRANCH  50  53
ATOM     53  OH  3EF d          29.360  -9.905  13.459  0.00  0.00    -0.361 OA
ATOM     54  H36 3EF d          29.478 -10.745  13.031  0.00  0.00     0.217 HD
ENDBRANCH  50  53
ENDBRANCH  46  47
ENDBRANCH  42  46
ENDBRANCH  40  42
ENDBRANCH   1  38
TORSDOF 18
