REMARK  7 active torsions:
REMARK  status: ('A' for Active; 'I' for Inactive)
REMARK    1  A    between atoms: N_1  and  CA_2 
REMARK    2  A    between atoms: CA_2  and  CB_3 
REMARK    3  A    between atoms: CA_2  and  C_10 
REMARK    4  A    between atoms: CB_3  and  CG_4 
REMARK    5  A    between atoms: CG_4  and  CD_5 
REMARK    6  A    between atoms: CD_5  and  CE_6 
REMARK    7  A    between atoms: CE_6  and  NZ_7 
ROOT
ATOM      1  CA  MLY d         -27.107 -20.759 -17.144  0.00  0.00     0.283 C 
ENDROOT
BRANCH   1   2
ATOM      2  N   MLY d         -27.431 -20.995 -15.702  0.00  0.00    -0.065 N 
ATOM      3  H1  MLY d         -27.512 -20.110 -15.227  0.00  0.00     0.275 HD
ATOM      4  H2  MLY d         -26.696 -21.539 -15.277  0.00  0.00     0.275 HD
ATOM      5  H3  MLY d         -28.303 -21.495 -15.631  0.00  0.00     0.275 HD
ENDBRANCH   1   2
BRANCH   1   6
ATOM      6  CB  MLY d         -25.820 -19.943 -17.242  0.00  0.00     0.044 C 
BRANCH   6   7
ATOM      7  CG  MLY d         -25.624 -19.467 -18.673  0.00  0.00     0.004 C 
BRANCH   7   8
ATOM      8  CD  MLY d         -24.578 -18.371 -18.775  0.00  0.00     0.028 C 
BRANCH   8   9
ATOM      9  CE  MLY d         -24.105 -18.251 -20.220  0.00  0.00     0.234 C 
BRANCH   9  10
ATOM     10  NZ  MLY d         -23.231 -17.077 -20.381  0.00  0.00    -0.079 N 
ATOM     11  CH1 MLY d         -22.985 -16.836 -21.812  0.00  0.00     0.269 C 
ATOM     12  CH2 MLY d         -21.954 -17.324 -19.698  0.00  0.00     0.269 C 
ATOM     13  H13 MLY d         -23.677 -16.268 -19.977  0.00  0.00     0.278 HD
ENDBRANCH   9  10
ENDBRANCH   8   9
ENDBRANCH   7   8
ENDBRANCH   6   7
ENDBRANCH   1   6
BRANCH   1  14
ATOM     14  C   MLY d         -26.969 -22.041 -17.928  0.00  0.00     0.204 C 
ATOM     15  O   MLY d         -26.241 -22.951 -17.527  0.00  0.00    -0.646 OA
ATOM     16  OXT MLY d         -27.567 -22.210 -18.999  0.00  0.00    -0.646 OA
ENDBRANCH   1  14
TORSDOF 7
