REMARK  10 active torsions:
REMARK  status: ('A' for Active; 'I' for Inactive)
REMARK    1  A    between atoms: CA_2  and  N_1 
REMARK    2  A    between atoms: CA_2  and  C_6 
REMARK    3  A    between atoms: CA_2  and  CB_3 
REMARK    4  A    between atoms: CB_3  and  CG_4 
REMARK    5  A    between atoms: CG_4  and  SD_5 
REMARK    6  A    between atoms: SD_5  and  C5'_9 
REMARK    7  A    between atoms: C5'_9  and  C4'_10 
REMARK    8  A    between atoms: C3'_12  and  O3'_13 
REMARK    9  A    between atoms: C2'_14  and  O2'_15 
REMARK   10  A    between atoms: C1'_16  and  N9_17 
ROOT
ATOM      1  C4' SAH d          17.190  36.174  24.052  0.00  0.00     0.165 C 
ATOM      2  O4' SAH d          17.497  35.382  25.213  0.00  0.00    -0.355 OA
ATOM      3  C3' SAH d          18.046  37.453  24.175  0.00  0.00     0.180 C 
ATOM      4  C2' SAH d          19.233  36.956  24.968  0.00  0.00     0.198 C 
ATOM      5  C1' SAH d          18.540  36.004  25.974  0.00  0.00     0.262 C 
ENDROOT
BRANCH   1   6
ATOM      6  C5' SAH d          17.325  35.359  22.744  0.00  0.00     0.108 C 
BRANCH   6   7
ATOM      7  SD  SAH d          16.506  36.093  21.272  0.00  0.00    -0.166 SA
BRANCH   7   8
ATOM      8  CG  SAH d          14.766  36.333  21.817  0.00  0.00     0.076 C 
BRANCH   8   9
ATOM      9  CB  SAH d          14.341  37.817  21.769  0.00  0.00     0.054 C 
BRANCH   9  10
ATOM     10  CA  SAH d          12.900  38.191  22.185  0.00  0.00     0.284 C 
BRANCH  10  11
ATOM     11  N   SAH d          12.074  37.081  22.625  0.00  0.00    -0.065 N 
ATOM     12  H1  SAH d          12.514  36.625  23.409  0.00  0.00     0.275 HD
ATOM     13  H2  SAH d          11.967  36.422  21.870  0.00  0.00     0.275 HD
ATOM     14  H3  SAH d          11.168  37.425  22.901  0.00  0.00     0.275 HD
ENDBRANCH  10  11
BRANCH  10  15
ATOM     15  C   SAH d          12.330  38.974  20.981  0.00  0.00     0.204 C 
ATOM     16  OXT SAH d          12.182  40.236  21.114  0.00  0.00    -0.646 OA
ATOM     17  O   SAH d          12.059  38.316  19.933  0.00  0.00    -0.646 OA
ENDBRANCH  10  15
ENDBRANCH   9  10
ENDBRANCH   8   9
ENDBRANCH   7   8
ENDBRANCH   6   7
ENDBRANCH   1   6
BRANCH   3  18
ATOM     18  O3' SAH d          17.344  38.569  24.694  0.00  0.00    -0.390 OA
ATOM     19  H13 SAH d          17.934  39.310  24.761  0.00  0.00     0.210 HD
ENDBRANCH   3  18
BRANCH   4  20
ATOM     20  O2' SAH d          19.865  37.986  25.715  0.00  0.00    -0.388 OA
ATOM     21  H15 SAH d          19.212  38.456  26.220  0.00  0.00     0.210 HD
ENDBRANCH   4  20
BRANCH   5  22
ATOM     22  N9  SAH d          19.411  34.933  26.508  0.00  0.00    -0.294 N 
ATOM     23  C4  SAH d          19.323  34.439  27.801  0.00  0.00     0.167 A 
ATOM     24  C5  SAH d          20.306  33.426  27.956  0.00  0.00     0.149 A 
ATOM     25  N3  SAH d          18.447  34.798  28.773  0.00  0.00    -0.222 NA
ATOM     26  N7  SAH d          20.990  33.332  26.751  0.00  0.00    -0.236 NA
ATOM     27  C6  SAH d          20.354  32.820  29.209  0.00  0.00     0.155 A 
ATOM     28  C8  SAH d          20.417  34.234  25.939  0.00  0.00     0.214 A 
ATOM     29  N1  SAH d          19.482  33.184  30.211  0.00  0.00    -0.222 NA
ATOM     30  N6  SAH d          21.269  31.849  29.489  0.00  0.00    -0.382 N 
ATOM     31  C2  SAH d          18.568  34.159  29.973  0.00  0.00     0.237 A 
ATOM     32  H18 SAH d          21.288  31.413  30.422  0.00  0.00     0.157 HD
ATOM     33  H19 SAH d          21.941  31.551  28.767  0.00  0.00     0.157 HD
ENDBRANCH   5  22
TORSDOF 10
