REMARK  3 active torsions:
REMARK  status: ('A' for Active; 'I' for Inactive)
REMARK    1  A    between atoms: C1_1  and  C4_4 
REMARK    2  A    between atoms: C2_2  and  O6_6 
REMARK    3  A    between atoms: C4_4  and  C13_9 
ROOT
ATOM      1  C1  2LP d           4.159   8.857   0.672  0.00  0.00    -0.025 A 
ATOM      2  C2  2LP d           3.249   9.322   1.603  0.00  0.00     0.071 A 
ATOM      3  C3  2LP d           3.874   7.604   0.156  0.00  0.00     0.010 A 
ATOM      4  C5  2LP d           2.095   8.592   1.962  0.00  0.00     0.037 A 
ATOM      5  C7  2LP d           2.717   6.861   0.472  0.00  0.00     0.001 A 
ATOM      6  C8  2LP d           1.787   7.326   1.385  0.00  0.00     0.003 A 
ENDROOT
BRANCH   1   7
ATOM      7  C4  2LP d           5.348   9.618   0.290  0.00  0.00     0.041 C 
BRANCH   7   8
ATOM      8  C13 2LP d           5.318  10.745  -0.695  0.00  0.00     0.000 C 
ATOM      9  C14 2LP d           4.343  10.718  -1.841  0.00  0.00     0.005 C 
ENDBRANCH   7   8
ENDBRANCH   1   7
BRANCH   2  10
ATOM     10  O6  2LP d           3.505  10.548   2.183  0.00  0.00    -0.360 OA
ATOM     11  H5  2LP d           4.314  10.900   1.832  0.00  0.00     0.217 HD
ENDBRANCH   2  10
TORSDOF 3
