REMARK  11 active torsions:
REMARK  status: ('A' for Active; 'I' for Inactive)
REMARK    1  A    between atoms: S2_2  and  C5_5 
REMARK    2  A    between atoms: C5_5  and  C6_6 
REMARK    3  A    between atoms: C6_6  and  N7_7 
REMARK    4  A    between atoms: N7_7  and  C8_8 
REMARK    5  A    between atoms: C8_8  and  C9_9 
REMARK    6  A    between atoms: C12_12  and  C14_14 
REMARK    7  A    between atoms: C21_21  and  N22_22 
REMARK    8  A    between atoms: N22_22  and  C23_23 
REMARK    9  A    between atoms: C26_26  and  O27_27 
REMARK   10  A    between atoms: O27_27  and  C28_28 
REMARK   11  A    between atoms: C28_28  and  C29_29 
ROOT
ATOM      1  C14 FMM d          16.176  32.058  35.407  0.00  0.00    -0.001 A 
ATOM      2  C15 FMM d          14.958  31.986  34.735  0.00  0.00     0.016 A 
ATOM      3  C16 FMM d          13.807  32.402  35.359  0.00  0.00     0.033 A 
ATOM      4  C17 FMM d          13.849  32.890  36.664  0.00  0.00     0.072 A 
ATOM      5  N18 FMM d          12.683  33.305  37.276  0.00  0.00    -0.241 NA
ATOM      6  C19 FMM d          12.708  33.790  38.568  0.00  0.00     0.236 A 
ATOM      7  N20 FMM d          13.899  33.863  39.260  0.00  0.00    -0.224 NA
ATOM      8  C21 FMM d          15.077  33.452  38.668  0.00  0.00     0.142 A 
ATOM      9  C39 FMM d          15.053  32.959  37.349  0.00  0.00     0.040 A 
ATOM     10  C40 FMM d          16.220  32.545  36.731  0.00  0.00     0.032 A 
ENDROOT
BRANCH   8  11
ATOM     11  N22 FMM d          16.282  33.527  39.366  0.00  0.00    -0.340 N 
ATOM     12  H17 FMM d          17.162  33.345  38.863  0.00  0.00     0.167 HD
BRANCH  11  13
ATOM     13  C23 FMM d          16.332  33.843  40.735  0.00  0.00     0.035 A 
ATOM     14  C24 FMM d          17.118  34.909  41.178  0.00  0.00     0.032 A 
ATOM     15  C25 FMM d          17.164  35.215  42.535  0.00  0.00     0.041 A 
ATOM     16  C26 FMM d          16.428  34.457  43.438  0.00  0.00     0.091 A 
ATOM     17  C36 FMM d          15.665  33.415  42.999  0.00  0.00     0.069 A 
ATOM     18 CL3  FMM d          14.784  32.514  44.128  0.00  0.00    -0.081 Cl
ATOM     19  C38 FMM d          15.607  33.098  41.660  0.00  0.00     0.056 A 
BRANCH  16  20
ATOM     20  O27 FMM d          16.446  34.747  44.828  0.00  0.00    -0.345 OA
BRANCH  20  21
ATOM     21  C28 FMM d          17.065  36.002  45.143  0.00  0.00     0.214 C 
BRANCH  21  22
ATOM     22  C29 FMM d          16.085  37.181  44.984  0.00  0.00    -0.031 A 
ATOM     23  C30 FMM d          16.519  38.462  45.246  0.00  0.00     0.009 A 
ATOM     24  C31 FMM d          15.653  39.527  45.102  0.00  0.00     0.004 A 
ATOM     25  C32 FMM d          14.354  39.312  44.693  0.00  0.00     0.042 A 
ATOM     26  C33 FMM d          13.916  38.036  44.429  0.00  0.00     0.117 A 
ATOM     27  F34 FMM d          12.679  37.837  44.035  0.00  0.00    -0.206 F 
ATOM     28  C35 FMM d          14.772  36.966  44.573  0.00  0.00     0.051 A 
ENDBRANCH  21  22
ENDBRANCH  20  21
ENDBRANCH  16  20
ENDBRANCH  11  13
ENDBRANCH   8  11
BRANCH   1  29
ATOM     29  C12 FMM d          17.409  31.645  34.731  0.00  0.00     0.086 A 
ATOM     30  C11 FMM d          17.445  31.237  33.421  0.00  0.00     0.040 A 
ATOM     31  C10 FMM d          18.674  30.977  33.121  0.00  0.00     0.037 A 
ATOM     32  C9  FMM d          19.416  31.208  34.223  0.00  0.00     0.079 A 
ATOM     33  O13 FMM d          18.655  31.653  35.363  0.00  0.00    -0.313 OA
BRANCH  32  34
ATOM     34  C8  FMM d          20.914  31.019  34.265  0.00  0.00     0.296 C 
BRANCH  34  35
ATOM     35  N7  FMM d          21.569  32.184  33.665  0.00  0.00    -0.069 N 
ATOM     36  H8  FMM d          20.907  32.941  33.594  0.00  0.00     0.277 HD
ATOM     37  H9  FMM d          22.344  32.468  34.243  0.00  0.00     0.277 HD
BRANCH  35  38
ATOM     38  C6  FMM d          22.061  31.836  32.324  0.00  0.00     0.247 C 
BRANCH  38  39
ATOM     39  C5  FMM d          23.587  31.980  32.291  0.00  0.00     0.167 C 
BRANCH  39  40
ATOM     40  S2  FMM d          24.036  33.465  31.350  0.00  0.00     0.142 S 
ATOM     41  C1  FMM d          22.604  34.487  31.141  0.00  0.00     0.161 C 
ATOM     42  O3  FMM d          25.053  34.204  32.067  0.00  0.00    -0.228 OA
ATOM     43  O4  FMM d          24.543  33.077  30.053  0.00  0.00    -0.228 OA
ENDBRANCH  39  40
ENDBRANCH  38  39
ENDBRANCH  35  38
ENDBRANCH  34  35
ENDBRANCH  32  34
ENDBRANCH   1  29
TORSDOF 11
