REMARK  0 active torsions:
REMARK  status: ('A' for Active; 'I' for Inactive)
ROOT
ATOM      1  C18 1YL d         -21.922 -40.431  26.436  0.00  0.00     0.049 C 
ATOM      2  C4  1YL d         -20.850 -40.716  25.285  0.00  0.00    -0.051 A 
ATOM      3  C3  1YL d         -21.096 -40.365  23.888  0.00  0.00     0.007 A 
ATOM      4  C2  1YL d         -20.097 -40.654  22.870  0.00  0.00     0.001 A 
ATOM      5  C1  1YL d         -18.840 -41.302  23.257  0.00  0.00     0.013 A 
ATOM      6  C10 1YL d         -18.587 -41.658  24.662  0.00  0.00    -0.010 A 
ATOM      7  C5  1YL d         -19.603 -41.351  25.665  0.00  0.00    -0.019 A 
ATOM      8  C6  1YL d         -19.411 -41.676  27.078  0.00  0.00     0.014 A 
ATOM      9  C7  1YL d         -18.165 -42.321  27.494  0.00  0.00     0.016 A 
ATOM     10  C8  1YL d         -17.139 -42.600  26.496  0.00  0.00     0.013 A 
ATOM     11  C9  1YL d         -17.326 -42.297  25.080  0.00  0.00     0.042 A 
ATOM     12  C11 1YL d         -16.213 -42.628  24.135  0.00  0.00     0.234 A 
ATOM     13  O21 1YL d         -16.279 -42.379  22.900  0.00  0.00    -0.283 OA
ATOM     14  C12 1YL d         -14.984 -43.265  24.586  0.00  0.00     0.232 A 
ATOM     15  O20 1YL d         -14.066 -43.538  23.734  0.00  0.00    -0.283 OA
ATOM     16  C13 1YL d         -14.833 -43.602  26.095  0.00  0.00     0.036 A 
ATOM     17  C14 1YL d         -15.852 -43.289  26.974  0.00  0.00     0.090 A 
ATOM     18  O19 1YL d         -15.500 -43.687  28.354  0.00  0.00    -0.349 OA
ATOM     19  C16 1YL d         -14.355 -44.642  28.261  0.00  0.00     0.184 C 
ATOM     20  C15 1YL d         -13.617 -44.284  26.901  0.00  0.00     0.046 C 
ATOM     21  C17 1YL d         -12.420 -43.213  27.078  0.00  0.00     0.017 C 
ENDROOT
TORSDOF 0
