REMARK  5 active torsions:
REMARK  status: ('A' for Active; 'I' for Inactive)
REMARK    1  A    between atoms: C03_3  and  S11_11 
REMARK    2  A    between atoms: C06_6  and  C07_7 
REMARK       I    between atoms: C07_7  and  N09_9 
REMARK    3  A    between atoms: N09_9  and  C10_10 
REMARK    4  A    between atoms: C10_10  and  C15_15 
REMARK    5  A    between atoms: S11_11  and  NP2_12 
ROOT
ATOM      1  C07 FFB d          -4.117   5.628  13.728  0.00  0.00     0.251 C 
ATOM      2  O08 FFB d          -4.954   6.472  13.423  0.00  0.00    -0.268 OA
ATOM      3  N09 FFB d          -2.755   5.862  13.436  0.00  0.00    -0.352 N 
ATOM      4  H5  FFB d          -2.044   5.442  14.000  0.00  0.00     0.163 HD
ENDROOT
BRANCH   1   5
ATOM      5  C06 FFB d          -4.648   4.426  14.444  0.00  0.00     0.032 A 
ATOM      6  C01 FFB d          -3.791   3.414  14.857  0.00  0.00     0.018 A 
ATOM      7  C02 FFB d          -4.260   2.316  15.570  0.00  0.00     0.026 A 
ATOM      8  C03 FFB d          -5.641   2.229  15.885  0.00  0.00     0.079 A 
ATOM      9  C04 FFB d          -6.487   3.245  15.446  0.00  0.00     0.026 A 
ATOM     10  C05 FFB d          -5.990   4.327  14.732  0.00  0.00     0.018 A 
BRANCH   8  11
ATOM     11  S11 FFB d          -6.202   0.828  16.839  0.00  0.00     0.256 S 
ATOM     12  O14 FFB d          -5.544   1.034  18.135  0.00  0.00    -0.201 OA
ATOM     13  O13 FFB d          -7.648   1.077  16.933  0.00  0.00    -0.201 OA
BRANCH  11  14
ATOM     14  NP2 FFB d          -5.789  -0.594  16.060  0.00  0.00    -0.324 N 
ATOM     15  H8  FFB d          -6.032  -1.475  16.465  0.00  0.00     0.169 HD
ATOM     16  H9  FFB d          -5.299  -0.563  15.189  0.00  0.00     0.169 HD
ENDBRANCH  11  14
ENDBRANCH   8  11
ENDBRANCH   1   5
BRANCH   3  17
ATOM     17  C10 FFB d          -2.384   6.714  12.315  0.00  0.00     0.168 C 
BRANCH  17  18
ATOM     18  C15 FFB d          -1.387   7.674  12.690  0.00  0.00     0.043 A 
ATOM     19  C20 FFB d          -0.225   7.923  11.851  0.00  0.00     0.169 A 
ATOM     20  C19 FFB d           0.750   8.873  12.265  0.00  0.00     0.197 A 
ATOM     21  F25 FFB d          -0.043   7.277  10.691  0.00  0.00    -0.202 F 
ATOM     22  C18 FFB d           0.583   9.577  13.504  0.00  0.00     0.199 A 
ATOM     23  F24 FFB d           1.820   9.101  11.491  0.00  0.00    -0.199 F 
ATOM     24  C17 FFB d          -0.568   9.331  14.339  0.00  0.00     0.197 A 
ATOM     25  F23 FFB d           1.503  10.471  13.891  0.00  0.00    -0.199 F 
ATOM     26  C16 FFB d          -1.566   8.369  13.931  0.00  0.00     0.169 A 
ATOM     27  F22 FFB d          -0.712   9.994  15.495  0.00  0.00    -0.199 F 
ATOM     28  F21 FFB d          -2.631   8.141  14.712  0.00  0.00    -0.202 F 
ENDBRANCH  17  18
ENDBRANCH   3  17
TORSDOF 5
