REMARK  14 active torsions:
REMARK  status: ('A' for Active; 'I' for Inactive)
REMARK    1  A    between atoms: N1_1  and  C31_39 
REMARK    2  A    between atoms: C2_3  and  C3_4 
REMARK       I    between atoms: C3_4  and  N2_6 
REMARK    3  A    between atoms: N2_6  and  C4_7 
REMARK    4  A    between atoms: N3_11  and  C10_14 
REMARK    5  A    between atoms: C10_14  and  C11_15 
REMARK    6  A    between atoms: C11_15  and  O2_16 
REMARK    7  A    between atoms: C11_15  and  C12_17 
REMARK    8  A    between atoms: C12_17  and  C13_18 
REMARK    9  A    between atoms: C13_18  and  C14_19 
REMARK   10  A    between atoms: C13_18  and  C21_26 
REMARK   11  A    between atoms: C14_19  and  C15_20 
REMARK       I    between atoms: C21_26  and  N4_28 
REMARK   12  A    between atoms: N4_28  and  C22_29 
REMARK   13  A    between atoms: C23_30  and  O4_31 
REMARK   14  A    between atoms: C31_39  and  C32_40 
ROOT
ATOM      1  C11 MK1 d          28.603 -13.204  -1.640  0.00  0.00     0.145 C 
ENDROOT
BRANCH   1   2
ATOM      2  C10 MK1 d          28.323 -12.032  -2.604  0.00  0.00     0.267 C 
BRANCH   2   3
ATOM      3  N3  MK1 d          27.875 -10.829  -1.852  0.00  0.00    -0.053 N 
ATOM      4  C2  MK1 d          28.498  -9.529  -2.401  0.00  0.00     0.305 C 
ATOM      5  C1  MK1 d          27.929  -8.393  -1.544  0.00  0.00     0.278 C 
ATOM      6  N1  MK1 d          26.436  -8.312  -1.583  0.00  0.00    -0.063 N 
ATOM      7  C9  MK1 d          25.892  -9.605  -1.130  0.00  0.00     0.263 C 
ATOM      8  H1  MK1 d          26.142  -8.152  -2.534  0.00  0.00     0.280 HD
ATOM      9  C8  MK1 d          26.390 -10.817  -1.915  0.00  0.00     0.263 C 
ATOM     10  H15 MK1 d          28.159 -10.922  -0.889  0.00  0.00     0.281 HD
BRANCH   4  11
ATOM     11  C3  MK1 d          30.020  -9.505  -2.295  0.00  0.00     0.251 C 
ATOM     12  O1  MK1 d          30.550  -9.894  -1.247  0.00  0.00    -0.271 OA
ATOM     13  N2  MK1 d          30.694  -9.048  -3.373  0.00  0.00    -0.351 N 
ATOM     14  H5  MK1 d          30.145  -8.755  -4.156  0.00  0.00     0.163 HD
BRANCH  13  15
ATOM     15  C4  MK1 d          32.151  -8.938  -3.510  0.00  0.00     0.022 C 
ATOM     16  C5  MK1 d          32.365  -8.349  -4.903  0.00  0.00     0.037 C 
ATOM     17  C6  MK1 d          32.786 -10.321  -3.448  0.00  0.00     0.037 C 
ATOM     18  C7  MK1 d          32.752  -7.974  -2.480  0.00  0.00     0.037 C 
ENDBRANCH  13  15
ENDBRANCH   4  11
BRANCH   6  19
ATOM     19  C31 MK1 d          25.949  -7.187  -0.753  0.00  0.00     0.275 C 
BRANCH  19  20
ATOM     20  C32 MK1 d          26.392  -5.776  -1.076  0.00  0.00    -0.015 A 
ATOM     21  C33 MK1 d          25.980  -5.146  -2.268  0.00  0.00     0.125 A 
ATOM     22  N5  MK1 d          26.333  -3.839  -2.670  0.00  0.00    -0.273 NA
ATOM     23  C34 MK1 d          27.167  -3.209  -1.721  0.00  0.00     0.116 A 
ATOM     24  C35 MK1 d          27.626  -3.753  -0.511  0.00  0.00     0.020 A 
ATOM     25  C36 MK1 d          27.230  -5.063  -0.181  0.00  0.00     0.012 A 
ENDBRANCH  19  20
ENDBRANCH   6  19
ENDBRANCH   2   3
ENDBRANCH   1   2
BRANCH   1  26
ATOM     26  O2  MK1 d          28.207 -14.383  -2.353  0.00  0.00    -0.394 OA
ATOM     27  H23 MK1 d          28.356 -15.146  -1.808  0.00  0.00     0.210 HD
ENDBRANCH   1  26
BRANCH   1  28
ATOM     28  C12 MK1 d          30.094 -13.364  -1.256  0.00  0.00     0.047 C 
BRANCH  28  29
ATOM     29  C13 MK1 d          30.380 -14.522  -0.278  0.00  0.00     0.084 C 
BRANCH  29  30
ATOM     30  C14 MK1 d          31.903 -14.603   0.004  0.00  0.00     0.052 C 
BRANCH  30  31
ATOM     31  C15 MK1 d          32.271 -15.711   0.975  0.00  0.00    -0.057 A 
ATOM     32  C16 MK1 d          31.959 -17.073   0.712  0.00  0.00     0.007 A 
ATOM     33  C17 MK1 d          32.294 -18.088   1.628  0.00  0.00     0.001 A 
ATOM     34  C18 MK1 d          32.953 -17.725   2.830  0.00  0.00     0.000 A 
ATOM     35  C19 MK1 d          33.269 -16.376   3.101  0.00  0.00     0.001 A 
ATOM     36  C20 MK1 d          32.929 -15.361   2.176  0.00  0.00     0.007 A 
ENDBRANCH  30  31
ENDBRANCH  29  30
BRANCH  29  37
ATOM     37  C21 MK1 d          29.630 -14.311   1.047  0.00  0.00     0.222 C 
ATOM     38  O3  MK1 d          29.568 -13.230   1.644  0.00  0.00    -0.273 OA
ATOM     39  N4  MK1 d          29.060 -15.420   1.520  0.00  0.00    -0.350 N 
ATOM     40  H34 MK1 d          28.892 -16.171   0.881  0.00  0.00     0.163 HD
BRANCH  39  41
ATOM     41  C22 MK1 d          28.676 -15.600   2.880  0.00  0.00     0.147 C 
ATOM     42  C23 MK1 d          28.985 -16.960   3.479  0.00  0.00     0.149 C 
ATOM     43  C24 MK1 d          28.011 -17.106   4.618  0.00  0.00     0.073 C 
ATOM     44  C25 MK1 d          26.780 -16.338   4.189  0.00  0.00    -0.047 A 
ATOM     45  C26 MK1 d          25.422 -16.375   4.614  0.00  0.00     0.008 A 
ATOM     46  C30 MK1 d          27.190 -15.431   3.137  0.00  0.00    -0.027 A 
ATOM     47  C27 MK1 d          24.497 -15.516   4.004  0.00  0.00     0.001 A 
ATOM     48  C28 MK1 d          24.865 -14.625   2.983  0.00  0.00     0.001 A 
ATOM     49  C29 MK1 d          26.205 -14.593   2.566  0.00  0.00     0.010 A 
BRANCH  42  50
ATOM     50  O4  MK1 d          28.800 -18.005   2.513  0.00  0.00    -0.393 OA
ATOM     51  H37 MK1 d          29.000 -18.843   2.913  0.00  0.00     0.210 HD
ENDBRANCH  42  50
ENDBRANCH  39  41
ENDBRANCH  29  37
ENDBRANCH  28  29
ENDBRANCH   1  28
TORSDOF 14
