REMARK  2 active torsions:
REMARK  status: ('A' for Active; 'I' for Inactive)
REMARK    1  A    between atoms: C4_4  and  N5_5 
REMARK    2  A    between atoms: C8_8  and  O9_9 
ROOT
ATOM      1  C1  MOL d           3.334  13.845  40.347  0.00  0.00     0.051 C 
ATOM      2  C2  MOL d           3.909  13.315  41.639  0.00  0.00    -0.027 A 
ATOM      3  C3  MOL d           4.369  12.004  41.731  0.00  0.00     0.038 A 
ATOM      4  C4  MOL d           4.896  11.523  42.928  0.00  0.00     0.026 A 
ATOM      5  C6  MOL d           4.967  12.352  44.048  0.00  0.00     0.031 A 
ATOM      6  C7  MOL d           4.504  13.658  43.954  0.00  0.00     0.039 A 
ATOM      7  C8  MOL d           3.979  14.137  42.757  0.00  0.00     0.071 A 
ENDROOT
BRANCH   4   8
ATOM      8  N5  MOL d           5.341  10.259  43.030  0.00  0.00    -0.399 N 
ATOM      9  H   MOL d           5.728   9.920  43.922  0.00  0.00     0.156 HD
ATOM     10  H   MOL d           5.295   9.630  42.216  0.00  0.00     0.156 HD
ENDBRANCH   4   8
BRANCH   7  11
ATOM     11  O9  MOL d           3.541  15.390  42.684  0.00  0.00    -0.360 OA
ATOM     12  H   MOL d           3.216  15.560  41.807  0.00  0.00     0.217 HD
ENDBRANCH   7  11
TORSDOF 2
