REMARK  12 active torsions:
REMARK  status: ('A' for Active; 'I' for Inactive)
REMARK    1  A    between atoms: C24_7  and  C22_8 
REMARK    2  A    between atoms: C33_11  and  O34_12 
REMARK    3  A    between atoms: C31_13  and  O32_14 
REMARK    4  A    between atoms: C20_15  and  C18_16 
REMARK       I    between atoms: C18_16  and  N17_18 
REMARK    5  A    between atoms: N17_18  and  C16_19 
REMARK    6  A    between atoms: C16_19  and  C15_20 
REMARK    7  A    between atoms: C14_21  and  C6_22 
REMARK    8  A    between atoms: C4_23  and  O5_24 
REMARK    9  A    between atoms: C2_25  and  O3_26 
REMARK   10  A    between atoms: C1_28  and  N10_29 
REMARK   11  A    between atoms: C35_35  and  N7_38 
REMARK   12  A    between atoms: N7_38  and  C36_39 
ROOT
ATOM      1  C15 MOL d          -2.647  18.127  13.934  0.00  0.00    -0.009 C 
ATOM      2  C14 MOL d          -3.455  18.964  14.533  0.00  0.00     0.005 C 
ENDROOT
BRANCH   1   3
ATOM      3  C16 MOL d          -2.962  16.664  13.743  0.00  0.00     0.150 C 
BRANCH   3   4
ATOM      4  N17 MOL d          -1.710  15.916  13.829  0.00  0.00    -0.353 N 
ATOM      5  C18 MOL d          -1.725  14.653  14.220  0.00  0.00     0.254 C 
ATOM      6  O19 MOL d          -2.788  14.034  14.389  0.00  0.00    -0.268 OA
ATOM      7  H9  MOL d          -0.845  16.358  13.593  0.00  0.00     0.163 HD
BRANCH   5   8
ATOM      8  C20 MOL d          -0.402  13.978  14.421  0.00  0.00     0.068 A 
ATOM      9  C21 MOL d          -0.433  12.765  15.137  0.00  0.00     0.032 A 
ATOM     10  C22 MOL d           0.740  12.088  15.414  0.00  0.00    -0.022 A 
ATOM     11  C23 MOL d           1.961  12.628  14.949  0.00  0.00     0.051 A 
ATOM     12  C33 MOL d           1.989  13.843  14.263  0.00  0.00     0.100 A 
ATOM     13  C31 MOL d           0.785  14.521  13.954  0.00  0.00     0.114 A 
BRANCH  10  14
ATOM     14  C24 MOL d           0.712  10.813  16.175  0.00  0.00    -0.026 A 
ATOM     15  C25 MOL d          -0.211  10.625  17.202  0.00  0.00     0.015 A 
ATOM     16  C26 MOL d          -0.234   9.470  17.932  0.00  0.00     0.043 A 
ATOM     17  C29 MOL d           0.636   8.442  17.600  0.00  0.00     0.116 A 
ATOM     18  F30 MOL d           0.632   7.275  18.298  0.00  0.00    -0.206 F 
ATOM     19  C28 MOL d           1.566   8.567  16.568  0.00  0.00     0.043 A 
ATOM     20  C27 MOL d           1.573   9.758  15.850  0.00  0.00     0.015 A 
ENDBRANCH  10  14
BRANCH  12  21
ATOM     21  O34 MOL d           3.159  14.360  13.801  0.00  0.00    -0.358 OA
ATOM     22  H7  MOL d           2.988  15.185  13.363  0.00  0.00     0.217 HD
ENDBRANCH  12  21
BRANCH  13  23
ATOM     23  O32 MOL d           0.913  15.651  13.242  0.00  0.00    -0.357 OA
ATOM     24  H8  MOL d           1.327  15.454  12.410  0.00  0.00     0.217 HD
ENDBRANCH  13  23
ENDBRANCH   5   8
ENDBRANCH   3   4
ENDBRANCH   1   3
BRANCH   2  25
ATOM     25  C6  MOL d          -3.110  20.434  14.706  0.00  0.00     0.178 C 
ATOM     26  C4  MOL d          -3.745  21.016  15.980  0.00  0.00     0.183 C 
ATOM     27  C2  MOL d          -5.128  21.378  15.430  0.00  0.00     0.199 C 
ATOM     28  C1  MOL d          -4.791  21.905  14.044  0.00  0.00     0.262 C 
ATOM     29  O13 MOL d          -3.632  21.210  13.616  0.00  0.00    -0.352 OA
BRANCH  26  30
ATOM     30  O5  MOL d          -3.057  22.129  16.471  0.00  0.00    -0.390 OA
ATOM     31  H16 MOL d          -3.490  22.447  17.255  0.00  0.00     0.210 HD
ENDBRANCH  26  30
BRANCH  27  32
ATOM     32  O3  MOL d          -5.891  22.275  16.212  0.00  0.00    -0.388 OA
ATOM     33  H18 MOL d          -5.420  23.095  16.302  0.00  0.00     0.210 HD
ENDBRANCH  27  32
BRANCH  28  34
ATOM     34  N10 MOL d          -5.836  21.722  13.061  0.00  0.00    -0.294 N 
ATOM     35  C9  MOL d          -6.350  20.476  12.641  0.00  0.00     0.214 A 
ATOM     36  N8  MOL d          -7.097  20.601  11.551  0.00  0.00    -0.236 NA
ATOM     37  C12 MOL d          -7.001  21.922  11.161  0.00  0.00     0.149 A 
ATOM     38  C11 MOL d          -6.213  22.634  12.097  0.00  0.00     0.167 A 
ATOM     39  C35 MOL d          -7.500  22.703  10.120  0.00  0.00     0.157 A 
ATOM     40  N40 MOL d          -5.918  23.944  12.038  0.00  0.00    -0.222 NA
ATOM     41  C39 MOL d          -6.396  24.594  10.980  0.00  0.00     0.237 A 
ATOM     42  N38 MOL d          -7.162  24.010  10.030  0.00  0.00    -0.222 NA
BRANCH  39  43
ATOM     43  N7  MOL d          -8.284  22.247   9.109  0.00  0.00    -0.373 N 
ATOM     44  H22 MOL d          -8.414  22.863   8.294  0.00  0.00     0.161 HD
BRANCH  43  45
ATOM     45  C36 MOL d          -8.960  20.947   9.088  0.00  0.00     0.117 C 
ATOM     46  C37 MOL d         -10.191  20.952   9.941  0.00  0.00     0.026 C 
ENDBRANCH  43  45
ENDBRANCH  39  43
ENDBRANCH  28  34
ENDBRANCH   2  25
TORSDOF 12
