REMARK  5 active torsions:
REMARK  status: ('A' for Active; 'I' for Inactive)
REMARK    1  A    between atoms: N9_9  and  C1'_10 
REMARK    2  A    between atoms: C2'_11  and  O2'_12 
REMARK    3  A    between atoms: C3'_13  and  O3'_14 
REMARK    4  A    between atoms: C4'_15  and  C5'_17 
REMARK    5  A    between atoms: C5'_17  and  O5'_18 
ROOT
ATOM      1  C1' PUR d           6.119  18.740  37.956  0.00  0.00     0.262 C 
ATOM      2  C2' PUR d           6.524  17.522  37.133  0.00  0.00     0.198 C 
ATOM      3  C3' PUR d           7.791  17.835  36.281  0.00  0.00     0.182 C 
ATOM      4  C4' PUR d           8.237  19.017  37.267  0.00  0.00     0.179 C 
ATOM      5  O4' PUR d           7.141  19.688  37.768  0.00  0.00    -0.353 OA
ENDROOT
BRANCH   1   6
ATOM      6  N9  PUR d           4.896  19.238  37.414  0.00  0.00    -0.294 N 
ATOM      7  C4  PUR d           3.815  19.669  38.114  0.00  0.00     0.164 A 
ATOM      8  N3  PUR d           3.598  19.837  39.445  0.00  0.00    -0.222 NA
ATOM      9  C5  PUR d           2.843  19.951  37.215  0.00  0.00     0.121 A 
ATOM     10  C2  PUR d           2.414  20.281  39.873  0.00  0.00     0.235 A 
ATOM     11  N1  PUR d           1.417  20.582  39.043  0.00  0.00    -0.252 NA
ATOM     12  C6  PUR d           1.572  20.433  37.671  0.00  0.00     0.153 A 
ATOM     13  N7  PUR d           3.333  19.699  35.988  0.00  0.00    -0.238 NA
ATOM     14  C8  PUR d           4.584  19.263  36.124  0.00  0.00     0.214 A 
ENDBRANCH   1   6
BRANCH   2  15
ATOM     15  O2' PUR d           6.725  16.400  37.996  0.00  0.00    -0.388 OA
ATOM     16  H6  PUR d           6.930  15.633  37.474  0.00  0.00     0.210 HD
ENDBRANCH   2  15
BRANCH   4  17
ATOM     17  C5' PUR d           9.207  20.029  36.595  0.00  0.00     0.198 C 
BRANCH  17  18
ATOM     18  O5' PUR d           8.690  20.575  35.359  0.00  0.00    -0.398 OA
ATOM     19  H12 PUR d           9.321  21.184  34.995  0.00  0.00     0.209 HD
ENDBRANCH  17  18
ENDBRANCH   4  17
BRANCH   3  20
ATOM     20  O3' PUR d           8.717  16.743  36.300  0.00  0.00    -0.390 OA
ATOM     21  H8  PUR d           8.772  16.391  37.181  0.00  0.00     0.210 HD
ENDBRANCH   3  20
TORSDOF 5
