REMARK  19 active torsions:
REMARK  status: ('A' for Active; 'I' for Inactive)
REMARK    1  A    between atoms: CA_2  and  N_1 
REMARK    2  A    between atoms: C_3  and  CA_2 
REMARK    3  A    between atoms: CA_2  and  CB_5 
REMARK       I    between atoms: N_10  and  C_3 
REMARK    4  A    between atoms: CB_5  and  CG_6 
REMARK    5  A    between atoms: CG_6  and  CD_7 
REMARK    6  A    between atoms: CD_7  and  CE_8 
REMARK    7  A    between atoms: CE_8  and  NZ_9 
REMARK    8  A    between atoms: CA_11  and  N_10 
REMARK    9  A    between atoms: C_12  and  CA_11 
REMARK   10  A    between atoms: CA_11  and  CB_14 
REMARK       I    between atoms: C_12  and  N_18 
REMARK   11  A    between atoms: CB_14  and  CG_15 
REMARK   12  A    between atoms: CG_15  and  SD_16 
REMARK   13  A    between atoms: N_18  and  CA_19 
REMARK   14  A    between atoms: CA_19  and  C_20 
REMARK   15  A    between atoms: CA_19  and  CB_22 
REMARK   16  A    between atoms: CB_22  and  CG_23 
REMARK   17  A    between atoms: CG_23  and  CD_24 
REMARK   18  A    between atoms: CD_24  and  CE_25 
REMARK   19  A    between atoms: CE_25  and  NZ_26 
ROOT
ATOM      1  CA  MOL d           3.923  20.292  16.083  0.00  0.00     0.177 C 
ENDROOT
BRANCH   1   2
ATOM      2  C   MOL d           2.628  20.138  15.315  0.00  0.00     0.241 C 
ATOM      3  O   MOL d           2.597  20.397  14.111  0.00  0.00    -0.271 OA
ATOM      4  N   MOL d           1.554  19.794  16.047  0.00  0.00    -0.345 N 
ATOM      5  H25 MOL d           1.653  19.603  17.024  0.00  0.00     0.163 HD
BRANCH   4   6
ATOM      6  CA  MOL d           0.244  19.700  15.412  0.00  0.00     0.185 C 
BRANCH   6   7
ATOM      7  C   MOL d          -0.789  20.549  16.170  0.00  0.00     0.196 C 
ATOM      8  OXT MOL d          -0.549  20.931  17.319  0.00  0.00    -0.646 OA
ATOM      9  O   MOL d          -1.778  20.922  15.478  0.00  0.00    -0.646 OA
ENDBRANCH   6   7
BRANCH   6  10
ATOM     10  CB  MOL d          -0.306  18.271  15.328  0.00  0.00     0.036 C 
BRANCH  10  11
ATOM     11  CG  MOL d          -1.358  18.355  14.187  0.00  0.00     0.004 C 
BRANCH  11  12
ATOM     12  CD  MOL d          -2.119  17.069  14.040  0.00  0.00     0.027 C 
BRANCH  12  13
ATOM     13  CE  MOL d          -3.341  17.278  13.145  0.00  0.00     0.229 C 
BRANCH  13  14
ATOM     14  NZ  MOL d          -2.864  16.982  11.755  0.00  0.00    -0.079 N 
ATOM     15  H35 MOL d          -3.626  17.101  11.106  0.00  0.00     0.274 HD
ATOM     16  H36 MOL d          -2.529  16.032  11.710  0.00  0.00     0.274 HD
ATOM     17  H37 MOL d          -2.116  17.614  11.515  0.00  0.00     0.274 HD
ENDBRANCH  13  14
ENDBRANCH  12  13
ENDBRANCH  11  12
ENDBRANCH  10  11
ENDBRANCH   6  10
ENDBRANCH   4   6
ENDBRANCH   1   2
BRANCH   1  18
ATOM     18  CB  MOL d           4.240  21.812  16.117  0.00  0.00     0.045 C 
BRANCH  18  19
ATOM     19  CG  MOL d           5.451  22.078  17.035  0.00  0.00     0.076 C 
BRANCH  19  20
ATOM     20  SD  MOL d           5.008  21.718  18.750  0.00  0.00    -0.173 SA
ATOM     21  CE  MOL d           5.597  23.186  19.580  0.00  0.00     0.089 C 
ENDBRANCH  19  20
ENDBRANCH  18  19
ENDBRANCH   1  18
BRANCH   1  22
ATOM     22  N   MOL d           5.054  19.650  15.389  0.00  0.00    -0.346 N 
ATOM     23  C   MOL d           5.203  18.333  15.339  0.00  0.00     0.248 C 
ATOM     24  O   MOL d           4.463  17.530  15.927  0.00  0.00    -0.271 OA
ATOM     25  H16 MOL d           5.734  20.229  14.939  0.00  0.00     0.163 HD
BRANCH  23  26
ATOM     26  CA  MOL d           6.431  17.837  14.595  0.00  0.00     0.274 C 
BRANCH  26  27
ATOM     27  CB  MOL d           6.209  17.712  13.077  0.00  0.00     0.042 C 
BRANCH  27  28
ATOM     28  CG  MOL d           5.215  16.657  12.624  0.00  0.00     0.004 C 
BRANCH  28  29
ATOM     29  CD  MOL d           5.197  16.526  11.086  0.00  0.00     0.027 C 
BRANCH  29  30
ATOM     30  CE  MOL d           6.414  15.833  10.491  0.00  0.00     0.229 C 
BRANCH  30  31
ATOM     31  NZ  MOL d           6.632  14.433  10.963  0.00  0.00    -0.079 N 
ATOM     32  H13 MOL d           7.454  14.053  10.521  0.00  0.00     0.274 HD
ATOM     33  H14 MOL d           5.831  13.869  10.724  0.00  0.00     0.274 HD
ATOM     34  H15 MOL d           6.757  14.431  11.963  0.00  0.00     0.274 HD
ENDBRANCH  30  31
ENDBRANCH  29  30
ENDBRANCH  28  29
ENDBRANCH  27  28
ENDBRANCH  26  27
BRANCH  26  35
ATOM     35  N   MOL d           6.947  16.565  15.209  0.00  0.00    -0.067 N 
ATOM     36  H1  MOL d           7.760  16.253  14.702  0.00  0.00     0.275 HD
ATOM     37  H2  MOL d           6.231  15.856  15.165  0.00  0.00     0.275 HD
ATOM     38  H3  MOL d           7.195  16.733  16.171  0.00  0.00     0.275 HD
ENDBRANCH  26  35
ENDBRANCH  23  26
ENDBRANCH   1  22
TORSDOF 19
