REMARK  5 active torsions:
REMARK  status: ('A' for Active; 'I' for Inactive)
REMARK    1  A    between atoms: C4_17  and  N9_16 
REMARK    2  A    between atoms: N9_16  and  C8_24 
REMARK    3  A    between atoms: C1_21  and  C18_22 
REMARK    4  A    between atoms: C8_24  and  C23_23 
REMARK    5  A    between atoms: C23_23  and  O24_25 
ROOT
ATOM      1  C2  DFZ d           6.069  -2.285  19.491  0.00  0.00     0.237 A 
ATOM      2  C10 DFZ d           2.093  -4.281  19.729  0.00  0.00     0.056 A 
ATOM      3  C11 DFZ d           0.762  -4.643  19.974  0.00  0.00    -0.009 A 
ATOM      4  C12 DFZ d           0.253  -5.909  19.701  0.00  0.00     0.014 A 
ATOM      5  C13 DFZ d          -1.081  -6.213  19.965  0.00  0.00     0.001 A 
ATOM      6  C14 DFZ d          -1.930  -5.253  20.509  0.00  0.00     0.000 A 
ATOM      7  C15 DFZ d          -1.434  -3.984  20.786  0.00  0.00     0.001 A 
ATOM      8  C16 DFZ d          -0.098  -3.688  20.517  0.00  0.00     0.014 A 
ATOM      9  N1  DFZ d           4.852  -2.156  19.981  0.00  0.00    -0.223 NA
ATOM     10  C6  DFZ d           3.926  -3.099  19.770  0.00  0.00     0.144 A 
ATOM     11  C5  DFZ d           4.235  -4.230  19.021  0.00  0.00     0.069 A 
ATOM     12  C4  DFZ d           5.539  -4.334  18.517  0.00  0.00     0.140 A 
ATOM     13  N3  DFZ d           6.412  -3.344  18.782  0.00  0.00    -0.224 NA
ATOM     14  N90 DFZ d           2.661  -3.161  20.165  0.00  0.00    -0.339 N 
ATOM     15  C1  DFZ d           3.059  -4.983  18.995  0.00  0.00     0.020 A 
ATOM     16  H12 DFZ d           2.186  -2.443  20.730  0.00  0.00     0.167 HD
ENDROOT
BRANCH  15  17
ATOM     17  C18 DFZ d           2.910  -6.219  18.360  0.00  0.00    -0.023 A 
ATOM     18  C19 DFZ d           2.182  -6.343  17.179  0.00  0.00     0.012 A 
ATOM     19  C20 DFZ d           2.055  -7.592  16.567  0.00  0.00     0.001 A 
ATOM     20  C21 DFZ d           2.656  -8.720  17.126  0.00  0.00     0.000 A 
ATOM     21  C22 DFZ d           3.388  -8.596  18.304  0.00  0.00     0.001 A 
ATOM     22  C17 DFZ d           3.510  -7.350  18.916  0.00  0.00     0.012 A 
ENDBRANCH  15  17
BRANCH  12  23
ATOM     23  N9  DFZ d           5.972  -5.362  17.782  0.00  0.00    -0.372 N 
ATOM     24  H11 DFZ d           5.318  -6.122  17.545  0.00  0.00     0.161 HD
BRANCH  23  25
ATOM     25  C8  DFZ d           7.364  -5.435  17.302  0.00  0.00     0.147 C 
BRANCH  25  26
ATOM     26  C23 DFZ d           7.592  -4.399  16.192  0.00  0.00     0.183 C 
BRANCH  26  27
ATOM     27  O24 DFZ d           8.406  -3.325  16.689  0.00  0.00    -0.399 OA
ATOM     28  H18 DFZ d           7.967  -2.909  17.422  0.00  0.00     0.209 HD
ENDBRANCH  26  27
ENDBRANCH  25  26
ENDBRANCH  23  25
ENDBRANCH  12  23
TORSDOF 5
