REMARK  3 active torsions:
REMARK  status: ('A' for Active; 'I' for Inactive)
REMARK    1  A    between atoms: C7_2  and  C6_4 
REMARK    2  A    between atoms: C13_10  and  O13_12 
REMARK    3  A    between atoms: C3_20  and  O31_21 
ROOT
ATOM      1  C6  GA3 d           2.069  22.148  34.022  0.00  0.00     0.105 C 
ATOM      2  C5  GA3 d           3.341  22.629  33.299  0.00  0.00     0.061 C 
ATOM      3  C8  GA3 d           1.096  23.355  33.987  0.00  0.00    -0.013 C 
ATOM      4  C15 GA3 d          -0.035  23.329  32.944  0.00  0.00     0.047 C 
ATOM      5  C16 GA3 d          -0.863  24.479  33.434  0.00  0.00    -0.054 C 
ATOM      6  C17 GA3 d          -1.766  25.144  32.737  0.00  0.00     0.017 C 
ATOM      7  C13 GA3 d          -0.566  24.759  34.898  0.00  0.00     0.081 C 
ATOM      8  C14 GA3 d           0.262  23.512  35.262  0.00  0.00     0.053 C 
ATOM      9  C12 GA3 d           0.306  26.019  35.063  0.00  0.00     0.043 C 
ATOM     10  C11 GA3 d           1.784  25.707  34.818  0.00  0.00     0.012 C 
ATOM     11  C9  GA3 d           1.991  24.604  33.773  0.00  0.00     0.035 C 
ATOM     12  C10 GA3 d           3.427  24.104  33.726  0.00  0.00     0.098 C 
ATOM     13  O92 GA3 d           3.999  23.928  35.100  0.00  0.00    -0.304 OA
ATOM     14  C1  GA3 d           4.474  24.837  32.936  0.00  0.00     0.011 C 
ATOM     15  C2  GA3 d           5.660  24.232  32.846  0.00  0.00     0.005 C 
ATOM     16  C3  GA3 d           5.795  22.734  32.967  0.00  0.00     0.159 C 
ATOM     17  C4  GA3 d           4.688  22.082  33.835  0.00  0.00     0.081 C 
ATOM     18  C18 GA3 d           4.801  20.556  33.916  0.00  0.00     0.029 C 
ATOM     19  C19 GA3 d           4.736  22.787  35.173  0.00  0.00     0.271 C 
ATOM     20  O91 GA3 d           5.332  22.570  36.184  0.00  0.00    -0.264 OA
ENDROOT
BRANCH   1  21
ATOM     21  C7  GA3 d           1.451  20.874  33.471  0.00  0.00     0.178 C 
ATOM     22  O71 GA3 d           0.884  20.106  34.281  0.00  0.00    -0.648 OA
ATOM     23  O72 GA3 d           1.512  20.632  32.244  0.00  0.00    -0.648 OA
ENDBRANCH   1  21
BRANCH  16  24
ATOM     24  O31 GA3 d           5.693  22.221  31.649  0.00  0.00    -0.390 OA
ATOM     25  H   GA3 d           5.772  21.275  31.672  0.00  0.00     0.210 HD
ENDBRANCH  16  24
BRANCH   7  26
ATOM     26  O13 GA3 d          -1.782  24.919  35.656  0.00  0.00    -0.385 OA
ATOM     27  H   GA3 d          -2.343  24.166  35.515  0.00  0.00     0.211 HD
ENDBRANCH   7  26
TORSDOF 3
