REMARK  2 active torsions:
REMARK  status: ('A' for Active; 'I' for Inactive)
REMARK    1  A    between atoms: C5_2  and  C51_3 
REMARK    2  A    between atoms: C4_4  and  C41_5 
ROOT
ATOM      1  N1  I18 d         -13.750  -9.508   2.633  0.00  0.00    -0.368 N 
ATOM      2  C5  I18 d         -12.671  -9.726   1.667  0.00  0.00     0.145 A 
ATOM      3  C4  I18 d         -11.703 -10.657   2.454  0.00  0.00     0.170 A 
ATOM      4  N3  I18 d         -12.385 -10.909   3.723  0.00  0.00    -0.265 NA
ATOM      5  C2  I18 d         -13.482 -10.254   3.762  0.00  0.00     0.092 A 
ATOM      6  C21 I18 d         -14.460 -10.240   4.903  0.00  0.00     0.090 C 
ATOM      7  H1  I18 d         -14.570  -8.901   2.493  0.00  0.00     0.161 HD
ENDROOT
BRANCH   2   8
ATOM      8  C51 I18 d         -13.223 -10.346   0.406  0.00  0.00    -0.033 A 
ATOM      9  C56 I18 d         -14.475 -10.965   0.435  0.00  0.00     0.011 A 
ATOM     10  C55 I18 d         -15.014 -11.513  -0.724  0.00  0.00     0.024 A 
ATOM     11  C54 I18 d         -14.291 -11.452  -1.916  0.00  0.00     0.034 A 
ATOM     12 CL5  I18 d         -14.946 -12.201  -3.355  0.00  0.00    -0.084 Cl
ATOM     13  C53 I18 d         -13.044 -10.819  -1.961  0.00  0.00     0.024 A 
ATOM     14  C52 I18 d         -12.508 -10.273  -0.795  0.00  0.00     0.011 A 
ENDBRANCH   2   8
BRANCH   3  15
ATOM     15  C41 I18 d         -11.380 -11.948   1.748  0.00  0.00    -0.031 A 
ATOM     16  C42 I18 d         -10.183 -12.066   1.040  0.00  0.00     0.011 A 
ATOM     17  C43 I18 d          -9.873 -13.249   0.382  0.00  0.00     0.024 A 
ATOM     18  C44 I18 d         -10.772 -14.314   0.422  0.00  0.00     0.034 A 
ATOM     19 CL4  I18 d         -10.430 -15.761  -0.498  0.00  0.00    -0.084 Cl
ATOM     20  C45 I18 d         -11.952 -14.222   1.163  0.00  0.00     0.024 A 
ATOM     21  C46 I18 d         -12.256 -13.035   1.823  0.00  0.00     0.011 A 
ENDBRANCH   3  15
TORSDOF 2
