REMARK  7 active torsions:
REMARK  status: ('A' for Active; 'I' for Inactive)
REMARK    1  A    between atoms: C1_1  and  S1_12 
REMARK    2  A    between atoms: C2_2  and  O2_3 
REMARK    3  A    between atoms: C3_4  and  O3_5 
REMARK    4  A    between atoms: C4_6  and  O4_7 
REMARK    5  A    between atoms: C5_8  and  C6_10 
REMARK    6  A    between atoms: C6_10  and  O6_11 
REMARK    7  A    between atoms: S1_12  and  C1'_13 
ROOT
ATOM      1  C1  IPT d         -14.676 -27.523 -26.400  0.00  0.00     0.215 C 
ATOM      2  C2  IPT d         -13.384 -27.328 -25.606  0.00  0.00     0.188 C 
ATOM      3  C3  IPT d         -12.194 -27.110 -26.539  0.00  0.00     0.181 C 
ATOM      4  C4  IPT d         -12.143 -28.146 -27.665  0.00  0.00     0.180 C 
ATOM      5  C5  IPT d         -13.524 -28.224 -28.336  0.00  0.00     0.178 C 
ATOM      6  O5  IPT d         -14.497 -28.572 -27.351  0.00  0.00    -0.363 OA
ENDROOT
BRANCH   1   7
ATOM      7  S1  IPT d         -15.982 -28.001 -25.331  0.00  0.00    -0.131 SA
BRANCH   7   8
ATOM      8  C1' IPT d         -17.429 -27.404 -26.167  0.00  0.00     0.041 C 
ATOM      9  C2' IPT d         -17.757 -28.247 -27.401  0.00  0.00     0.021 C 
ATOM     10  C3' IPT d         -18.601 -27.420 -25.190  0.00  0.00     0.021 C 
ENDBRANCH   7   8
ENDBRANCH   1   7
BRANCH   2  11
ATOM     11  O2  IPT d         -13.512 -26.196 -24.745  0.00  0.00    -0.389 OA
ATOM     12  H3  IPT d         -12.707 -26.080 -24.255  0.00  0.00     0.210 HD
ENDBRANCH   2  11
BRANCH   3  13
ATOM     13  O3  IPT d         -10.995 -27.163 -25.770  0.00  0.00    -0.390 OA
ATOM     14  H5  IPT d         -10.926 -28.013 -25.351  0.00  0.00     0.210 HD
ENDBRANCH   3  13
BRANCH   5  15
ATOM     15  C6  IPT d         -13.638 -29.213 -29.491  0.00  0.00     0.198 C 
BRANCH  15  16
ATOM     16  O6  IPT d         -12.429 -29.208 -30.264  0.00  0.00    -0.398 OA
ATOM     17  H11 IPT d         -11.699 -29.457 -29.710  0.00  0.00     0.209 HD
ENDBRANCH  15  16
ENDBRANCH   5  15
BRANCH   4  18
ATOM     18  O4  IPT d         -11.745 -29.421 -27.128  0.00  0.00    -0.390 OA
ATOM     19  H7  IPT d         -10.886 -29.342 -26.731  0.00  0.00     0.210 HD
ENDBRANCH   4  18
TORSDOF 7
