REMARK  19 active torsions:
REMARK  status: ('A' for Active; 'I' for Inactive)
REMARK    1  A    between atoms: O1_11  and  C1_1 
REMARK    2  A    between atoms: C2_2  and  O2_7 
REMARK    3  A    between atoms: C3_3  and  O3_8 
REMARK    4  A    between atoms: C4_4  and  O4_12 
REMARK    5  A    between atoms: C5_5  and  C6_6 
REMARK    6  A    between atoms: C6_6  and  O6_10 
REMARK    7  A    between atoms: C40_16  and  O1_11 
REMARK    8  A    between atoms: C10_13  and  O10_19 
REMARK    9  A    between atoms: C20_14  and  O20_20 
REMARK   10  A    between atoms: C30_15  and  O30_21 
REMARK   11  A    between atoms: C50_17  and  C60_18 
REMARK   12  A    between atoms: C60_18  and  O60_23 
REMARK   13  A    between atoms: O10_19  and  C11_24 
REMARK   14  A    between atoms: C11_24  and  C21_25 
REMARK   15  A    between atoms: C21_25  and  C31_26 
REMARK   16  A    between atoms: C31_26  and  C41_27 
REMARK   17  A    between atoms: C41_27  and  C51_28 
REMARK   18  A    between atoms: C51_28  and  C61_29 
REMARK   19  A    between atoms: C61_29  and  C12_30 
ROOT
ATOM      1  C10 MA4 d          31.059  27.662   2.718  0.00  0.00     0.291 C 
ATOM      2  C20 MA4 d          31.877  27.980   1.481  0.00  0.00     0.204 C 
ATOM      3  C30 MA4 d          32.768  26.776   1.212  0.00  0.00     0.183 C 
ATOM      4  C40 MA4 d          33.630  26.497   2.435  0.00  0.00     0.187 C 
ATOM      5  C50 MA4 d          32.812  26.317   3.694  0.00  0.00     0.180 C 
ATOM      6  O50 MA4 d          31.970  27.490   3.828  0.00  0.00    -0.348 OA
ENDROOT
BRANCH   4   7
ATOM      7  O1  MA4 d          34.325  25.254   2.203  0.00  0.00    -0.348 OA
BRANCH   7   8
ATOM      8  C1  MA4 d          35.750  25.297   2.242  0.00  0.00     0.292 C 
ATOM      9  C2  MA4 d          36.295  24.649   0.994  0.00  0.00     0.204 C 
ATOM     10  C3  MA4 d          36.017  23.156   0.936  0.00  0.00     0.183 C 
ATOM     11  C4  MA4 d          36.377  22.451   2.224  0.00  0.00     0.180 C 
ATOM     12  C5  MA4 d          35.836  23.192   3.442  0.00  0.00     0.179 C 
ATOM     13  O5  MA4 d          36.191  24.582   3.394  0.00  0.00    -0.348 OA
BRANCH   9  14
ATOM     14  O2  MA4 d          35.718  25.306  -0.105  0.00  0.00    -0.388 OA
ATOM     15  H8  MA4 d          34.778  25.168  -0.097  0.00  0.00     0.210 HD
ENDBRANCH   9  14
BRANCH  10  16
ATOM     16  O3  MA4 d          36.739  22.618  -0.180  0.00  0.00    -0.390 OA
ATOM     17  H9  MA4 d          36.490  23.082  -0.971  0.00  0.00     0.210 HD
ENDBRANCH  10  16
BRANCH  11  18
ATOM     18  O4  MA4 d          35.845  21.148   2.250  0.00  0.00    -0.390 OA
ATOM     19  H11 MA4 d          36.166  20.661   1.500  0.00  0.00     0.210 HD
ENDBRANCH  11  18
BRANCH  12  20
ATOM     20  C6  MA4 d          36.330  22.591   4.757  0.00  0.00     0.198 C 
BRANCH  20  21
ATOM     21  O6  MA4 d          37.764  22.589   4.750  0.00  0.00    -0.398 OA
ATOM     22  H10 MA4 d          38.080  23.480   4.662  0.00  0.00     0.209 HD
ENDBRANCH  20  21
ENDBRANCH  12  20
ENDBRANCH   7   8
ENDBRANCH   4   7
BRANCH   3  23
ATOM     23  O30 MA4 d          33.589  27.098   0.120  0.00  0.00    -0.390 OA
ATOM     24  H20 MA4 d          34.171  26.370  -0.063  0.00  0.00     0.210 HD
ENDBRANCH   3  23
BRANCH   5  25
ATOM     25  C60 MA4 d          33.651  26.260   4.931  0.00  0.00     0.198 C 
BRANCH  25  26
ATOM     26  O60 MA4 d          34.473  27.439   4.956  0.00  0.00    -0.398 OA
ATOM     27  H21 MA4 d          33.918  28.210   4.968  0.00  0.00     0.209 HD
ENDBRANCH  25  26
ENDBRANCH   5  25
BRANCH   2  28
ATOM     28  O20 MA4 d          31.036  28.253   0.372  0.00  0.00    -0.388 OA
ATOM     29  H19 MA4 d          31.570  28.435  -0.392  0.00  0.00     0.210 HD
ENDBRANCH   2  28
BRANCH   1  30
ATOM     30  O10 MA4 d          30.285  28.787   3.029  0.00  0.00    -0.359 OA
BRANCH  30  31
ATOM     31  C11 MA4 d          29.293  28.490   4.056  0.00  0.00     0.171 C 
BRANCH  31  32
ATOM     32  C21 MA4 d          28.002  28.221   3.369  0.00  0.00     0.026 C 
BRANCH  32  33
ATOM     33  C31 MA4 d          26.923  27.794   4.363  0.00  0.00     0.002 C 
BRANCH  33  34
ATOM     34  C41 MA4 d          25.498  28.155   3.854  0.00  0.00     0.000 C 
BRANCH  34  35
ATOM     35  C51 MA4 d          24.347  27.451   4.519  0.00  0.00     0.000 C 
BRANCH  35  36
ATOM     36  C61 MA4 d          24.427  27.376   6.036  0.00  0.00     0.004 C 
BRANCH  36  37
ATOM     37  C12 MA4 d          23.118  27.076   6.728  0.00  0.00    -0.014 C 
ATOM     38  C22 MA4 d          23.070  28.039   7.940  0.00  0.00     0.004 C 
ATOM     39  C32 MA4 d          22.457  27.526   9.237  0.00  0.00     0.000 C 
ATOM     40  C42 MA4 d          21.614  26.301   9.004  0.00  0.00     0.000 C 
ATOM     41  C52 MA4 d          22.518  25.238   8.439  0.00  0.00     0.000 C 
ATOM     42  C62 MA4 d          23.119  25.594   7.114  0.00  0.00     0.004 C 
ENDBRANCH  36  37
ENDBRANCH  35  36
ENDBRANCH  34  35
ENDBRANCH  33  34
ENDBRANCH  32  33
ENDBRANCH  31  32
ENDBRANCH  30  31
ENDBRANCH   1  30
TORSDOF 19
