REMARK  0 active torsions:
REMARK  status: ('A' for Active; 'I' for Inactive)
ROOT
ATOM      1 BR01 ES3 d           2.105   7.397   1.026  0.00  0.00    -0.030 Br
ATOM      2  C02 ES3 d           3.459   8.724   0.991  0.00  0.00     0.098 A 
ATOM      3  C03 ES3 d           3.561   9.817   1.755  0.00  0.00     0.155 A 
ATOM      4  N04 ES3 d           4.674  10.414   1.346  0.00  0.00    -0.253 NA
ATOM      5  C05 ES3 d           5.216   9.717   0.368  0.00  0.00     0.207 A 
ATOM      6  N06 ES3 d           4.468   8.637   0.149  0.00  0.00    -0.344 N 
ATOM      7  H3  ES3 d           4.643   7.889  -0.537  0.00  0.00     0.167 HD
ENDROOT
TORSDOF 0
