REMARK  3 active torsions:
REMARK  status: ('A' for Active; 'I' for Inactive)
REMARK    1  A    between atoms: C1_1  and  N1_2 
REMARK    2  A    between atoms: C2_3  and  C1_1 
REMARK    3  A    between atoms: C6_8  and  N2_4 
ROOT
ATOM      1  C2  913 d          -1.723  15.136  17.045  0.00  0.00    -0.031 A 
ATOM      2  C3  913 d          -0.957  15.562  15.993  0.00  0.00     0.009 A 
ATOM      3  C4  913 d          -0.896  14.847  14.823  0.00  0.00     0.003 A 
ATOM      4  C5  913 d          -1.562  13.656  14.628  0.00  0.00     0.031 A 
ATOM      5  C6  913 d          -2.344  13.201  15.638  0.00  0.00     0.058 A 
ATOM      6  C11 913 d          -2.412  13.949  16.798  0.00  0.00     0.040 A 
ENDROOT
BRANCH   1   7
ATOM      7  C1  913 d          -1.817  16.061  18.259  0.00  0.00     0.268 C 
BRANCH   7   8
ATOM      8  N1  913 d          -3.094  15.926  19.013  0.00  0.00    -0.075 N 
ATOM      9  H3  913 d          -3.090  16.560  19.796  0.00  0.00     0.274 HD
ATOM     10  H4  913 d          -3.188  14.980  19.347  0.00  0.00     0.274 HD
ATOM     11  H5  913 d          -3.868  16.147  18.406  0.00  0.00     0.274 HD
ENDBRANCH   7   8
ENDBRANCH   1   7
BRANCH   5  12
ATOM     12  N2  913 d          -3.061  11.955  15.336  0.00  0.00    -0.245 N 
ATOM     13  C7  913 d          -2.606  10.908  14.557  0.00  0.00     0.120 A 
ATOM     14  C8  913 d          -3.560   9.927  14.645  0.00  0.00     0.040 A 
ATOM     15  C9  913 d          -4.549  10.502  15.497  0.00  0.00     0.140 A 
ATOM     16  N8  913 d          -4.293  11.762  15.863  0.00  0.00    -0.180 NA
ENDBRANCH   5  12
TORSDOF 3
