REMARK  7 active torsions:
REMARK  status: ('A' for Active; 'I' for Inactive)
REMARK    1  A    between atoms: CB2_2  and  SG_1 
REMARK    2  A    between atoms: CA1_3  and  CB2_2 
REMARK    3  A    between atoms: CA1_3  and  CB1_4 
REMARK    4  A    between atoms: N_13  and  CA1_3 
REMARK    5  A    between atoms: CB1_4  and  CG_5 
REMARK       I    between atoms: C1_11  and  N_13 
REMARK    6  A    between atoms: C1_11  and  CA2_14 
REMARK    7  A    between atoms: CA2_14  and  C2_15 
ROOT
ATOM      1  CA1 RRT d          36.233  42.366  -4.128  0.00  0.00     0.097 C 
ENDROOT
BRANCH   1   2
ATOM      2  CB2 RRT d          35.154  42.344  -5.199  0.00  0.00     0.096 C 
BRANCH   2   3
ATOM      3  SG  RRT d          35.965  42.687  -6.751  0.00  0.00    -0.180 SA
ATOM      4  H1  RRT d          35.283  42.682  -7.493  0.00  0.00     0.101 HD
ENDBRANCH   2   3
ENDBRANCH   1   2
BRANCH   1   5
ATOM      5  CB1 RRT d          35.551  42.663  -2.807  0.00  0.00     0.064 C 
BRANCH   5   6
ATOM      6  CG  RRT d          36.511  42.877  -1.682  0.00  0.00    -0.056 A 
ATOM      7  CD1 RRT d          37.278  44.046  -1.700  0.00  0.00     0.007 A 
ATOM      8  CE1 RRT d          38.167  44.367  -0.683  0.00  0.00     0.001 A 
ATOM      9  CZ  RRT d          38.279  43.444   0.357  0.00  0.00     0.000 A 
ATOM     10  CE2 RRT d          37.524  42.267   0.396  0.00  0.00     0.001 A 
ATOM     11  CD2 RRT d          36.602  41.987  -0.612  0.00  0.00     0.007 A 
ENDBRANCH   5   6
ENDBRANCH   1   5
BRANCH   1  12
ATOM     12  N   RRT d          36.928  41.107  -3.911  0.00  0.00    -0.355 N 
ATOM     13  C1  RRT d          38.227  40.969  -3.658  0.00  0.00     0.228 C 
ATOM     14  O1  RRT d          39.017  41.941  -3.671  0.00  0.00    -0.273 OA
ATOM     15  H12 RRT d          36.381  40.271  -3.956  0.00  0.00     0.162 HD
BRANCH  13  16
ATOM     16  CA2 RRT d          38.718  39.492  -3.420  0.00  0.00     0.215 C 
BRANCH  16  17
ATOM     17  C2  RRT d          38.684  38.603  -4.689  0.00  0.00     0.181 C 
ATOM     18  O2  RRT d          37.645  38.536  -5.473  0.00  0.00    -0.648 OA
ATOM     19  O3  RRT d          39.728  37.951  -4.920  0.00  0.00    -0.648 OA
ENDBRANCH  16  17
ENDBRANCH  13  16
ENDBRANCH   1  12
TORSDOF 7
