4ye3_ligand

Created by X-TOOL on Sun Nov 13 14:29:27 2016
 81 84  0  0  0  0  0  0  0  0999 V2000
   -9.3750  -14.8420   -8.2680  C 0  0  0  1  0  3
   -8.8310  -15.9310   -7.6360  C 0  0  0  2  0  3
   -8.3740  -15.8280   -6.3320  C 0  0  0  2  0  3
   -8.5040  -14.5990   -5.6510  C 0  0  0  1  0  3
   -9.0800  -13.5160   -6.2980  C 0  0  0  2  0  3
   -9.5340  -13.6230   -7.6120  C 0  0  0  2  0  3
   -8.1420  -14.5310   -4.0200  S 0  0  0  1  0  4
   -7.0100  -15.3970   -3.8170  O 0  0  0  1  0  1
   -7.9830  -13.1590   -3.6840  O 0  0  0  1  0  1
   -9.3740  -15.1130   -3.2640  N 0  0  0  1  0  3
  -10.6020  -14.2630   -3.3230  C 0  0  0  3  0  4
  -11.5250  -14.2850   -2.1110  C 0  0  0  2  0  4
  -10.8590  -13.5230   -0.9320  C 0  0  0  4  0  4
  -12.8730  -13.6680   -2.4280  C 0  0  0  4  0  4
   -9.3920  -16.5330   -2.9030  C 0  0  0  3  0  4
   -9.2670  -16.8690   -1.4300  C 0  0  0  2  0  4
   -9.5920  -18.2790   -1.2490  O 0  0  0  2  0  2
   -7.8360  -16.6140   -0.9170  C 0  0  0  2  0  4
   -7.7110  -16.7240    0.5880  N 0  0  0  2  0  3
   -7.7640  -15.5650    1.3660  C 0  0  0  1  0  3
   -8.4560  -14.4220    1.1210  O 0  0  0  1  0  1
   -7.6120  -16.1240    2.7030  O 0  0  0  1  0  2
   -7.4130  -15.1780    3.7500  C 0  0  0  2  0  4
   -8.4760  -15.3760    4.8180  C 0  0  0  3  0  4
   -8.1010  -16.5590    5.4770  O 0  0  0  1  0  2
   -6.6840  -16.6050    5.5290  C 0  0  0  2  0  4
   -6.2390  -17.8620    5.0070  O 0  0  0  1  0  2
   -5.4410  -17.7190    3.7930  C 0  0  0  3  0  4
   -5.0510  -16.2560    3.8070  C 0  0  0  2  0  4
   -6.1680  -15.5440    4.5610  C 0  0  0  2  0  4
   -6.8070  -17.6360   -1.3920  C 0  0  0  3  0  4
   -4.8810  -18.2130    0.1150  C 0  0  0  2  0  3
   -3.6430  -17.8960    0.6870  C 0  0  0  2  0  3
   -2.9380  -16.7290    0.3550  C 0  0  0  2  0  3
   -3.5100  -15.8490   -0.5690  C 0  0  0  2  0  3
   -4.7540  -16.1130   -1.1210  C 0  0  0  2  0  3
   -5.4280  -17.3040   -0.8100  C 0  0  0  1  0  3
   -9.7870  -14.9990   -9.5710  O 0  0  0  1  0  2
  -10.4840  -13.9170  -10.1650  C 0  0  0  4  0  4
   -3.9120  -16.1370    4.6020  O 0  0  0  1  0  2
   -2.8690  -15.7380    3.7710  C 0  0  0  4  0  4
   -8.7582  -16.8774   -8.1595  H 0  0  0  1  0  1
   -7.9218  -16.6818   -5.8406  H 0  0  0  1  0  1
   -9.1788  -12.5721   -5.7743  H 0  0  0  1  0  1
   -9.9986  -12.7798   -8.1103  H 0  0  0  1  0  1
  -11.1902  -14.5918   -4.1924  H 0  0  0  1  0  1
  -10.2772  -13.2227   -3.4722  H 0  0  0  1  0  1
  -11.6832  -15.3317   -1.8122  H 0  0  0  1  0  1
  -11.5282  -13.5411   -0.0591  H 0  0  0  1  0  1
  -10.6713  -12.4805   -1.2285  H 0  0  0  1  0  1
   -9.9061  -14.0080   -0.6736  H 0  0  0  1  0  1
  -13.3381  -14.2124   -3.2631  H 0  0  0  1  0  1
  -12.7366  -12.6132   -2.7086  H 0  0  0  1  0  1
  -13.5224  -13.7308   -1.5424  H 0  0  0  1  0  1
   -8.5558  -17.0194   -3.4266  H 0  0  0  1  0  1
  -10.3432  -16.9544   -3.2601  H 0  0  0  1  0  1
   -9.9715  -16.2494   -0.8558  H 0  0  0  1  0  1
   -8.9885  -18.8095   -1.7559  H 0  0  0  1  0  1
   -7.5398  -15.6071   -1.2463  H 0  0  0  1  0  1
   -7.5917  -17.6176    1.0208  H 0  0  0  1  0  1
   -7.3824  -14.1519    3.3548  H 0  0  0  1  0  1
   -9.4704  -15.4850    4.3606  H 0  0  0  1  0  1
   -8.4855  -14.5278    5.5183  H 0  0  0  1  0  1
   -6.3163  -16.4405    6.5526  H 0  0  0  1  0  1
   -6.0353  -17.9604    2.8994  H 0  0  0  1  0  1
   -4.5513  -18.3649    3.8272  H 0  0  0  1  0  1
   -4.8979  -15.8527    2.7951  H 0  0  0  1  0  1
   -5.7720  -14.6542    5.0722  H 0  0  0  1  0  1
   -6.7531  -17.6146   -2.4905  H 0  0  0  1  0  1
   -7.1104  -18.6396   -1.0592  H 0  0  0  1  0  1
   -5.4008  -19.1278    0.3758  H 0  0  0  1  0  1
   -3.2134  -18.5769    1.4128  H 0  0  0  1  0  1
   -1.9745  -16.5151    0.8034  H 0  0  0  1  0  1
   -2.9752  -14.9511   -0.8567  H 0  0  0  1  0  1
   -5.2081  -15.3964   -1.7958  H 0  0  0  1  0  1
  -10.7514  -14.1771  -11.1998  H 0  0  0  1  0  1
   -9.8423  -13.0236  -10.1657  H 0  0  0  1  0  1
  -11.3991  -13.7108   -9.5906  H 0  0  0  1  0  1
   -1.9481  -15.6324    4.3633  H 0  0  0  1  0  1
   -3.1189  -14.7727    3.3066  H 0  0  0  1  0  1
   -2.7156  -16.4936    2.9864  H 0  0  0  1  0  1
  2  1  4  0  0  1
  6  1  4  0  0  1
  1 38  1  0  0  2
  3  2  4  0  0  1
  4  3  4  0  0  1
  4  5  4  0  0  1
  7  4  1  0  0  2
  5  6  4  0  0  1
  7  8  2  0  0  2
  7  9  2  0  0  2
 10  7  1  0  0  2
 10 11  1  0  0  2
 15 10  1  0  0  2
 11 12  1  0  0  2
 12 13  1  0  0  2
 12 14  1  0  0  2
 16 15  1  0  0  2
 16 17  1  0  0  2
 18 16  1  0  0  2
 18 19  1  0  0  2
 31 18  1  0  0  2
 19 20  1  0  0  2
 20 21  2  0  0  2
 20 22  1  0  0  2
 22 23  1  0  0  2
 23 24  1  0  0  1
 23 30  1  0  0  1
 24 25  1  0  0  1
 26 25  1  0  0  1
 26 27  1  0  0  1
 30 26  1  0  0  1
 28 27  1  0  0  1
 29 28  1  0  0  1
 30 29  1  0  0  1
 29 40  1  0  0  2
 37 31  1  0  0  2
 32 33  4  0  0  1
 32 37  4  0  0  1
 33 34  4  0  0  1
 34 35  4  0  0  1
 35 36  4  0  0  1
 36 37  4  0  0  1
 38 39  1  0  0  2
 40 41  1  0  0  2
  2 42  1  0  0  2
  3 43  1  0  0  2
  5 44  1  0  0  2
  6 45  1  0  0  2
 11 46  1  0  0  2
 11 47  1  0  0  2
 12 48  1  0  0  2
 13 49  1  0  0  2
 13 50  1  0  0  2
 13 51  1  0  0  2
 14 52  1  0  0  2
 14 53  1  0  0  2
 14 54  1  0  0  2
 15 55  1  0  0  2
 15 56  1  0  0  2
 16 57  1  0  0  2
 17 58  1  0  0  2
 18 59  1  0  0  2
 19 60  1  0  0  2
 23 61  1  0  0  2
 24 62  1  0  0  2
 24 63  1  0  0  2
 26 64  1  0  0  2
 28 65  1  0  0  2
 28 66  1  0  0  2
 29 67  1  0  0  2
 30 68  1  0  0  2
 31 69  1  0  0  2
 31 70  1  0  0  2
 32 71  1  0  0  2
 33 72  1  0  0  2
 34 73  1  0  0  2
 35 74  1  0  0  2
 36 75  1  0  0  2
 39 76  1  0  0  2
 39 77  1  0  0  2
 39 78  1  0  0  2
 41 79  1  0  0  2
 41 80  1  0  0  2
 41 81  1  0  0  2
M  END
> <MOLECULAR_FORMULA>
C29H40N2O9S

> <MOLECULAR_WEIGHT>
592.4

> <NUM_HB_ATOMS>
10 

> <NUM_ROTOR>
13 

> <XLOGP2>
2.82 

$$$$
