REMARK  8 active torsions:
REMARK  status: ('A' for Active; 'I' for Inactive)
REMARK    1  A    between atoms: O1_3  and  C1_2 
REMARK    2  A    between atoms: CAA_14  and  O1_3 
REMARK    3  A    between atoms: C2_4  and  O2_5 
REMARK    4  A    between atoms: C3_6  and  O3_7 
REMARK    5  A    between atoms: C4_8  and  O4_9 
REMARK    6  A    between atoms: C5_10  and  C6_12 
REMARK    7  A    between atoms: C6_12  and  O6_13 
REMARK    8  A    between atoms: CAD_17  and  CAG_20 
ROOT
ATOM      1  CAG CWK d          -8.559   8.181  11.779  0.00  0.00    -0.026 A 
ATOM      2  CAH CWK d          -9.164   7.020  12.243  0.00  0.00     0.014 A 
ATOM      3  CAI CWK d         -10.513   7.012  12.615  0.00  0.00     0.023 A 
ATOM      4  CAJ CWK d         -11.289   8.145  12.543  0.00  0.00     0.044 A 
ATOM      5  CAK CWK d         -10.721   9.311  12.098  0.00  0.00     0.023 A 
ATOM      6  CAL CWK d          -9.382   9.310  11.731  0.00  0.00     0.014 A 
ATOM      7  CAN CWK d         -12.681   8.100  12.942  0.00  0.00     0.099 C 
ATOM      8  NAO CWK d         -13.786   8.053  13.261  0.00  0.00    -0.191 NA
ENDROOT
BRANCH   1   9
ATOM      9  CAD CWK d          -7.188   8.238  11.383  0.00  0.00    -0.024 A 
ATOM     10  CAC CWK d          -6.321   7.137  11.439  0.00  0.00     0.015 A 
ATOM     11  CAB CWK d          -4.980   7.247  11.029  0.00  0.00     0.039 A 
ATOM     12  CAA CWK d          -4.540   8.478  10.545  0.00  0.00     0.093 A 
ATOM     13  CAF CWK d          -5.391   9.572  10.555  0.00  0.00     0.068 A 
ATOM     14 CL   CWK d          -4.897  11.066   9.972  0.00  0.00    -0.081 Cl
ATOM     15  CAE CWK d          -6.718   9.447  10.914  0.00  0.00     0.039 A 
BRANCH  12  16
ATOM     16  O1  CWK d          -3.285   8.761  10.117  0.00  0.00    -0.316 OA
BRANCH  16  17
ATOM     17  C1  CWK d          -2.284   7.742   9.991  0.00  0.00     0.298 C 
ATOM     18  C2  CWK d          -1.059   8.436   9.492  0.00  0.00     0.205 C 
ATOM     19  C3  CWK d          -1.352   9.046   8.083  0.00  0.00     0.183 C 
ATOM     20  C4  CWK d          -1.831   7.964   7.142  0.00  0.00     0.180 C 
ATOM     21  C5  CWK d          -3.075   7.338   7.726  0.00  0.00     0.179 C 
ATOM     22  O5  CWK d          -2.784   6.767   9.022  0.00  0.00    -0.348 OA
BRANCH  18  23
ATOM     23  O2  CWK d          -0.058   7.440   9.406  0.00  0.00    -0.388 OA
ATOM     24  H3  CWK d           0.749   7.830   9.091  0.00  0.00     0.210 HD
ENDBRANCH  18  23
BRANCH  19  25
ATOM     25  O3  CWK d          -0.102   9.577   7.571  0.00  0.00    -0.390 OA
ATOM     26  H5  CWK d           0.223  10.246   8.162  0.00  0.00     0.210 HD
ENDBRANCH  19  25
BRANCH  20  27
ATOM     27  O4  CWK d          -2.181   8.586   5.899  0.00  0.00    -0.390 OA
ATOM     28  H7  CWK d          -2.486   7.924   5.290  0.00  0.00     0.210 HD
ENDBRANCH  20  27
BRANCH  21  29
ATOM     29  C6  CWK d          -3.618   6.159   6.900  0.00  0.00     0.198 C 
BRANCH  29  30
ATOM     30  O6  CWK d          -2.644   5.130   6.771  0.00  0.00    -0.398 OA
ATOM     31  H11 CWK d          -3.005   4.417   6.258  0.00  0.00     0.209 HD
ENDBRANCH  29  30
ENDBRANCH  21  29
ENDBRANCH  16  17
ENDBRANCH  12  16
ENDBRANCH   1   9
TORSDOF 8
