REMARK  3 active torsions:
REMARK  status: ('A' for Active; 'I' for Inactive)
REMARK    1  A    between atoms: C2_2  and  O2_3 
REMARK    2  A    between atoms: C4_5  and  O4_6 
REMARK    3  A    between atoms: C14_17  and  O14_18 
ROOT
ATOM      1  C1  GEN d          -0.892   0.498  -2.546  0.00  0.00     0.074 A 
ATOM      2  C2  GEN d           0.028  -0.075  -1.678  0.00  0.00     0.071 A 
ATOM      3  C3  GEN d           1.122  -0.765  -2.184  0.00  0.00     0.074 A 
ATOM      4  C4  GEN d           1.300  -0.873  -3.558  0.00  0.00     0.085 A 
ATOM      5  C5  GEN d           0.376  -0.297  -4.424  0.00  0.00     0.082 A 
ATOM      6  C6  GEN d           0.549  -0.402  -5.794  0.00  0.00     0.200 A 
ATOM      7  O6  GEN d           1.517  -0.997  -6.265  0.00  0.00    -0.286 OA
ATOM      8  C7  GEN d          -0.377   0.190  -6.630  0.00  0.00     0.048 A 
ATOM      9  C8  GEN d          -1.462   0.858  -6.081  0.00  0.00     0.159 A 
ATOM     10  O9  GEN d          -1.654   0.973  -4.733  0.00  0.00    -0.321 OA
ATOM     11  C10 GEN d          -0.723   0.392  -3.920  0.00  0.00     0.094 A 
ATOM     12  C11 GEN d          -0.228   0.109  -8.010  0.00  0.00    -0.020 A 
ATOM     13  C12 GEN d          -0.109   1.269  -8.767  0.00  0.00     0.015 A 
ATOM     14  C13 GEN d           0.038   1.187 -10.145  0.00  0.00     0.037 A 
ATOM     15  C14 GEN d           0.071  -0.056 -10.768  0.00  0.00     0.065 A 
ATOM     16  C15 GEN d          -0.045  -1.216 -10.010  0.00  0.00     0.037 A 
ATOM     17  C16 GEN d          -0.197  -1.133  -8.632  0.00  0.00     0.015 A 
ENDROOT
BRANCH   4  18
ATOM     18  O4  GEN d           2.377  -1.549  -4.048  0.00  0.00    -0.360 OA
ATOM     19  H4  GEN d           2.355  -1.532  -4.998  0.00  0.00     0.217 HD
ENDBRANCH   4  18
BRANCH  15  20
ATOM     20  O14 GEN d           0.218  -0.140 -12.122  0.00  0.00    -0.361 OA
ATOM     21  H8  GEN d           0.221  -1.053 -12.383  0.00  0.00     0.217 HD
ENDBRANCH  15  20
BRANCH   2  22
ATOM     22  O2  GEN d          -0.152   0.034  -0.334  0.00  0.00    -0.361 OA
ATOM     23  H2  GEN d           0.558  -0.408   0.116  0.00  0.00     0.217 HD
ENDBRANCH   2  22
TORSDOF 3
