REMARK  11 active torsions:
REMARK  status: ('A' for Active; 'I' for Inactive)
REMARK    1  A    between atoms: C2_13  and  N2_14 
REMARK    2  A    between atoms: N9_17  and  C1'_18 
REMARK    3  A    between atoms: C2'_20  and  O2'_21 
REMARK    4  A    between atoms: C3'_22  and  O3'_23 
REMARK    5  A    between atoms: C4'_24  and  C5'_25 
REMARK    6  A    between atoms: C5'_25  and  O5'_26 
REMARK    7  A    between atoms: O5'_26  and  PA_27 
REMARK    8  A    between atoms: PA_27  and  O3A_30 
REMARK    9  A    between atoms: O3A_30  and  PB_31 
REMARK   10  A    between atoms: PB_31  and  O3B_34 
REMARK   11  A    between atoms: O3B_34  and  PG_35 
ROOT
ATOM      1  C1' MOL d          -5.865  -5.134  14.881  0.00  0.00     0.279 C 
ATOM      2  O4' MOL d          -5.863  -4.827  13.407  0.00  0.00    -0.353 OA
ATOM      3  C2' MOL d          -6.973  -6.122  15.074  0.00  0.00     0.199 C 
ATOM      4  C3' MOL d          -7.642  -6.263  13.686  0.00  0.00     0.182 C 
ATOM      5  C4' MOL d          -6.557  -5.944  12.739  0.00  0.00     0.180 C 
ENDROOT
BRANCH   1   6
ATOM      6  N9  MOL d          -5.898  -3.880  15.548  0.00  0.00    -0.133 N 
ATOM      7  C8  MOL d          -6.945  -3.057  15.902  0.00  0.00     0.709 A 
ATOM      8  NAE MOL d          -8.238  -3.148  15.712  0.00  0.00    -0.211 N 
ATOM      9  N7  MOL d          -6.529  -1.991  16.582  0.00  0.00    -0.055 NA
ATOM     10  CAA MOL d          -8.742  -2.910  14.407  0.00  0.00     0.167 C 
ATOM     11  CAB MOL d          -9.158  -2.895  16.861  0.00  0.00     0.167 C 
ATOM     12  CAC MOL d         -10.133  -3.417  14.297  0.00  0.00     0.188 C 
ATOM     13  OAF MOL d         -11.018  -2.897  15.263  0.00  0.00    -0.388 OA
ATOM     14  CAD MOL d         -10.617  -3.266  16.587  0.00  0.00     0.188 C 
ATOM     15  C5  MOL d          -5.190  -2.114  16.665  0.00  0.00     0.189 A 
ATOM     16  C6  MOL d          -4.213  -1.362  17.293  0.00  0.00     0.293 A 
ATOM     17  C4  MOL d          -4.806  -3.299  16.049  0.00  0.00     0.177 A 
ATOM     18  O6  MOL d          -4.436  -0.252  17.850  0.00  0.00    -0.265 OA
ATOM     19  N1  MOL d          -2.955  -1.831  17.208  0.00  0.00    -0.154 N 
ATOM     20  C2  MOL d          -2.616  -2.962  16.603  0.00  0.00     0.680 A 
ATOM     21  H9  MOL d          -2.226  -1.291  17.629  0.00  0.00     0.187 HD
ATOM     22  N3  MOL d          -3.515  -3.718  16.008  0.00  0.00    -0.173 N 
ATOM     23  H12 MOL d          -3.250  -4.591  15.531  0.00  0.00     0.186 HD
BRANCH  20  24
ATOM     24  N2  MOL d          -1.308  -3.289  16.596  0.00  0.00    -0.234 N 
ATOM     25  H10 MOL d          -0.997  -4.158  16.138  0.00  0.00     0.174 HD
ATOM     26  H11 MOL d          -0.620  -2.670  17.048  0.00  0.00     0.174 HD
ENDBRANCH  20  24
ENDBRANCH   1   6
BRANCH   3  27
ATOM     27  O2' MOL d          -6.419  -7.345  15.585  0.00  0.00    -0.388 OA
ATOM     28  H15 MOL d          -7.115  -7.979  15.711  0.00  0.00     0.210 HD
ENDBRANCH   3  27
BRANCH   5  29
ATOM     29  C5' MOL d          -7.054  -5.407  11.388  0.00  0.00     0.216 C 
BRANCH  29  30
ATOM     30  O5' MOL d          -7.864  -4.297  11.577  0.00  0.00    -0.287 OA
BRANCH  30  31
ATOM     31  PA  MOL d          -7.497  -2.923  10.900  0.00  0.00     0.417 P 
ATOM     32  O2A MOL d          -8.260  -1.847  11.610  0.00  0.00    -0.624 OA
ATOM     33  O1A MOL d          -6.025  -2.741  10.809  0.00  0.00    -0.624 OA
BRANCH  31  34
ATOM     34  O3A MOL d          -8.113  -3.084   9.421  0.00  0.00    -0.180 OA
BRANCH  34  35
ATOM     35  PB  MOL d          -7.555  -2.355   8.118  0.00  0.00     0.428 P 
ATOM     36  O2B MOL d          -7.488  -0.889   8.364  0.00  0.00    -0.624 OA
ATOM     37  O1B MOL d          -6.295  -2.979   7.666  0.00  0.00    -0.624 OA
BRANCH  35  38
ATOM     38  O3B MOL d          -8.686  -2.692   7.083  0.00  0.00    -0.173 OA
BRANCH  38  39
ATOM     39  PG  MOL d         -10.051  -1.866   6.528  0.00  0.00     0.431 P 
ATOM     40  O2G MOL d         -10.419  -0.986   7.776  0.00  0.00    -0.616 OA
ATOM     41  O3G MOL d          -9.568  -0.981   5.315  0.00  0.00    -0.616 OA
ATOM     42  O1G MOL d         -10.948  -2.991   6.181  0.00  0.00    -0.616 OA
ENDBRANCH  38  39
ENDBRANCH  35  38
ENDBRANCH  34  35
ENDBRANCH  31  34
ENDBRANCH  30  31
ENDBRANCH  29  30
ENDBRANCH   5  29
BRANCH   4  43
ATOM     43  O3' MOL d          -8.159  -7.551  13.466  0.00  0.00    -0.390 OA
ATOM     44  H17 MOL d          -7.455  -8.187  13.518  0.00  0.00     0.210 HD
ENDBRANCH   4  43
TORSDOF 11
