2eg8_ligand

Created by X-TOOL on Fri Sep 26 17:34:35 2014
 14 14  0  0  0  0  0  0  0  0999 V2000
   25.7090   39.1610   72.5410  C 0  0  0  1  0  3
   27.8520   39.9840   72.0690  C 0  0  0  1  0  3
   27.3000   41.3380   71.9450  C 0  0  0  1  0  3
   24.9640   38.1850   72.7980  O 0  0  0  1  0  1
   25.1360   40.3720   72.4330  N 0  0  0  2  0  3
   27.0290   38.9700   72.3740  N 0  0  0  2  0  3
   29.0720   39.8380   71.9110  O 0  0  0  1  0  1
   28.0770   42.3880   71.6310  F 0  0  0  1  0  1
   25.8480   41.4600   72.1500  C 0  0  0  1  0  3
   25.2220   42.7910   72.0010  C 0  5  0  1  0  3
   25.9010   43.7520   72.3850  O 0  0  0  1  0  1
   24.0950   42.8860   71.4440  O 0  0  0  1  0  1
   24.1490   40.4576   72.5688  H 0  0  0  1  0  1
   27.4063   38.0500   72.4797  H 0  0  0  1  0  1
  1  4  2  0  0  2
  1  5  1  0  0  1
  6  1  1  0  0  1
  2  3  1  0  0  1
  2  6  1  0  0  1
  2  7  2  0  0  2
  3  8  1  0  0  2
  3  9  2  0  0  1
  5  9  1  0  0  1
  9 10  1  0  0  2
 10 11  2  0  0  2
 10 12  2  0  0  2
  5 13  1  0  0  2
  6 14  1  0  0  2
M  END
> <MOLECULAR_FORMULA>
C5H2N2O4F

> <MOLECULAR_WEIGHT>
173.1

> <NUM_HB_ATOMS>
6  

> <NUM_ROTOR>
0  

> <XLOGP2>
-1.17

$$$$
