REMARK  17 active torsions:
REMARK  status: ('A' for Active; 'I' for Inactive)
REMARK    1  A    between atoms: C23_23  and  C01_1 
REMARK    2  A    between atoms: C13_13  and  C07_7 
REMARK    3  A    between atoms: O14_14  and  C13_13 
REMARK    4  A    between atoms: C15_15  and  O14_14 
REMARK    5  A    between atoms: C16_16  and  C15_15 
REMARK    6  A    between atoms: C15_15  and  C26_26 
REMARK    7  A    between atoms: C17_17  and  C16_16 
REMARK    8  A    between atoms: C16_16  and  O25_25 
REMARK    9  A    between atoms: C18_18  and  C17_17 
REMARK   10  A    between atoms: C17_17  and  O24_24 
REMARK   11  A    between atoms: C18_18  and  C19_19 
REMARK   12  A    between atoms: O22_22  and  C18_18 
REMARK       I    between atoms: C19_19  and  N21_21 
REMARK   13  A    between atoms: N21_21  and  C39_39 
REMARK   14  A    between atoms: O22_22  and  C23_23 
REMARK       I    between atoms: C26_26  and  N28_28 
REMARK   15  A    between atoms: N28_28  and  C29_29 
REMARK   16  A    between atoms: C35_35  and  O36_36 
REMARK   17  A    between atoms: C45_45  and  O46_46 
ROOT
ATOM      1  C16 BE3 d          13.856  22.860   4.968  0.00  0.00     0.188 C 
ENDROOT
BRANCH   1   2
ATOM      2  C15 BE3 d          14.923  22.579   6.004  0.00  0.00     0.244 C 
BRANCH   2   3
ATOM      3  O14 BE3 d          14.597  23.095   7.400  0.00  0.00    -0.369 OA
BRANCH   3   4
ATOM      4  C13 BE3 d          15.702  23.324   8.322  0.00  0.00     0.207 C 
BRANCH   4   5
ATOM      5  C07 BE3 d          16.397  22.060   8.766  0.00  0.00    -0.032 A 
ATOM      6  C08 BE3 d          15.675  20.927   9.379  0.00  0.00     0.051 A 
ATOM      7  C09 BE3 d          16.436  19.704   9.774  0.00  0.00     0.117 A 
ATOM      8  C10 BE3 d          17.915  19.644   9.547  0.00  0.00     0.042 A 
ATOM      9  F49 BE3 d          15.735  18.574  10.374  0.00  0.00    -0.206 F 
ATOM     10  C11 BE3 d          18.599  20.815   8.925  0.00  0.00     0.004 A 
ATOM     11  C12 BE3 d          17.841  21.981   8.550  0.00  0.00     0.009 A 
ENDBRANCH   4   5
ENDBRANCH   3   4
ENDBRANCH   2   3
BRANCH   2  12
ATOM     12  C26 BE3 d          15.066  21.101   5.861  0.00  0.00     0.250 C 
ATOM     13  O27 BE3 d          14.082  20.375   6.131  0.00  0.00    -0.271 OA
ATOM     14  N28 BE3 d          16.270  20.609   5.459  0.00  0.00    -0.348 N 
ATOM     15  H20 BE3 d          17.005  21.258   5.262  0.00  0.00     0.163 HD
BRANCH  14  16
ATOM     16  C29 BE3 d          16.543  19.197   5.301  0.00  0.00     0.147 C 
ATOM     17  C30 BE3 d          16.498  18.813   3.862  0.00  0.00    -0.027 A 
ATOM     18  C31 BE3 d          17.477  17.755   3.602  0.00  0.00    -0.047 A 
ATOM     19  C32 BE3 d          15.652  19.333   2.775  0.00  0.00     0.010 A 
ATOM     20  C37 BE3 d          17.647  17.184   2.259  0.00  0.00     0.008 A 
ATOM     21  C38 BE3 d          18.179  17.422   4.858  0.00  0.00     0.073 C 
ATOM     22  C34 BE3 d          16.804  17.704   1.173  0.00  0.00     0.001 A 
ATOM     23  C33 BE3 d          15.812  18.762   1.401  0.00  0.00     0.001 A 
ATOM     24  C35 BE3 d          17.972  18.729   5.682  0.00  0.00     0.149 C 
BRANCH  24  25
ATOM     25  O36 BE3 d          18.888  19.788   5.342  0.00  0.00    -0.393 OA
ATOM     26  H26 BE3 d          19.773  19.524   5.567  0.00  0.00     0.210 HD
ENDBRANCH  24  25
ENDBRANCH  14  16
ENDBRANCH   2  12
ENDBRANCH   1   2
BRANCH   1  27
ATOM     27  C17 BE3 d          13.506  24.287   4.980  0.00  0.00     0.188 C 
BRANCH  27  28
ATOM     28  C18 BE3 d          12.099  24.479   4.282  0.00  0.00     0.244 C 
BRANCH  28  29
ATOM     29  C19 BE3 d          10.919  24.462   5.240  0.00  0.00     0.250 C 
ATOM     30  O20 BE3 d          10.674  23.451   5.932  0.00  0.00    -0.271 OA
ATOM     31  N21 BE3 d          10.121  25.569   5.319  0.00  0.00    -0.348 N 
ATOM     32  H15 BE3 d          10.353  26.354   4.744  0.00  0.00     0.163 HD
BRANCH  31  33
ATOM     33  C39 BE3 d           8.963  25.681   6.180  0.00  0.00     0.147 C 
ATOM     34  C40 BE3 d           9.265  26.422   7.480  0.00  0.00    -0.027 A 
ATOM     35  C41 BE3 d           8.116  27.238   7.844  0.00  0.00    -0.047 A 
ATOM     36  C42 BE3 d          10.469  26.411   8.324  0.00  0.00     0.010 A 
ATOM     37  C47 BE3 d           8.130  28.076   9.068  0.00  0.00     0.008 A 
ATOM     38  C48 BE3 d           7.052  27.046   6.807  0.00  0.00     0.073 C 
ATOM     39  C44 BE3 d           9.332  28.065   9.910  0.00  0.00     0.001 A 
ATOM     40  C43 BE3 d          10.504  27.247   9.563  0.00  0.00     0.001 A 
ATOM     41  C45 BE3 d           7.846  26.580   5.577  0.00  0.00     0.149 C 
BRANCH  41  42
ATOM     42  O46 BE3 d           8.493  27.667   4.869  0.00  0.00    -0.393 OA
ATOM     43  H35 BE3 d           7.832  28.234   4.489  0.00  0.00     0.210 HD
ENDBRANCH  41  42
ENDBRANCH  31  33
ENDBRANCH  28  29
BRANCH  28  44
ATOM     44  O22 BE3 d          11.869  23.489   3.180  0.00  0.00    -0.369 OA
BRANCH  44  45
ATOM     45  C23 BE3 d          11.165  23.935   1.979  0.00  0.00     0.207 C 
BRANCH  45  46
ATOM     46  C01 BE3 d           9.641  24.037   2.164  0.00  0.00    -0.032 A 
ATOM     47  C02 BE3 d           8.998  25.293   1.734  0.00  0.00     0.009 A 
ATOM     48  C03 BE3 d           7.568  25.524   1.859  0.00  0.00     0.004 A 
ATOM     49  C04 BE3 d           6.700  24.488   2.433  0.00  0.00     0.042 A 
ATOM     50  C05 BE3 d           7.305  23.210   2.879  0.00  0.00     0.117 A 
ATOM     51  C06 BE3 d           8.746  22.989   2.748  0.00  0.00     0.051 A 
ATOM     52  F50 BE3 d           6.458  22.166   3.455  0.00  0.00    -0.206 F 
ENDBRANCH  45  46
ENDBRANCH  44  45
ENDBRANCH  28  44
ENDBRANCH  27  28
BRANCH  27  53
ATOM     53  O24 BE3 d          14.578  25.044   4.362  0.00  0.00    -0.390 OA
ATOM     54  H18 BE3 d          14.674  24.773   3.456  0.00  0.00     0.210 HD
ENDBRANCH  27  53
ENDBRANCH   1  27
BRANCH   1  55
ATOM     55  O25 BE3 d          14.314  22.535   3.590  0.00  0.00    -0.390 OA
ATOM     56  H19 BE3 d          13.613  22.714   2.974  0.00  0.00     0.210 HD
ENDBRANCH   1  55
TORSDOF 17
