REMARK  16 active torsions:
REMARK  status: ('A' for Active; 'I' for Inactive)
REMARK    1  A    between atoms: C1_1  and  C2_4 
REMARK    2  A    between atoms: C2_4  and  C3_5 
REMARK    3  A    between atoms: C3_5  and  C4_6 
REMARK    4  A    between atoms: C4_6  and  C5_7 
REMARK    5  A    between atoms: C5_7  and  C6_8 
REMARK    6  A    between atoms: C6_8  and  C7_9 
REMARK    7  A    between atoms: C7_9  and  C8_10 
REMARK    8  A    between atoms: C8_10  and  C9_11 
REMARK    9  A    between atoms: C9_11  and  C10_12 
REMARK   10  A    between atoms: C10_12  and  C11_13 
REMARK   11  A    between atoms: C11_13  and  C12_14 
REMARK   12  A    between atoms: C12_14  and  C13_15 
REMARK   13  A    between atoms: C13_15  and  C14_16 
REMARK   14  A    between atoms: C14_16  and  C15_17 
REMARK   15  A    between atoms: C15_17  and  C16_18 
REMARK   16  A    between atoms: C16_18  and  C17_19 
ROOT
ATOM      1  C8  STE d          -4.137   9.169  19.332  0.00  0.00     0.000 C 
ENDROOT
BRANCH   1   2
ATOM      2  C7  STE d          -3.344   7.886  19.375  0.00  0.00     0.000 C 
BRANCH   2   3
ATOM      3  C6  STE d          -4.072   6.810  20.170  0.00  0.00     0.000 C 
BRANCH   3   4
ATOM      4  C5  STE d          -3.072   5.952  20.937  0.00  0.00     0.000 C 
BRANCH   4   5
ATOM      5  C4  STE d          -2.037   5.319  20.022  0.00  0.00     0.001 C 
BRANCH   5   6
ATOM      6  C3  STE d          -0.899   4.678  20.812  0.00  0.00     0.010 C 
BRANCH   6   7
ATOM      7  C2  STE d          -0.434   3.374  20.169  0.00  0.00     0.113 C 
BRANCH   7   8
ATOM      8  C1  STE d          -0.793   2.225  21.074  0.00  0.00     0.172 C 
ATOM      9  O1  STE d          -1.994   1.861  21.115  0.00  0.00    -0.648 OA
ATOM     10  O2  STE d           0.108   1.700  21.764  0.00  0.00    -0.648 OA
ENDBRANCH   7   8
ENDBRANCH   6   7
ENDBRANCH   5   6
ENDBRANCH   4   5
ENDBRANCH   3   4
ENDBRANCH   2   3
ENDBRANCH   1   2
BRANCH   1  11
ATOM     11  C9  STE d          -3.197  10.298  18.943  0.00  0.00     0.000 C 
BRANCH  11  12
ATOM     12  C10 STE d          -4.017  11.537  18.611  0.00  0.00     0.000 C 
BRANCH  12  13
ATOM     13  C11 STE d          -3.096  12.723  18.815  0.00  0.00     0.000 C 
BRANCH  13  14
ATOM     14  C12 STE d          -3.846  13.977  18.428  0.00  0.00     0.000 C 
BRANCH  14  15
ATOM     15  C13 STE d          -2.848  15.082  18.238  0.00  0.00     0.000 C 
BRANCH  15  16
ATOM     16  C14 STE d          -3.533  16.433  18.132  0.00  0.00     0.000 C 
BRANCH  16  17
ATOM     17  C15 STE d          -3.778  16.823  16.675  0.00  0.00     0.000 C 
BRANCH  17  18
ATOM     18  C16 STE d          -4.505  18.152  16.676  0.00  0.00    -0.000 C 
BRANCH  18  19
ATOM     19  C17 STE d          -4.658  18.733  15.294  0.00  0.00    -0.005 C 
ATOM     20  C18 STE d          -4.803  17.668  14.228  0.00  0.00     0.005 C 
ENDBRANCH  18  19
ENDBRANCH  17  18
ENDBRANCH  16  17
ENDBRANCH  15  16
ENDBRANCH  14  15
ENDBRANCH  13  14
ENDBRANCH  12  13
ENDBRANCH  11  12
ENDBRANCH   1  11
TORSDOF 16
