REMARK  2 active torsions:
REMARK  status: ('A' for Active; 'I' for Inactive)
REMARK    1  A    between atoms: N_1  and  CA_2 
REMARK    2  A    between atoms: CA_2  and  C_3 
ROOT
ATOM      1  CA  ALA d         -24.087  17.420  13.548  0.00  0.00     0.279 C 
ATOM      2  CB  ALA d         -23.852  18.040  14.917  0.00  0.00     0.051 C 
ENDROOT
BRANCH   1   3
ATOM      3  N   ALA d         -23.706  16.011  13.548  0.00  0.00    -0.066 N 
ATOM      4  H1  ALA d         -24.219  15.524  14.266  0.00  0.00     0.275 HD
ATOM      5  H2  ALA d         -22.718  15.930  13.728  0.00  0.00     0.275 HD
ATOM      6  H3  ALA d         -23.919  15.605  12.650  0.00  0.00     0.275 HD
ENDBRANCH   1   3
BRANCH   1   7
ATOM      7  C   ALA d         -23.322  18.162  12.472  0.00  0.00     0.204 C 
ATOM      8  O   ALA d         -23.484  19.379  12.305  0.00  0.00    -0.646 OA
ATOM      9  OXT ALA d         -22.538  17.530  11.748  0.00  0.00    -0.646 OA
ENDBRANCH   1   7
TORSDOF 2
