REMARK  14 active torsions:
REMARK  status: ('A' for Active; 'I' for Inactive)
REMARK    1  A    between atoms: C2_2  and  N1_1 
REMARK    2  A    between atoms: S8_8  and  C5_5 
REMARK    3  A    between atoms: N11_11  and  S8_8 
REMARK    4  A    between atoms: N11_11  and  C12_12 
REMARK    5  A    between atoms: C16_16  and  N11_11 
REMARK    6  A    between atoms: C12_12  and  C13_13 
REMARK    7  A    between atoms: C17_17  and  C16_16 
REMARK    8  A    between atoms: C17_17  and  O18_18 
REMARK    9  A    between atoms: C19_19  and  C17_17 
REMARK   10  A    between atoms: C19_19  and  N20_20 
REMARK   11  A    between atoms: C32_32  and  C19_19 
REMARK       I    between atoms: N20_20  and  C21_21 
REMARK   12  A    between atoms: C21_21  and  O23_23 
REMARK   13  A    between atoms: O23_23  and  C24_24 
REMARK   14  A    between atoms: C38_38  and  C32_32 
ROOT
ATOM      1  C17 MOL d          17.827  42.742  -8.795  0.00  0.00     0.155 C 
ENDROOT
BRANCH   1   2
ATOM      2  C16 MOL d          18.798  43.889  -9.034  0.00  0.00     0.141 C 
BRANCH   2   3
ATOM      3  N11 MOL d          20.057  43.568  -8.369  0.00  0.00    -0.204 NA
BRANCH   3   4
ATOM      4  S8  MOL d          21.292  43.583  -9.429  0.00  0.00     0.243 S 
ATOM      5  O9  MOL d          22.360  42.808  -8.861  0.00  0.00    -0.206 OA
ATOM      6  O10 MOL d          20.837  42.889 -10.609  0.00  0.00    -0.206 OA
BRANCH   4   7
ATOM      7  C5  MOL d          21.714  45.090  -9.832  0.00  0.00     0.074 A 
ATOM      8  C4  MOL d          22.621  45.827  -9.089  0.00  0.00     0.027 A 
ATOM      9  C3  MOL d          22.933  47.104  -9.499  0.00  0.00     0.030 A 
ATOM     10  C2  MOL d          22.351  47.588 -10.659  0.00  0.00     0.025 A 
ATOM     11  C7  MOL d          21.518  46.879 -11.336  0.00  0.00     0.030 A 
ATOM     12  C6  MOL d          21.199  45.677 -10.979  0.00  0.00     0.027 A 
BRANCH  10  13
ATOM     13  N1  MOL d          22.654  48.833 -11.066  0.00  0.00    -0.399 N 
ATOM     14  H1  MOL d          23.321  49.403 -10.526  0.00  0.00     0.156 HD
ATOM     15  H2  MOL d          22.220  49.217 -11.918  0.00  0.00     0.156 HD
ENDBRANCH  10  13
ENDBRANCH   4   7
ENDBRANCH   3   4
BRANCH   3  16
ATOM     16  C12 MOL d          20.298  44.514  -7.280  0.00  0.00     0.111 C 
BRANCH  16  17
ATOM     17  C13 MOL d          19.779  43.983  -5.954  0.00  0.00    -0.009 C 
ATOM     18  C14 MOL d          20.257  42.566  -5.693  0.00  0.00     0.011 C 
ATOM     19  C15 MOL d          20.237  44.921  -4.848  0.00  0.00     0.011 C 
ENDBRANCH  16  17
ENDBRANCH   3  16
ENDBRANCH   2   3
ENDBRANCH   1   2
BRANCH   1  20
ATOM     20  O18 MOL d          16.522  43.236  -9.085  0.00  0.00    -0.392 OA
ATOM     21  H19 MOL d          15.885  42.545  -8.947  0.00  0.00     0.210 HD
ENDBRANCH   1  20
BRANCH   1  22
ATOM     22  C19 MOL d          18.217  41.513  -9.636  0.00  0.00     0.120 C 
BRANCH  22  23
ATOM     23  N20 MOL d          17.427  40.396  -9.166  0.00  0.00    -0.329 N 
ATOM     24  C21 MOL d          17.965  39.367  -8.487  0.00  0.00     0.361 C 
ATOM     25  O22 MOL d          19.139  39.294  -8.171  0.00  0.00    -0.238 OA
ATOM     26  H21 MOL d          16.445  40.389  -9.353  0.00  0.00     0.165 HD
BRANCH  24  27
ATOM     27  O23 MOL d          16.984  38.373  -8.060  0.00  0.00    -0.296 OA
BRANCH  27  28
ATOM     28  C24 MOL d          17.297  37.018  -7.781  0.00  0.00     0.166 C 
ATOM     29  C25 MOL d          16.344  36.629  -6.659  0.00  0.00     0.204 C 
ATOM     30  O26 MOL d          15.160  36.119  -7.291  0.00  0.00    -0.358 OA
ATOM     31  C27 MOL d          15.465  35.709  -8.643  0.00  0.00     0.266 C 
ATOM     32  O28 MOL d          14.633  36.359  -9.629  0.00  0.00    -0.361 OA
ATOM     33  C31 MOL d          16.903  36.106  -8.925  0.00  0.00     0.075 C 
ATOM     34  C29 MOL d          15.423  37.061 -10.596  0.00  0.00     0.171 C 
ATOM     35  C30 MOL d          16.889  36.735 -10.312  0.00  0.00     0.038 C 
ENDBRANCH  27  28
ENDBRANCH  24  27
ENDBRANCH  22  23
BRANCH  22  36
ATOM     36  C32 MOL d          17.902  41.642 -11.123  0.00  0.00     0.066 C 
BRANCH  36  37
ATOM     37  C38 MOL d          18.290  40.370 -11.831  0.00  0.00    -0.056 A 
ATOM     38  C33 MOL d          17.324  39.643 -12.513  0.00  0.00     0.007 A 
ATOM     39  C34 MOL d          17.674  38.459 -13.158  0.00  0.00     0.001 A 
ATOM     40  C35 MOL d          18.994  38.014 -13.159  0.00  0.00     0.000 A 
ATOM     41  C36 MOL d          19.962  38.743 -12.473  0.00  0.00     0.001 A 
ATOM     42  C37 MOL d          19.609  39.924 -11.816  0.00  0.00     0.007 A 
ENDBRANCH  36  37
ENDBRANCH  22  36
ENDBRANCH   1  22
TORSDOF 14
