REMARK  18 active torsions:
REMARK  status: ('A' for Active; 'I' for Inactive)
REMARK    1  A    between atoms: N_1  and  CA_2 
REMARK    2  A    between atoms: CA_2  and  C_3 
REMARK       I    between atoms: C_3  and  N_6 
REMARK    3  A    between atoms: CA_7  and  C_8 
REMARK       I    between atoms: C_8  and  N_13 
REMARK    4  A    between atoms: N_13  and  CA_14 
REMARK    5  A    between atoms: CA_14  and  C_15 
REMARK    6  A    between atoms: CA_14  and  CB_17 
REMARK       I    between atoms: C_15  and  N_21 
REMARK    7  A    between atoms: CB_17  and  CG_18 
REMARK    8  A    between atoms: N_21  and  CA_22 
REMARK    9  A    between atoms: CA_22  and  C_23 
REMARK   10  A    between atoms: CA_22  and  CB_25 
REMARK       I    between atoms: C_23  and  N_27 
REMARK   11  A    between atoms: CB_25  and  OG_26 
REMARK   12  A    between atoms: N_27  and  CA_28 
REMARK   13  A    between atoms: CA_28  and  C_29 
REMARK   14  A    between atoms: CA_28  and  CB_31 
REMARK       I    between atoms: C_29  and  N_38 
REMARK   15  A    between atoms: CB_31  and  CG_32 
REMARK   16  A    between atoms: CG_32  and  CD_33 
REMARK   17  A    between atoms: CD_33  and  NE_34 
REMARK       I    between atoms: NE_34  and  CZ_35 
REMARK       I    between atoms: CZ_35  and  NH1_36 
REMARK   18  A    between atoms: CA_39  and  C_40 
ROOT
ATOM      1  CA  ALA d          17.563  10.793   5.186  0.00  0.00     0.200 C 
ENDROOT
BRANCH   1   2
ATOM      2  N   ALA d          17.058  11.408   6.424  0.00  0.00    -0.344 N 
ATOM      3  C   ALA d          16.733  10.725   7.523  0.00  0.00     0.241 C 
ATOM      4  O   ALA d          16.854   9.493   7.648  0.00  0.00    -0.271 OA
ATOM      5  H19 ALA d          16.952  12.402   6.443  0.00  0.00     0.163 HD
BRANCH   3   6
ATOM      6  CA  ALA d          16.197  11.601   8.674  0.00  0.00     0.186 C 
BRANCH   6   7
ATOM      7  N   ALA d          14.754  11.652   8.630  0.00  0.00    -0.346 N 
ATOM      8  C   ALA d          14.152  12.401   7.720  0.00  0.00     0.241 C 
ATOM      9  O   ALA d          14.801  13.029   6.887  0.00  0.00    -0.271 OA
ATOM     10  H15 ALA d          14.213  11.124   9.284  0.00  0.00     0.163 HD
BRANCH   8  11
ATOM     11  CA  ALA d          12.618  12.482   7.733  0.00  0.00     0.179 C 
ATOM     12  N   ALA d          12.144  12.985   6.439  0.00  0.00    -0.337 N 
ATOM     13  C   ALA d          12.187  14.334   6.235  0.00  0.00     0.250 C 
ATOM     14  CD  ALA d          11.607  11.888   5.604  0.00  0.00     0.127 C 
ATOM     15  O   ALA d          12.309  15.144   7.148  0.00  0.00    -0.271 OA
ATOM     16  CG  ALA d          11.821  10.671   6.438  0.00  0.00     0.022 C 
ATOM     17  CB  ALA d          11.920  11.117   7.849  0.00  0.00     0.037 C 
BRANCH  13  18
ATOM     18  CA  ALA d          12.109  14.877   4.792  0.00  0.00     0.271 C 
ATOM     19  CB  ALA d          10.693  15.006   4.336  0.00  0.00     0.050 C 
BRANCH  18  20
ATOM     20  N   ALA d          12.937  14.127   3.811  0.00  0.00    -0.067 N 
ATOM     21  H1  ALA d          12.833  14.540   2.898  0.00  0.00     0.275 HD
ATOM     22  H2  ALA d          12.634  13.166   3.781  0.00  0.00     0.275 HD
ATOM     23  H3  ALA d          13.905  14.166   4.089  0.00  0.00     0.275 HD
ENDBRANCH  18  20
ENDBRANCH  13  18
ENDBRANCH   8  11
ENDBRANCH   6   7
BRANCH   6  24
ATOM     24  CB  ALA d          16.648  11.096  10.017  0.00  0.00     0.147 C 
BRANCH  24  25
ATOM     25  CG  ALA d          18.134  11.161  10.199  0.00  0.00     0.175 C 
ATOM     26  OD1 ALA d          18.846  11.569   9.271  0.00  0.00    -0.648 OA
ATOM     27  OD2 ALA d          18.605  10.731  11.261  0.00  0.00    -0.648 OA
ENDBRANCH  24  25
ENDBRANCH   6  24
ENDBRANCH   3   6
ENDBRANCH   1   2
BRANCH   1  28
ATOM     28  C   ALA d          19.082  10.580   5.189  0.00  0.00     0.243 C 
ATOM     29  O   ALA d          19.665  10.183   4.171  0.00  0.00    -0.271 OA
ATOM     30  N   ALA d          19.729  10.823   6.325  0.00  0.00    -0.346 N 
ATOM     31  H24 ALA d          19.211  11.104   7.133  0.00  0.00     0.163 HD
BRANCH  30  32
ATOM     32  CA  ALA d          21.162  10.690   6.417  0.00  0.00     0.176 C 
BRANCH  32  33
ATOM     33  C   ALA d          21.544   9.193   6.287  0.00  0.00     0.243 C 
ATOM     34  O   ALA d          21.063   8.370   7.046  0.00  0.00    -0.271 OA
ATOM     35  N   ALA d          22.425   8.843   5.339  0.00  0.00    -0.336 N 
ATOM     36  CA  ALA d          22.910   7.443   5.195  0.00  0.00     0.188 C 
ATOM     37  CD  ALA d          22.988   9.742   4.312  0.00  0.00     0.127 C 
ATOM     38  CB  ALA d          23.904   7.523   4.029  0.00  0.00     0.038 C 
ATOM     39  CG  ALA d          24.172   8.977   3.795  0.00  0.00     0.022 C 
BRANCH  36  40
ATOM     40  C   ALA d          23.595   6.805   6.418  0.00  0.00     0.196 C 
ATOM     41  O   ALA d          24.087   7.512   7.297  0.00  0.00    -0.646 OA
ATOM     42  OXT ALA d          23.658   5.581   6.530  0.00  0.00    -0.646 OA
ENDBRANCH  36  40
ENDBRANCH  32  33
BRANCH  32  43
ATOM     43  CB  ALA d          21.650  11.228   7.770  0.00  0.00     0.036 C 
BRANCH  43  44
ATOM     44  CG  ALA d          23.058  11.797   7.747  0.00  0.00     0.023 C 
BRANCH  44  45
ATOM     45  CD  ALA d          23.866  11.473   8.998  0.00  0.00     0.138 C 
BRANCH  45  46
ATOM     46  NE  ALA d          25.243  11.199   8.615  0.00  0.00    -0.227 N 
ATOM     47  CZ  ALA d          26.132  10.561   9.371  0.00  0.00     0.665 C 
ATOM     48  NH1 ALA d          25.821  10.152  10.586  0.00  0.00    -0.235 N 
ATOM     49  NH2 ALA d          27.352  10.344   8.916  0.00  0.00    -0.235 N 
ATOM     50  H33 ALA d          26.521   9.659  11.159  0.00  0.00     0.174 HD
ATOM     51  H34 ALA d          24.878  10.325  10.962  0.00  0.00     0.174 HD
ATOM     52  H35 ALA d          27.612  10.657   7.970  0.00  0.00     0.174 HD
ATOM     53  H36 ALA d          28.044   9.862   9.507  0.00  0.00     0.174 HD
ATOM     54  H32 ALA d          25.553  11.524   7.688  0.00  0.00     0.177 HD
ENDBRANCH  45  46
ENDBRANCH  44  45
ENDBRANCH  43  44
ENDBRANCH  32  43
ENDBRANCH  30  32
ENDBRANCH   1  28
BRANCH   1  55
ATOM     55  CB  ALA d          17.142  11.626   3.940  0.00  0.00     0.199 C 
BRANCH  55  56
ATOM     56  OG  ALA d          17.919  12.821   3.738  0.00  0.00    -0.398 OA
ATOM     57  H23 ALA d          17.606  13.274   2.964  0.00  0.00     0.209 HD
ENDBRANCH  55  56
ENDBRANCH   1  55
TORSDOF 18
