REMARK  9 active torsions:
REMARK  status: ('A' for Active; 'I' for Inactive)
REMARK    1  A    between atoms: O3A_8  and  PB_1 
REMARK    2  A    between atoms: PA_5  and  O3A_8 
REMARK    3  A    between atoms: PA_5  and  O5_9 
REMARK    4  A    between atoms: O5_9  and  C5_10 
REMARK    5  A    between atoms: C5_10  and  C4_11 
REMARK    6  A    between atoms: C3_13  and  O3_14 
REMARK    7  A    between atoms: C2_15  and  O2_16 
REMARK    8  A    between atoms: C1_17  and  N9_18 
REMARK    9  A    between atoms: C6_22  and  N6_23 
ROOT
ATOM      1  C4  ADP d          13.204  -1.041  -3.143  0.00  0.00     0.180 C 
ATOM      2  O4  ADP d          14.587  -0.629  -3.093  0.00  0.00    -0.353 OA
ATOM      3  C3  ADP d          13.068  -1.964  -4.344  0.00  0.00     0.182 C 
ATOM      4  C2  ADP d          14.206  -1.565  -5.238  0.00  0.00     0.198 C 
ATOM      5  C1  ADP d          15.270  -1.115  -4.262  0.00  0.00     0.262 C 
ENDROOT
BRANCH   5   6
ATOM      6  N9  ADP d          16.286  -2.195  -4.006  0.00  0.00    -0.294 N 
ATOM      7  C8  ADP d          16.321  -3.083  -2.999  0.00  0.00     0.214 A 
ATOM      8  N7  ADP d          17.404  -3.867  -3.151  0.00  0.00    -0.236 NA
ATOM      9  C5  ADP d          18.052  -3.479  -4.237  0.00  0.00     0.149 A 
ATOM     10  C6  ADP d          19.219  -3.872  -4.927  0.00  0.00     0.155 A 
ATOM     11  C4  ADP d          17.323  -2.405  -4.784  0.00  0.00     0.167 A 
ATOM     12  N1  ADP d          19.598  -3.211  -6.071  0.00  0.00    -0.222 NA
ATOM     13  C2  ADP d          18.880  -2.179  -6.571  0.00  0.00     0.237 A 
ATOM     14  N3  ADP d          17.760  -1.800  -5.924  0.00  0.00    -0.222 NA
BRANCH  10  15
ATOM     15  N6  ADP d          19.974  -4.893  -4.476  0.00  0.00    -0.382 N 
ATOM     16  H10 ADP d          20.823  -5.171  -4.988  0.00  0.00     0.157 HD
ATOM     17  H11 ADP d          19.702  -5.396  -3.619  0.00  0.00     0.157 HD
ENDBRANCH  10  15
ENDBRANCH   5   6
BRANCH   4  18
ATOM     18  O2  ADP d          13.839  -0.536  -6.160  0.00  0.00    -0.388 OA
ATOM     19  H7  ADP d          13.127  -0.844  -6.709  0.00  0.00     0.210 HD
ENDBRANCH   4  18
BRANCH   1  20
ATOM     20  C5  ADP d          12.773  -1.579  -1.763  0.00  0.00     0.216 C 
BRANCH  20  21
ATOM     21  O5  ADP d          13.058  -2.953  -1.625  0.00  0.00    -0.287 OA
BRANCH  21  22
ATOM     22  PA  ADP d          11.824  -3.972  -1.437  0.00  0.00     0.418 P 
ATOM     23  O1A ADP d          10.934  -3.568  -0.325  0.00  0.00    -0.624 OA
ATOM     24  O2A ADP d          12.296  -5.373  -1.286  0.00  0.00    -0.624 OA
BRANCH  22  25
ATOM     25  O3A ADP d          11.070  -3.797  -2.773  0.00  0.00    -0.173 OA
BRANCH  25  26
ATOM     26  PB  ADP d          10.509  -4.870  -3.736  0.00  0.00     0.431 P 
ATOM     27  O1B ADP d           9.705  -4.217  -4.863  0.00  0.00    -0.616 OA
ATOM     28  O2B ADP d          11.893  -5.590  -4.289  0.00  0.00    -0.616 OA
ATOM     29  O3B ADP d           9.653  -5.837  -2.941  0.00  0.00    -0.616 OA
ENDBRANCH  25  26
ENDBRANCH  22  25
ENDBRANCH  21  22
ENDBRANCH  20  21
ENDBRANCH   1  20
BRANCH   3  30
ATOM     30  O3  ADP d          11.809  -1.863  -5.013  0.00  0.00    -0.390 OA
ATOM     31  H5  ADP d          11.688  -0.974  -5.326  0.00  0.00     0.210 HD
ENDBRANCH   3  30
TORSDOF 9
