REMARK  10 active torsions:
REMARK  status: ('A' for Active; 'I' for Inactive)
REMARK    1  A    between atoms: N_1  and  CA_2 
REMARK    2  A    between atoms: CA_2  and  C_3 
REMARK       I    between atoms: C_3  and  N_6 
REMARK    3  A    between atoms: N_6  and  CA_7 
REMARK    4  A    between atoms: CA_7  and  C_8 
REMARK    5  A    between atoms: CA_7  and  CB_10 
REMARK       I    between atoms: C_8  and  N_13 
REMARK    6  A    between atoms: CA_14  and  C_15 
REMARK       I    between atoms: C_15  and  N_20 
REMARK    7  A    between atoms: N_20  and  CA_21 
REMARK    8  A    between atoms: CA_21  and  C_22 
REMARK    9  A    between atoms: CA_21  and  CB_24 
REMARK   10  A    between atoms: CB_24  and  CG1_25 
ROOT
ATOM      1  C   ALA d          28.003  34.841  11.073  0.00  0.00     0.243 C 
ATOM      2  O   ALA d          27.537  35.263  12.134  0.00  0.00    -0.271 OA
ATOM      3  N   ALA d          28.185  33.522  10.839  0.00  0.00    -0.337 N 
ATOM      4  CA  ALA d          27.736  32.537  11.831  0.00  0.00     0.179 C 
ATOM      5  CB  ALA d          27.341  31.355  10.940  0.00  0.00     0.037 C 
ATOM      6  CG  ALA d          28.258  31.414   9.759  0.00  0.00     0.022 C 
ATOM      7  CD  ALA d          28.465  32.903   9.517  0.00  0.00     0.127 C 
ENDROOT
BRANCH   1   8
ATOM      8  CA  ALA d          28.503  35.809   9.981  0.00  0.00     0.180 C 
BRANCH   8   9
ATOM      9  N   ALA d          27.438  36.717   9.596  0.00  0.00    -0.346 N 
ATOM     10  C   ALA d          26.760  36.695   8.466  0.00  0.00     0.248 C 
ATOM     11  O   ALA d          26.813  35.827   7.573  0.00  0.00    -0.271 OA
ATOM     12  H8  ALA d          27.195  37.430  10.253  0.00  0.00     0.163 HD
BRANCH  10  13
ATOM     13  CA  ALA d          25.718  37.798   8.335  0.00  0.00     0.270 C 
ATOM     14  CB  ALA d          24.590  37.553   9.381  0.00  0.00     0.050 C 
BRANCH  13  15
ATOM     15  N   ALA d          25.184  37.870   6.968  0.00  0.00    -0.067 N 
ATOM     16  H1  ALA d          24.499  38.607   6.913  0.00  0.00     0.275 HD
ATOM     17  H2  ALA d          24.752  36.991   6.729  0.00  0.00     0.275 HD
ATOM     18  H3  ALA d          25.935  38.061   6.324  0.00  0.00     0.275 HD
ENDBRANCH  13  15
ENDBRANCH  10  13
ENDBRANCH   8   9
BRANCH   8  19
ATOM     19  CB  ALA d          29.708  36.610  10.523  0.00  0.00     0.009 C 
ATOM     20  CG1 ALA d          30.761  35.711  11.168  0.00  0.00     0.012 C 
ATOM     21  CG2 ALA d          30.271  37.486   9.389  0.00  0.00     0.012 C 
ENDBRANCH   8  19
ENDBRANCH   1   8
BRANCH   4  22
ATOM     22  C   ALA d          28.791  32.169  12.876  0.00  0.00     0.241 C 
ATOM     23  O   ALA d          30.004  32.161  12.590  0.00  0.00    -0.271 OA
ATOM     24  N   ALA d          28.398  31.945  14.107  0.00  0.00    -0.344 N 
ATOM     25  H24 ALA d          27.460  32.196  14.347  0.00  0.00     0.163 HD
BRANCH  24  26
ATOM     26  CA  ALA d          29.239  31.349  15.165  0.00  0.00     0.189 C 
BRANCH  26  27
ATOM     27  C   ALA d          28.581  30.115  15.775  0.00  0.00     0.197 C 
ATOM     28  O   ALA d          27.394  30.179  16.072  0.00  0.00    -0.646 OA
ATOM     29  OXT ALA d          29.204  29.034  16.052  0.00  0.00    -0.646 OA
ENDBRANCH  26  27
BRANCH  26  30
ATOM     30  CB  ALA d          29.540  32.357  16.285  0.00  0.00     0.014 C 
ATOM     31  CG2 ALA d          30.362  31.754  17.415  0.00  0.00     0.012 C 
BRANCH  30  32
ATOM     32  CG1 ALA d          30.233  33.592  15.737  0.00  0.00     0.002 C 
ATOM     33  CD1 ALA d          30.686  34.498  16.852  0.00  0.00     0.005 C 
ENDBRANCH  30  32
ENDBRANCH  26  30
ENDBRANCH  24  26
ENDBRANCH   4  22
TORSDOF 10
