REMARK  5 active torsions:
REMARK  status: ('A' for Active; 'I' for Inactive)
REMARK    1  A    between atoms: C1_1  and  C2_4 
REMARK    2  A    between atoms: C2_4  and  O3_5 
REMARK    3  A    between atoms: C2_4  and  C3_6 
REMARK    4  A    between atoms: C3_6  and  O1P_7 
REMARK    5  A    between atoms: O1P_7  and  P_8 
ROOT
ATOM      1  C2  MOL d          -8.487   8.599  13.878  0.00  0.00     0.243 C 
ENDROOT
BRANCH   1   2
ATOM      2  C1  MOL d          -9.689   8.611  12.978  0.00  0.00     0.205 C 
ATOM      3  O1  MOL d         -10.737   8.059  13.378  0.00  0.00    -0.646 OA
ATOM      4  O2  MOL d          -9.599   9.172  11.863  0.00  0.00    -0.646 OA
ENDBRANCH   1   2
BRANCH   1   5
ATOM      5  O3  MOL d          -7.609   9.673  13.524  0.00  0.00    -0.383 OA
ATOM      6  H2  MOL d          -7.329   9.568  12.622  0.00  0.00     0.210 HD
ENDBRANCH   1   5
BRANCH   1   7
ATOM      7  C3  MOL d          -7.740   7.282  13.722  0.00  0.00     0.225 C 
BRANCH   7   8
ATOM      8  O1P MOL d          -6.733   7.212  14.730  0.00  0.00    -0.280 OA
BRANCH   8   9
ATOM      9  P   MOL d          -5.333   6.458  14.469  0.00  0.00     0.422 P 
ATOM     10  O2P MOL d          -4.594   6.659  15.768  0.00  0.00    -0.617 OA
ATOM     11  O3P MOL d          -5.725   5.028  14.193  0.00  0.00    -0.617 OA
ATOM     12  O4P MOL d          -4.735   7.175  13.283  0.00  0.00    -0.617 OA
ENDBRANCH   8   9
ENDBRANCH   7   8
ENDBRANCH   1   7
TORSDOF 5
