REMARK  12 active torsions:
REMARK  status: ('A' for Active; 'I' for Inactive)
REMARK    1  A    between atoms: CBH_9  and  CAK_10 
REMARK    2  A    between atoms: CAK_10  and  CAI_11 
REMARK    3  A    between atoms: CAI_11  and  CAH_12 
REMARK    4  A    between atoms: CAH_12  and  CAJ_13 
REMARK    5  A    between atoms: CAJ_13  and  CAZ_14 
REMARK       I    between atoms: CAZ_14  and  NAV_16 
REMARK    6  A    between atoms: NAV_16  and  SBK_17 
REMARK    7  A    between atoms: SBK_17  and  OAW_20 
REMARK    8  A    between atoms: OAW_20  and  CAN_21 
REMARK    9  A    between atoms: CAN_21  and  CBE_22 
REMARK   10  A    between atoms: CAL_24  and  OAL_25 
REMARK   11  A    between atoms: CBG_28  and  N9_29 
REMARK   12  A    between atoms: C6_37  and  N6_38 
ROOT
ATOM      1  SBK MOL d          -4.083  -4.968   6.403  0.00  0.00     0.364 S 
ATOM      2  OAD MOL d          -5.266  -5.380   5.700  0.00  0.00    -0.175 OA
ATOM      3  OAE MOL d          -3.005  -4.791   5.471  0.00  0.00    -0.175 OA
ENDROOT
BRANCH   1   4
ATOM      4  NAV MOL d          -3.687  -6.075   7.490  0.00  0.00    -0.231 N 
ATOM      5  CAZ MOL d          -4.593  -6.512   8.360  0.00  0.00     0.232 C 
ATOM      6  OAB MOL d          -5.695  -6.001   8.482  0.00  0.00    -0.273 OA
ATOM      7  H16 MOL d          -2.756  -6.439   7.515  0.00  0.00     0.183 HD
BRANCH   5   8
ATOM      8  CAJ MOL d          -4.189  -7.680   9.228  0.00  0.00     0.104 C 
BRANCH   8   9
ATOM      9  CAH MOL d          -3.901  -7.186  10.643  0.00  0.00     0.009 C 
BRANCH   9  10
ATOM     10  CAI MOL d          -3.585  -8.352  11.572  0.00  0.00     0.002 C 
BRANCH  10  11
ATOM     11  CAK MOL d          -3.301  -7.896  12.999  0.00  0.00     0.017 C 
BRANCH  11  12
ATOM     12  CBH MOL d          -3.411  -9.095  13.932  0.00  0.00     0.072 C 
ATOM     13  CBI MOL d          -2.212 -10.030  13.817  0.00  0.00     0.123 C 
ATOM     14  NAU MOL d          -0.993  -9.298  13.528  0.00  0.00    -0.335 N 
ATOM     15  CBF MOL d          -1.888 -10.690  15.159  0.00  0.00     0.119 C 
ATOM     16  CBA MOL d          -0.061  -9.509  14.454  0.00  0.00     0.316 C 
ATOM     17  H2  MOL d          -0.869  -8.707  12.731  0.00  0.00     0.164 HD
ATOM     18  OAC MOL d           1.030  -8.958  14.497  0.00  0.00    -0.247 OA
ATOM     19  NAT MOL d          -0.486 -10.392  15.346  0.00  0.00    -0.336 N 
ATOM     20  H3  MOL d           0.088 -10.799  16.056  0.00  0.00     0.164 HD
ATOM     21  CAO MOL d          -2.646 -10.048  16.310  0.00  0.00     0.101 C 
ATOM     22  SAY MOL d          -3.436  -8.637  15.629  0.00  0.00    -0.160 SA
ENDBRANCH  11  12
ENDBRANCH  10  11
ENDBRANCH   9  10
ENDBRANCH   8   9
ENDBRANCH   5   8
ENDBRANCH   1   4
BRANCH   1  23
ATOM     23  OAW MOL d          -4.360  -3.652   7.145  0.00  0.00    -0.257 OA
BRANCH  23  24
ATOM     24  CAN MOL d          -3.296  -2.876   7.695  0.00  0.00     0.226 C 
BRANCH  24  25
ATOM     25  CBE MOL d          -3.729  -1.416   7.738  0.00  0.00     0.181 C 
ATOM     26  OAX MOL d          -4.872  -1.211   8.582  0.00  0.00    -0.353 OA
ATOM     27  CBG MOL d          -4.759   0.033   9.290  0.00  0.00     0.267 C 
ATOM     28  CAM MOL d          -3.475   0.685   8.780  0.00  0.00     0.250 C 
ATOM     29  CAL MOL d          -2.654  -0.478   8.260  0.00  0.00     0.187 C 
ATOM     30  F8Q MOL d          -2.814   1.435   9.718  0.00  0.00    -0.242 F 
BRANCH  27  31
ATOM     31  N9  MOL d          -4.787  -0.234  10.756  0.00  0.00    -0.293 N 
ATOM     32  C8  MOL d          -3.752  -0.334  11.608  0.00  0.00     0.214 A 
ATOM     33  N7  MOL d          -4.216  -0.596  12.851  0.00  0.00    -0.236 NA
ATOM     34  C5  MOL d          -5.561  -0.669  12.767  0.00  0.00     0.149 A 
ATOM     35  C4  MOL d          -5.908  -0.446  11.448  0.00  0.00     0.167 A 
ATOM     36  C6  MOL d          -6.565  -0.913  13.694  0.00  0.00     0.155 A 
ATOM     37  N3  MOL d          -7.212  -0.464  11.084  0.00  0.00    -0.222 NA
ATOM     38  C2  MOL d          -8.160  -0.704  11.997  0.00  0.00     0.237 A 
ATOM     39  N1  MOL d          -7.852  -0.922  13.282  0.00  0.00    -0.222 NA
BRANCH  36  40
ATOM     40  N6  MOL d          -6.262  -1.138  14.995  0.00  0.00    -0.382 N 
ATOM     41  H26 MOL d          -7.014  -1.318  15.675  0.00  0.00     0.157 HD
ATOM     42  H27 MOL d          -5.279  -1.129  15.304  0.00  0.00     0.157 HD
ENDBRANCH  36  40
ENDBRANCH  27  31
BRANCH  29  43
ATOM     43  OAL MOL d          -1.784  -0.073   7.202  0.00  0.00    -0.390 OA
ATOM     44  H21 MOL d          -1.119   0.512   7.546  0.00  0.00     0.210 HD
ENDBRANCH  29  43
ENDBRANCH  24  25
ENDBRANCH  23  24
ENDBRANCH   1  23
TORSDOF 12
