REMARK  7 active torsions:
REMARK  status: ('A' for Active; 'I' for Inactive)
REMARK    1  A    between atoms: CAA_1  and  CAG_2 
REMARK    2  A    between atoms: CAG_2  and  CAH_3 
REMARK    3  A    between atoms: CAH_3  and  CAM_4 
REMARK    4  A    between atoms: CAR_9  and  CAL_10 
REMARK    5  A    between atoms: CAR_9  and  OAF_13 
REMARK    6  A    between atoms: CAP_15  and  OAD_16 
REMARK    7  A    between atoms: CAQ_17  and  OAE_18 
ROOT
ATOM      1  CAM JPS d           2.239  15.359  24.763  0.00  0.00    -0.016 A 
ATOM      2  CAI JPS d           2.096  14.050  25.041  0.00  0.00     0.026 A 
ATOM      3  SAK JPS d           2.261  15.558  23.129  0.00  0.00    -0.096 SA
ATOM      4  CAO JPS d           2.076  13.937  22.777  0.00  0.00     0.024 A 
ATOM      5  CAN JPS d           2.001  13.221  23.974  0.00  0.00     0.003 A 
ATOM      6  CAR JPS d           1.809  11.679  23.958  0.00  0.00     0.176 C 
ATOM      7  CAJ JPS d           1.229  11.197  22.614  0.00  0.00     0.089 C 
ATOM      8  CAP JPS d           2.061  11.805  21.457  0.00  0.00     0.155 C 
ATOM      9  CAQ JPS d           1.939  13.321  21.423  0.00  0.00     0.187 C 
ENDROOT
BRANCH   1  10
ATOM     10  CAH JPS d           2.377  16.537  25.727  0.00  0.00     0.046 C 
BRANCH  10  11
ATOM     11  CAG JPS d           1.182  17.480  25.496  0.00  0.00     0.009 C 
BRANCH  11  12
ATOM     12  CAA JPS d           1.033  18.577  26.563  0.00  0.00    -0.014 A 
ATOM     13  CA0 JPS d          -0.307  19.320  26.563  0.00  0.00     0.005 A 
ATOM     14  CA1 JPS d           0.932  20.008  26.039  0.00  0.00     0.005 A 
ENDBRANCH  11  12
ENDBRANCH  10  11
ENDBRANCH   1  10
BRANCH   6  15
ATOM     15  CAL JPS d           0.948  11.275  25.155  0.00  0.00     0.214 C 
ATOM     16  OAC JPS d           1.571  11.178  26.213  0.00  0.00    -0.645 OA
ATOM     17  OAB JPS d          -0.276  11.062  25.020  0.00  0.00    -0.645 OA
ENDBRANCH   6  15
BRANCH   6  18
ATOM     18  OAF JPS d           3.076  10.994  24.139  0.00  0.00    -0.374 OA
ATOM     19  H7  JPS d           3.470  11.270  24.958  0.00  0.00     0.211 HD
ENDBRANCH   6  18
BRANCH   9  20
ATOM     20  OAE JPS d           2.851  13.973  20.506  0.00  0.00    -0.388 OA
ATOM     21  H13 JPS d           2.716  14.913  20.541  0.00  0.00     0.210 HD
ENDBRANCH   9  20
BRANCH   8  22
ATOM     22  OAD JPS d           1.543  11.330  20.201  0.00  0.00    -0.393 OA
ATOM     23  H11 JPS d           2.051  11.701  19.489  0.00  0.00     0.210 HD
ENDBRANCH   8  22
TORSDOF 7
