REMARK  5 active torsions:
REMARK  status: ('A' for Active; 'I' for Inactive)
REMARK       I    between atoms: NBG_2  and  CAV_4 
REMARK    1  A    between atoms: CAV_4  and  CAU_6 
REMARK    2  A    between atoms: CAU_6  and  CBB_8 
REMARK    3  A    between atoms: CBA_18  and  CAW_19 
REMARK       I    between atoms: CAW_19  and  NBI_21 
REMARK    4  A    between atoms: NBH_28  and  CAR_29 
REMARK    5  A    between atoms: CAR_29  and  CAZ_30 
ROOT
ATOM      1  CAW MOL d          19.633   1.890 -24.952  0.00  0.00     0.256 C 
ATOM      2  OAH MOL d          19.820   1.520 -26.097  0.00  0.00    -0.267 OA
ATOM      3  NBI MOL d          19.981   1.129 -23.883  0.00  0.00    -0.340 N 
ATOM      4  CBF MOL d          20.504  -0.238 -23.971  0.00  0.00     0.109 C 
ATOM      5  CAS MOL d          21.681  -0.288 -23.043  0.00  0.00     0.260 C 
ATOM      6  CAB MOL d          19.429  -1.235 -23.452  0.00  0.00     0.034 C 
ATOM      7  CAT MOL d          19.719   1.661 -22.487  0.00  0.00     0.159 C 
ATOM      8  CBE MOL d          20.887   1.535 -21.550  0.00  0.00     0.202 C 
ATOM      9  CAA MOL d          21.930   2.543 -22.067  0.00  0.00     0.042 C 
ATOM     10  NBH MOL d          21.256   0.104 -21.676  0.00  0.00    -0.060 N 
ATOM     11  H25 MOL d          20.422  -0.420 -21.461  0.00  0.00     0.280 HD
ENDROOT
BRANCH   1  12
ATOM     12  CBA MOL d          19.093   3.287 -24.636  0.00  0.00     0.054 A 
ATOM     13  CAP MOL d          19.840   4.368 -25.065  0.00  0.00     0.033 A 
ATOM     14  CBC MOL d          19.406   5.650 -24.746  0.00  0.00     0.007 A 
ATOM     15  CBB MOL d          19.911   6.916 -24.988  0.00  0.00     0.048 A 
ATOM     16  CBD MOL d          18.215   5.856 -24.023  0.00  0.00     0.046 A 
ATOM     17  CAQ MOL d          19.051   7.834 -24.503  0.00  0.00     0.107 A 
ATOM     18  NBJ MOL d          18.040   7.188 -23.904  0.00  0.00    -0.359 N 
ATOM     19  CAE MOL d          16.963   7.846 -23.196  0.00  0.00     0.156 C 
ATOM     20  CAO MOL d          17.462   4.754 -23.611  0.00  0.00     0.055 A 
ATOM     21  CAY MOL d          17.907   3.474 -23.905  0.00  0.00     0.051 A 
ATOM     22 CLA  MOL d          16.903   2.158 -23.379  0.00  0.00    -0.083 Cl
BRANCH  15  23
ATOM     23  CAU MOL d          21.124   7.188 -25.885  0.00  0.00     0.251 C 
ATOM     24  OAF MOL d          21.521   6.257 -26.574  0.00  0.00    -0.281 OA
BRANCH  23  25
ATOM     25  CAV MOL d          21.749   8.585 -26.231  0.00  0.00     0.294 C 
ATOM     26  NBG MOL d          22.782   8.699 -27.148  0.00  0.00    -0.354 N 
ATOM     27  CAC MOL d          23.334   7.509 -27.914  0.00  0.00     0.152 C 
ATOM     28  CAD MOL d          23.385  10.028 -27.380  0.00  0.00     0.152 C 
ATOM     29  OAG MOL d          21.304   9.542 -25.595  0.00  0.00    -0.264 OA
ENDBRANCH  23  25
ENDBRANCH  15  23
ENDBRANCH   1  12
BRANCH  10  30
ATOM     30  CAR MOL d          22.279  -0.319 -20.746  0.00  0.00     0.274 C 
BRANCH  30  31
ATOM     31  CAZ MOL d          22.789  -1.777 -20.874  0.00  0.00    -0.032 A 
ATOM     32  CAM MOL d          24.091  -2.030 -21.383  0.00  0.00     0.012 A 
ATOM     33  CAK MOL d          24.550  -3.355 -21.439  0.00  0.00     0.043 A 
ATOM     34  CAX MOL d          23.728  -4.415 -20.984  0.00  0.00     0.116 A 
ATOM     35  FAI MOL d          24.168  -5.704 -21.034  0.00  0.00    -0.206 F 
ATOM     36  CAL MOL d          22.435  -4.158 -20.498  0.00  0.00     0.043 A 
ATOM     37  CAN MOL d          21.967  -2.833 -20.428  0.00  0.00     0.012 A 
ENDBRANCH  30  31
ENDBRANCH  10  30
TORSDOF 5
