REMARK  11 active torsions:
REMARK  status: ('A' for Active; 'I' for Inactive)
REMARK    1  A    between atoms: N1_1  and  C11_14 
REMARK    2  A    between atoms: N1_1  and  C8_15 
REMARK    3  A    between atoms: S1_18  and  N1_1 
REMARK       I    between atoms: C9_12  and  N2_3 
REMARK    4  A    between atoms: N2_3  and  O5_13 
REMARK    5  A    between atoms: C4_4  and  O3_9 
REMARK    6  A    between atoms: C8_15  and  C6_6 
REMARK    7  A    between atoms: C6_6  and  O6_16 
REMARK    8  A    between atoms: C6_6  and  C12_17 
REMARK    9  A    between atoms: C12_17  and  O4_10 
REMARK   10  A    between atoms: C11_14  and  C9_12 
REMARK   11  A    between atoms: S1_18  and  C3_19 
ROOT
ATOM      1  N1  HS1 d          -1.955  -5.085  -3.795  0.00  0.00    -0.295 N 
ENDROOT
BRANCH   1   2
ATOM      2  C11 HS1 d          -1.110  -3.882  -3.708  0.00  0.00     0.240 C 
BRANCH   2   3
ATOM      3  C9  HS1 d          -2.075  -2.894  -4.348  0.00  0.00     0.259 C 
ATOM      4  N2  HS1 d          -1.614  -2.103  -5.311  0.00  0.00    -0.236 N 
ATOM      5  H2  HS1 d          -0.661  -2.157  -5.609  0.00  0.00     0.197 HD
ATOM      6  O7  HS1 d          -3.259  -2.854  -4.004  0.00  0.00    -0.270 OA
BRANCH   4   7
ATOM      7  O5  HS1 d          -2.499  -1.193  -5.896  0.00  0.00    -0.287 OA
ATOM      8  H6  HS1 d          -3.223  -1.666  -6.290  0.00  0.00     0.244 HD
ENDBRANCH   4   7
ENDBRANCH   2   3
ENDBRANCH   1   2
BRANCH   1   9
ATOM      9  C8  HS1 d          -2.498  -5.687  -2.545  0.00  0.00     0.169 C 
BRANCH   9  10
ATOM     10  C6  HS1 d          -1.609  -5.985  -1.339  0.00  0.00     0.160 C 
BRANCH  10  11
ATOM     11  O6  HS1 d          -0.850  -4.841  -0.958  0.00  0.00    -0.392 OA
ATOM     12  H11 HS1 d          -0.309  -5.057  -0.208  0.00  0.00     0.210 HD
ENDBRANCH  10  11
BRANCH  10  13
ATOM     13  C12 HS1 d          -0.687  -7.154  -1.650  0.00  0.00     0.197 C 
BRANCH  13  14
ATOM     14  O4  HS1 d          -1.503  -8.304  -1.894  0.00  0.00    -0.398 OA
ATOM     15  H5  HS1 d          -2.078  -8.133  -2.631  0.00  0.00     0.209 HD
ENDBRANCH  13  14
ENDBRANCH  10  13
ENDBRANCH   9  10
ENDBRANCH   1   9
BRANCH   1  16
ATOM     16  S1  HS1 d          -1.591  -6.130  -4.996  0.00  0.00     0.261 S 
ATOM     17  O1  HS1 d          -1.605  -7.509  -4.570  0.00  0.00    -0.200 OA
ATOM     18  O2  HS1 d          -0.323  -5.806  -5.592  0.00  0.00    -0.200 OA
BRANCH  16  19
ATOM     19  C3  HS1 d          -2.744  -5.998  -6.111  0.00  0.00     0.079 A 
ATOM     20  C5  HS1 d          -2.559  -5.175  -7.227  0.00  0.00     0.028 A 
ATOM     21  C7  HS1 d          -3.552  -5.097  -8.213  0.00  0.00     0.038 A 
ATOM     22  C4  HS1 d          -4.740  -5.843  -8.105  0.00  0.00     0.068 A 
ATOM     23  C2  HS1 d          -4.929  -6.675  -6.997  0.00  0.00     0.038 A 
ATOM     24  C1  HS1 d          -3.932  -6.750  -6.010  0.00  0.00     0.028 A 
BRANCH  22  25
ATOM     25  O3  HS1 d          -5.678  -5.740  -9.114  0.00  0.00    -0.356 OA
ATOM     26  C10 HS1 d          -6.659  -6.757  -9.357  0.00  0.00     0.210 C 
ENDBRANCH  22  25
ENDBRANCH  16  19
ENDBRANCH   1  16
TORSDOF 11
