REMARK  7 active torsions:
REMARK  status: ('A' for Active; 'I' for Inactive)
REMARK    1  A    between atoms: CAQ_9  and  CAL_10 
REMARK    2  A    between atoms: CAL_10  and  CAP_11 
REMARK       I    between atoms: CAP_11  and  NAM_13 
REMARK    3  A    between atoms: NAM_13  and  CAK_14 
REMARK    4  A    between atoms: CAK_14  and  CAU_15 
REMARK    5  A    between atoms: CAV_19  and  OAC_20 
REMARK    6  A    between atoms: CAX_21  and  OAE_22 
REMARK    7  A    between atoms: CAW_23  and  OAD_24 
ROOT
ATOM      1  CAK ZX6 d          -1.693  25.967  26.867  0.00  0.00     0.158 C 
ENDROOT
BRANCH   1   2
ATOM      2  NAM ZX6 d          -1.573  26.408  28.268  0.00  0.00    -0.359 N 
ATOM      3  CAP ZX6 d          -2.573  26.993  28.926  0.00  0.00     0.222 C 
ATOM      4  OAB ZX6 d          -3.608  27.356  28.369  0.00  0.00    -0.273 OA
ATOM      5  H9  ZX6 d          -0.706  26.262  28.744  0.00  0.00     0.162 HD
BRANCH   3   6
ATOM      6  CAL ZX6 d          -2.373  27.361  30.401  0.00  0.00     0.143 C 
BRANCH   6   7
ATOM      7  CAQ ZX6 d          -1.340  26.520  31.154  0.00  0.00    -0.022 A 
ATOM      8  CAS ZX6 d          -1.161  25.141  31.133  0.00  0.00    -0.001 A 
ATOM      9  CAI ZX6 d          -1.766  24.102  30.436  0.00  0.00     0.014 A 
ATOM     10  CAR ZX6 d          -0.100  24.869  31.990  0.00  0.00     0.042 A 
ATOM     11  CAG ZX6 d          -1.307  22.797  30.596  0.00  0.00     0.001 A 
ATOM     12  CAF ZX6 d          -0.248  22.526  31.456  0.00  0.00     0.002 A 
ATOM     13  CAH ZX6 d           0.356  23.566  32.157  0.00  0.00     0.030 A 
ATOM     14  NAO ZX6 d           0.316  26.031  32.485  0.00  0.00    -0.365 N 
ATOM     15  CAJ ZX6 d          -0.427  27.017  31.985  0.00  0.00     0.097 A 
ATOM     16  H5  ZX6 d           1.092  26.150  33.151  0.00  0.00     0.165 HD
ENDBRANCH   6   7
ENDBRANCH   3   6
ENDBRANCH   1   2
BRANCH   1  17
ATOM     17  CAU ZX6 d          -1.442  27.034  25.796  0.00  0.00     0.235 C 
ATOM     18  NAN ZX6 d          -0.009  27.376  25.734  0.00  0.00    -0.060 N 
ATOM     19  CAT ZX6 d           0.261  28.452  24.762  0.00  0.00     0.213 C 
ATOM     20  H13 ZX6 d           0.510  26.555  25.463  0.00  0.00     0.278 HD
ATOM     21  H14 ZX6 d           0.293  27.679  26.647  0.00  0.00     0.278 HD
ATOM     22  CAA ZX6 d           1.762  28.742  24.731  0.00  0.00     0.043 C 
ATOM     23  CAV ZX6 d          -0.235  28.117  23.348  0.00  0.00     0.179 C 
ATOM     24  CAX ZX6 d          -1.695  27.658  23.401  0.00  0.00     0.179 C 
ATOM     25  CAW ZX6 d          -1.798  26.506  24.400  0.00  0.00     0.181 C 
BRANCH  23  26
ATOM     26  OAC ZX6 d           0.566  27.082  22.769  0.00  0.00    -0.391 OA
ATOM     27  H20 ZX6 d           0.246  26.887  21.896  0.00  0.00     0.210 HD
ENDBRANCH  23  26
BRANCH  24  28
ATOM     28  OAE ZX6 d          -2.152  27.208  22.124  0.00  0.00    -0.390 OA
ATOM     29  H22 ZX6 d          -3.058  26.931  22.193  0.00  0.00     0.210 HD
ENDBRANCH  24  28
BRANCH  25  30
ATOM     30  OAD ZX6 d          -3.119  25.968  24.323  0.00  0.00    -0.391 OA
ATOM     31  H24 ZX6 d          -3.280  25.653  23.442  0.00  0.00     0.210 HD
ENDBRANCH  25  30
ENDBRANCH   1  17
TORSDOF 7
