REMARK  11 active torsions:
REMARK  status: ('A' for Active; 'I' for Inactive)
REMARK    1  A    between atoms: N_1  and  CA_2 
REMARK    2  A    between atoms: CA_2  and  C_3 
REMARK    3  A    between atoms: CA_2  and  CB_6 
REMARK    4  A    between atoms: CB_6  and  CG_7 
REMARK    5  A    between atoms: CG_7  and  SD_8 
REMARK    6  A    between atoms: SD_8  and  C5'_10 
REMARK    7  A    between atoms: C5'_10  and  C4'_11 
REMARK    8  A    between atoms: C3'_13  and  O3'_14 
REMARK    9  A    between atoms: C2'_15  and  O2'_16 
REMARK   10  A    between atoms: C1'_17  and  N9_18 
REMARK   11  A    between atoms: C6_22  and  N6_23 
ROOT
ATOM      1  C4' SAM d           7.566   1.146  18.876  0.00  0.00     0.164 C 
ATOM      2  O4' SAM d           8.805   1.434  18.190  0.00  0.00    -0.355 OA
ATOM      3  C3' SAM d           6.690   2.368  18.672  0.00  0.00     0.180 C 
ATOM      4  C2' SAM d           7.561   3.489  18.115  0.00  0.00     0.198 C 
ATOM      5  C1' SAM d           8.970   2.834  18.110  0.00  0.00     0.262 C 
ENDROOT
BRANCH   1   6
ATOM      6  C5' SAM d           6.958  -0.131  18.314  0.00  0.00     0.097 C 
BRANCH   6   7
ATOM      7  SD  SAM d           6.185  -0.950  18.948  0.00  0.00    -0.221 SA
ATOM      8  CE  SAM d           5.751  -2.289  17.813  0.00  0.00     0.078 C 
BRANCH   7   9
ATOM      9  CG  SAM d           6.836  -1.789  20.427  0.00  0.00     0.065 C 
BRANCH   9  10
ATOM     10  CB  SAM d           6.868  -0.909  21.666  0.00  0.00     0.053 C 
BRANCH  10  11
ATOM     11  CA  SAM d           7.443  -1.475  23.102  0.00  0.00     0.284 C 
BRANCH  11  12
ATOM     12  N   SAM d           8.880  -1.740  22.986  0.00  0.00    -0.065 N 
ATOM     13  H1  SAM d           9.361  -0.886  22.753  0.00  0.00     0.275 HD
ATOM     14  H2  SAM d           9.038  -2.423  22.262  0.00  0.00     0.275 HD
ATOM     15  H3  SAM d           9.228  -2.093  23.863  0.00  0.00     0.275 HD
ENDBRANCH  11  12
BRANCH  11  16
ATOM     16  C   SAM d           6.685  -2.752  23.455  0.00  0.00     0.204 C 
ATOM     17  O   SAM d           7.064  -3.823  23.013  0.00  0.00    -0.646 OA
ATOM     18  OXT SAM d           5.511  -2.855  24.275  0.00  0.00    -0.646 OA
ENDBRANCH  11  16
ENDBRANCH  10  11
ENDBRANCH   9  10
ENDBRANCH   7   9
ENDBRANCH   6   7
ENDBRANCH   1   6
BRANCH   3  19
ATOM     19  O3' SAM d           6.392   2.669  20.079  0.00  0.00    -0.390 OA
ATOM     20  H16 SAM d           5.833   3.436  20.126  0.00  0.00     0.210 HD
ENDBRANCH   3  19
BRANCH   5  21
ATOM     21  N9  SAM d           9.717   3.488  17.145  0.00  0.00    -0.294 N 
ATOM     22  C8  SAM d           9.499   3.478  15.783  0.00  0.00     0.214 A 
ATOM     23  N7  SAM d          10.560   3.952  15.156  0.00  0.00    -0.236 NA
ATOM     24  C5  SAM d          11.480   4.288  16.048  0.00  0.00     0.149 A 
ATOM     25  C6  SAM d          12.779   4.831  15.901  0.00  0.00     0.155 A 
ATOM     26  C4  SAM d          10.991   4.023  17.273  0.00  0.00     0.167 A 
ATOM     27  N1  SAM d          13.522   5.085  17.017  0.00  0.00    -0.222 NA
ATOM     28  C2  SAM d          12.987   4.804  18.237  0.00  0.00     0.237 A 
ATOM     29  N3  SAM d          11.746   4.281  18.360  0.00  0.00    -0.222 NA
BRANCH  25  30
ATOM     30  N6  SAM d          13.291   5.097  14.730  0.00  0.00    -0.382 N 
ATOM     31  H21 SAM d          14.240   5.492  14.660  0.00  0.00     0.157 HD
ATOM     32  H22 SAM d          12.746   4.912  13.876  0.00  0.00     0.157 HD
ENDBRANCH  25  30
ENDBRANCH   5  21
BRANCH   4  33
ATOM     33  O2' SAM d           7.454   4.802  18.633  0.00  0.00    -0.388 OA
ATOM     34  H18 SAM d           7.660   4.793  19.560  0.00  0.00     0.210 HD
ENDBRANCH   4  33
TORSDOF 11
