REMARK  12 active torsions:
REMARK  status: ('A' for Active; 'I' for Inactive)
REMARK    1  A    between atoms: N7_7  and  C18_18 
REMARK    2  A    between atoms: C8_8  and  C11_11 
REMARK       I    between atoms: C11_11  and  N12_12 
REMARK    3  A    between atoms: N12_12  and  C13_13 
REMARK    4  A    between atoms: C18_18  and  C19_19 
REMARK    5  A    between atoms: C19_19  and  O21_21 
REMARK    6  A    between atoms: C19_19  and  C20_20 
REMARK    7  A    between atoms: C20_20  and  C23_23 
REMARK    8  A    between atoms: C20_20  and  N22_22 
REMARK       I    between atoms: N22_22  and  C24_24 
REMARK    9  A    between atoms: C23_23  and  S74_34 
REMARK   10  A    between atoms: C24_24  and  C29_26 
REMARK   11  A    between atoms: C33_30  and  O38_32 
REMARK   12  A    between atoms: S74_34  and  C77_35 
ROOT
ATOM      1  C19 MOL d           4.820  -0.446  15.641  0.00  0.00     0.167 C 
ENDROOT
BRANCH   1   2
ATOM      2  C18 MOL d           5.338  -1.596  16.518  0.00  0.00     0.269 C 
BRANCH   2   3
ATOM      3  N7  MOL d           4.738  -2.846  16.041  0.00  0.00    -0.055 N 
ATOM      4  C8  MOL d           5.578  -4.031  16.322  0.00  0.00     0.279 C 
ATOM      5  C9  MOL d           4.828  -5.323  15.889  0.00  0.00     0.048 C 
ATOM      6  C2  MOL d           3.461  -5.453  16.593  0.00  0.00    -0.006 C 
ATOM      7  C1  MOL d           2.645  -4.153  16.315  0.00  0.00     0.016 C 
ATOM      8  C3  MOL d           2.685  -6.686  16.166  0.00  0.00     0.005 C 
ATOM      9  C10 MOL d           3.483  -2.959  16.821  0.00  0.00     0.241 C 
ATOM     10  C6  MOL d           2.293  -4.012  14.826  0.00  0.00     0.007 C 
ATOM     11  C5  MOL d           1.434  -5.277  14.506  0.00  0.00     0.000 C 
ATOM     12  C4  MOL d           2.272  -6.548  14.711  0.00  0.00     0.000 C 
ATOM     13  H11 MOL d           4.551  -2.792  15.052  0.00  0.00     0.281 HD
BRANCH   4  14
ATOM     14  C11 MOL d           6.848  -3.955  15.521  0.00  0.00     0.249 C 
ATOM     15  O17 MOL d           6.830  -3.538  14.345  0.00  0.00    -0.271 OA
ATOM     16  N12 MOL d           7.886  -4.465  16.233  0.00  0.00    -0.351 N 
ATOM     17  H17 MOL d           7.689  -4.821  17.146  0.00  0.00     0.163 HD
BRANCH  16  18
ATOM     18  C13 MOL d           9.289  -4.534  15.760  0.00  0.00     0.022 C 
ATOM     19  C16 MOL d          10.121  -5.118  16.937  0.00  0.00     0.037 C 
ATOM     20  C15 MOL d           9.334  -5.409  14.470  0.00  0.00     0.037 C 
ATOM     21  C14 MOL d           9.834  -3.158  15.420  0.00  0.00     0.037 C 
ENDBRANCH  16  18
ENDBRANCH   4  14
ENDBRANCH   2   3
ENDBRANCH   1   2
BRANCH   1  22
ATOM     22  O21 MOL d           5.032   0.729  16.433  0.00  0.00    -0.392 OA
ATOM     23  H31 MOL d           4.733   1.492  15.952  0.00  0.00     0.210 HD
ENDBRANCH   1  22
BRANCH   1  24
ATOM     24  C20 MOL d           5.512  -0.302  14.283  0.00  0.00     0.124 C 
BRANCH  24  25
ATOM     25  C23 MOL d           6.932   0.183  14.310  0.00  0.00     0.107 C 
BRANCH  25  26
ATOM     26  S74 MOL d           7.747  -0.242  12.758  0.00  0.00    -0.128 SA
BRANCH  26  27
ATOM     27  C77 MOL d           7.704   1.203  11.820  0.00  0.00     0.000 A 
ATOM     28  C82 MOL d           7.436   2.428  12.412  0.00  0.00     0.018 A 
ATOM     29  C81 MOL d           7.443   3.580  11.630  0.00  0.00     0.001 A 
ATOM     30  C80 MOL d           7.714   3.451  10.264  0.00  0.00     0.000 A 
ATOM     31  C79 MOL d           7.972   2.204   9.686  0.00  0.00     0.001 A 
ATOM     32  C78 MOL d           7.968   1.062  10.464  0.00  0.00     0.018 A 
ENDBRANCH  26  27
ENDBRANCH  25  26
ENDBRANCH  24  25
BRANCH  24  33
ATOM     33  N22 MOL d           4.758   0.743  13.606  0.00  0.00    -0.349 N 
ATOM     34  C24 MOL d           3.879   0.393  12.645  0.00  0.00     0.252 C 
ATOM     35  O25 MOL d           3.710  -0.787  12.306  0.00  0.00    -0.268 OA
ATOM     36  H32 MOL d           4.890   1.704  13.849  0.00  0.00     0.163 HD
BRANCH  34  37
ATOM     37  C29 MOL d           3.198   1.488  11.992  0.00  0.00     0.040 A 
ATOM     38  C34 MOL d           1.806   1.460  11.829  0.00  0.00    -0.013 A 
ATOM     39  C33 MOL d           1.206   2.570  11.229  0.00  0.00     0.072 A 
ATOM     40  C39 MOL d           0.935   0.343  12.334  0.00  0.00     0.052 C 
ATOM     41  C32 MOL d           1.951   3.659  10.753  0.00  0.00     0.037 A 
ATOM     42  C31 MOL d           3.324   3.687  10.918  0.00  0.00     0.004 A 
ATOM     43  C30 MOL d           3.939   2.596  11.522  0.00  0.00     0.018 A 
BRANCH  39  44
ATOM     44  O38 MOL d          -0.164   2.619  11.201  0.00  0.00    -0.360 OA
ATOM     45  H38 MOL d          -0.516   1.811  11.555  0.00  0.00     0.217 HD
ENDBRANCH  39  44
ENDBRANCH  34  37
ENDBRANCH  24  33
ENDBRANCH   1  24
TORSDOF 12
