REMARK  8 active torsions:
REMARK  status: ('A' for Active; 'I' for Inactive)
REMARK       I    between atoms: N1_3  and  C20_36 
REMARK    1  A    between atoms: C28_44  and  N1_3 
REMARK    2  A    between atoms: O1_4  and  C9_24 
REMARK    3  A    between atoms: C20_36  and  O1_4 
REMARK    4  A    between atoms: N3_10  and  S1_5 
REMARK    5  A    between atoms: S1_5  and  C23_39 
REMARK    6  A    between atoms: C2_6  and  C4_12 
REMARK       I    between atoms: C4_12  and  N3_10 
REMARK       I    between atoms: C35_51  and  N4_13 
REMARK    7  A    between atoms: C30_46  and  O8_23 
REMARK    8  A    between atoms: O8_23  and  C35_51 
ROOT
ATOM      1  C1  TSV d         -12.503  -6.301  17.193  0.00  0.00     0.053 A 
ATOM      2  C2  TSV d         -12.145  -6.789  15.794  0.00  0.00     0.122 A 
ATOM      3  N2  TSV d         -12.421  -8.178  15.514  0.00  0.00    -0.341 N 
ATOM      4  C3  TSV d         -13.420  -5.958  16.021  0.00  0.00     0.048 A 
ATOM      5  O3  TSV d         -15.567  -8.472  15.333  0.00  0.00    -0.271 OA
ATOM      6  C5  TSV d         -13.481  -4.499  15.636  0.00  0.00    -0.023 C 
ATOM      7  N5  TSV d         -14.921  -9.933  13.779  0.00  0.00    -0.334 N 
ATOM      8  O7  TSV d         -13.136  -7.758  13.420  0.00  0.00    -0.271 OA
ATOM      9  C10 TSV d         -14.428  -4.026  14.800  0.00  0.00    -0.030 C 
ATOM     10  C11 TSV d         -12.997  -8.531  14.363  0.00  0.00     0.241 C 
ATOM     11  C13 TSV d         -15.501  -4.902  14.165  0.00  0.00     0.027 C 
ATOM     12  C15 TSV d         -13.540  -9.923  14.287  0.00  0.00     0.181 C 
ATOM     13  C18 TSV d         -15.380  -4.886  12.637  0.00  0.00     0.004 C 
ATOM     14  C19 TSV d         -16.530  -5.646  11.965  0.00  0.00     0.000 C 
ATOM     15  C22 TSV d         -16.450  -7.157  12.207  0.00  0.00     0.002 C 
ATOM     16  C25 TSV d         -17.472  -7.610  13.258  0.00  0.00     0.035 C 
ATOM     17  C27 TSV d         -12.799 -10.760  13.258  0.00  0.00     0.069 C 
ATOM     18  C28 TSV d         -17.214  -9.044  13.722  0.00  0.00     0.179 C 
ATOM     19  C30 TSV d         -13.847 -11.715  12.756  0.00  0.00     0.154 C 
ATOM     20  C33 TSV d         -15.838  -9.131  14.332  0.00  0.00     0.243 C 
ATOM     21  C34 TSV d         -15.107 -10.888  12.677  0.00  0.00     0.159 C 
ATOM     22  H4  TSV d         -12.180  -8.879  16.185  0.00  0.00     0.163 HD
ENDROOT
BRANCH  19  23
ATOM     23  O8  TSV d         -14.071 -12.711  13.744  0.00  0.00    -0.296 OA
BRANCH  23  24
ATOM     24  C35 TSV d         -13.142 -13.793  13.741  0.00  0.00     0.371 C 
ATOM     25  N4  TSV d         -13.250 -14.597  14.747  0.00  0.00    -0.278 N 
ATOM     26  C12 TSV d         -12.535 -15.872  14.821  0.00  0.00     0.114 A 
ATOM     27  C31 TSV d         -14.124 -14.347  15.893  0.00  0.00     0.117 A 
ATOM     28  C24 TSV d         -13.085 -16.459  16.070  0.00  0.00    -0.005 A 
ATOM     29  C16 TSV d         -12.773 -17.696  16.609  0.00  0.00     0.014 A 
ATOM     30  C26 TSV d         -13.960 -15.621  16.662  0.00  0.00     0.030 A 
ATOM     31  C14 TSV d         -13.405 -18.057  17.795  0.00  0.00     0.004 A 
ATOM     32  C17 TSV d         -14.320 -17.189  18.404  0.00  0.00     0.043 A 
ATOM     33  C21 TSV d         -14.598 -15.946  17.825  0.00  0.00     0.128 A 
ATOM     34  F1  TSV d         -15.459 -15.073  18.366  0.00  0.00    -0.205 F 
ATOM     35  O5  TSV d         -12.342 -13.950  12.839  0.00  0.00    -0.238 OA
ENDBRANCH  23  24
ENDBRANCH  19  23
BRANCH  18  36
ATOM     36  N1  TSV d         -18.184  -9.428  14.724  0.00  0.00    -0.324 N 
ATOM     37  C20 TSV d         -18.395 -10.694  15.044  0.00  0.00     0.362 C 
ATOM     38  O2  TSV d         -17.917 -11.656  14.449  0.00  0.00    -0.238 OA
ATOM     39  H3  TSV d         -18.710  -8.716  15.188  0.00  0.00     0.165 HD
BRANCH  37  40
ATOM     40  O1  TSV d         -19.250 -10.889  16.184  0.00  0.00    -0.294 OA
BRANCH  40  41
ATOM     41  C9  TSV d         -19.696 -12.174  16.622  0.00  0.00     0.061 C 
ATOM     42  C6  TSV d         -18.498 -13.039  16.999  0.00  0.00     0.046 C 
ATOM     43  C7  TSV d         -20.585 -11.942  17.837  0.00  0.00     0.046 C 
ATOM     44  C8  TSV d         -20.491 -12.834  15.494  0.00  0.00     0.046 C 
ENDBRANCH  40  41
ENDBRANCH  37  40
ENDBRANCH  18  36
BRANCH   2  45
ATOM     45  C4  TSV d         -10.928  -6.147  15.194  0.00  0.00     0.260 C 
ATOM     46  N3  TSV d         -10.141  -6.947  14.467  0.00  0.00    -0.252 N 
ATOM     47  H6  TSV d         -10.357  -7.916  14.345  0.00  0.00     0.181 HD
ATOM     48  O9  TSV d         -10.666  -4.966  15.403  0.00  0.00    -0.270 OA
BRANCH  46  49
ATOM     49  S1  TSV d          -8.846  -6.300  13.803  0.00  0.00     0.237 S 
ATOM     50  O4  TSV d          -7.907  -5.790  14.800  0.00  0.00    -0.205 OA
ATOM     51  O6  TSV d          -9.246  -5.280  12.823  0.00  0.00    -0.205 OA
BRANCH  49  52
ATOM     52  C23 TSV d          -8.120  -7.552  12.937  0.00  0.00     0.130 A 
ATOM     53  C29 TSV d          -6.675  -7.345  12.491  0.00  0.00     0.023 A 
ATOM     54  C32 TSV d          -6.985  -8.316  13.626  0.00  0.00     0.023 A 
ENDBRANCH  49  52
ENDBRANCH  46  49
ENDBRANCH   2  45
TORSDOF 8
