REMARK  4 active torsions:
REMARK  status: ('A' for Active; 'I' for Inactive)
REMARK    1  A    between atoms: C5_13  and  N3_15 
REMARK    2  A    between atoms: N3_15  and  C6_16 
REMARK    3  A    between atoms: C6_16  and  C7_17 
REMARK    4  A    between atoms: C7_17  and  N4_18 
ROOT
ATOM      1  O   MOL d         109.046  18.454  24.130  0.00  0.00    -0.265 OA
ATOM      2  C1  MOL d         107.963  18.105  23.667  0.00  0.00     0.280 A 
ATOM      3  N1  MOL d         106.883  17.785  24.480  0.00  0.00    -0.205 NA
ATOM      4  C2  MOL d         107.699  18.035  22.228  0.00  0.00     0.063 A 
ATOM      5  C15 MOL d         106.402  17.700  21.787  0.00  0.00     0.051 A 
ATOM      6  N6  MOL d         105.417  17.391  22.721  0.00  0.00    -0.350 N 
ATOM      7  C   MOL d         105.660  17.437  24.043  0.00  0.00     0.211 A 
ATOM      8  C14 MOL d         106.095  17.745  20.423  0.00  0.00     0.063 A 
ATOM      9  C13 MOL d         107.075  18.125  19.502  0.00  0.00     0.081 A 
ATOM     10  C4  MOL d         108.361  18.424  19.950  0.00  0.00     0.104 A 
ATOM     11  C3  MOL d         108.671  18.381  21.292  0.00  0.00     0.054 A 
ATOM     12  N5  MOL d         106.999  18.316  18.124  0.00  0.00    -0.188 N 
ATOM     13  C5  MOL d         108.215  18.707  17.782  0.00  0.00     0.701 A 
ATOM     14  N2  MOL d         109.075  18.780  18.822  0.00  0.00    -0.063 NA
ATOM     15  H   MOL d         104.479  17.121  22.392  0.00  0.00     0.166 HD
ATOM     16  H   MOL d         106.182  18.183  17.511  0.00  0.00     0.184 HD
ENDROOT
BRANCH  13  17
ATOM     17  N3  MOL d         108.621  19.012  16.547  0.00  0.00    -0.223 N 
ATOM     18  H   MOL d         109.607  19.270  16.397  0.00  0.00     0.177 HD
BRANCH  17  19
ATOM     19  C6  MOL d         107.721  18.992  15.408  0.00  0.00     0.166 C 
BRANCH  19  20
ATOM     20  C7  MOL d         108.455  19.121  14.092  0.00  0.00     0.255 C 
BRANCH  20  21
ATOM     21  N4  MOL d         107.539  19.094  12.908  0.00  0.00    -0.070 N 
ATOM     22  C12 MOL d         108.286  18.764  11.658  0.00  0.00     0.235 C 
ATOM     23  C11 MOL d         107.344  18.661  10.483  0.00  0.00     0.028 C 
ATOM     24  C10 MOL d         106.557  19.942  10.296  0.00  0.00     0.003 C 
ATOM     25  C9  MOL d         105.854  20.332  11.581  0.00  0.00     0.028 C 
ATOM     26  C8  MOL d         106.818  20.393  12.745  0.00  0.00     0.235 C 
ATOM     27  H   MOL d         106.853  18.372  13.064  0.00  0.00     0.279 HD
ENDBRANCH  20  21
ENDBRANCH  19  20
ENDBRANCH  17  19
ENDBRANCH  13  17
TORSDOF 4
