REMARK  6 active torsions:
REMARK  status: ('A' for Active; 'I' for Inactive)
REMARK    1  A    between atoms: C8_4  and  N11_23 
REMARK    2  A    between atoms: C13_6  and  C14_15 
REMARK    3  A    between atoms: C12_17  and  C13_6 
REMARK    4  A    between atoms: C17_7  and  C18_13 
REMARK    5  A    between atoms: N15_14  and  C17_7 
REMARK       I    between atoms: C14_15  and  N15_14 
REMARK    6  A    between atoms: C12_17  and  C9_18 
ROOT
ATOM      1  C4  MOL d          68.305  49.139  11.269  0.00  0.00     0.014 A 
ATOM      2  C5  MOL d          67.654  48.994  10.048  0.00  0.00    -0.007 A 
ATOM      3  C6  MOL d          67.887  49.906   9.028  0.00  0.00     0.069 A 
ATOM      4  C8  MOL d          66.411  48.767   7.613  0.00  0.00     0.128 A 
ATOM      5  C10 MOL d          66.770  47.943   9.838  0.00  0.00     0.024 A 
ATOM      6  C9  MOL d          66.138  47.821   8.604  0.00  0.00    -0.011 A 
ATOM      7  C1  MOL d          69.187  50.196  11.465  0.00  0.00     0.001 A 
ATOM      8  C2  MOL d          69.424  51.110  10.448  0.00  0.00     0.002 A 
ATOM      9  C3  MOL d          68.770  50.960   9.231  0.00  0.00     0.032 A 
ATOM     10  N7  MOL d          67.269  49.772   7.846  0.00  0.00    -0.231 NA
ENDROOT
BRANCH   6  11
ATOM     11  C12 MOL d          65.174  46.656   8.416  0.00  0.00     0.052 C 
BRANCH  11  12
ATOM     12  C13 MOL d          63.744  47.192   8.383  0.00  0.00     0.107 C 
BRANCH  12  13
ATOM     13  C14 MOL d          63.241  47.502   9.797  0.00  0.00     0.217 C 
ATOM     14  N15 MOL d          62.933  48.767  10.052  0.00  0.00    -0.361 N 
ATOM     15  H18 MOL d          63.060  49.469   9.351  0.00  0.00     0.162 HD
ATOM     16  O16 MOL d          63.132  46.610  10.632  0.00  0.00    -0.274 OA
BRANCH  14  17
ATOM     17  C17 MOL d          62.403  49.125  11.375  0.00  0.00     0.127 C 
BRANCH  17  18
ATOM     18  C18 MOL d          63.127  50.311  11.994  0.00  0.00     0.003 C 
ATOM     19  C19 MOL d          64.467  49.844  12.555  0.00  0.00     0.006 C 
ATOM     20  C20 MOL d          65.177  51.019  13.223  0.00  0.00     0.000 C 
ATOM     21  C21 MOL d          65.401  52.157  12.226  0.00  0.00     0.000 C 
ATOM     22  C22 MOL d          64.093  52.583  11.569  0.00  0.00     0.000 C 
ATOM     23  C23 MOL d          63.363  51.388  10.943  0.00  0.00     0.006 C 
ENDBRANCH  17  18
ENDBRANCH  14  17
ENDBRANCH  12  13
ENDBRANCH  11  12
ENDBRANCH   6  11
BRANCH   4  24
ATOM     24  N11 MOL d          65.822  48.670   6.418  0.00  0.00    -0.384 N 
ATOM     25  H24 MOL d          66.023  49.367   5.687  0.00  0.00     0.157 HD
ATOM     26  H25 MOL d          65.167  47.898   6.228  0.00  0.00     0.157 HD
ENDBRANCH   4  24
TORSDOF 6
