REMARK  7 active torsions:
REMARK  status: ('A' for Active; 'I' for Inactive)
REMARK    1  A    between atoms: C1_1  and  C10_7 
REMARK    2  A    between atoms: C10_7  and  N11_8 
REMARK    3  A    between atoms: C14_11  and  C32_21 
REMARK    4  A    between atoms: C34_22  and  C41_27 
REMARK    5  A    between atoms: C36_24  and  O59_38 
REMARK    6  A    between atoms: C37_25  and  O54_36 
REMARK    7  A    between atoms: C44_30  and  C51_33 
ROOT
ATOM      1  C1  1GE d           9.449  34.227  28.598  0.00  0.00     0.008 A 
ATOM      2  C2  1GE d           9.813  33.870  27.280  0.00  0.00     0.017 A 
ATOM      3  C3  1GE d           9.248  34.545  26.190  0.00  0.00     0.031 A 
ATOM      4  C4  1GE d           8.318  35.590  26.391  0.00  0.00     0.035 A 
ATOM      5  C5  1GE d           7.946  35.953  27.713  0.00  0.00    -0.022 A 
ATOM      6  C6  1GE d           8.535  35.281  28.797  0.00  0.00     0.025 A 
ATOM      7  N13 1GE d           7.736  36.177  25.293  0.00  0.00    -0.380 N 
ATOM      8  C14 1GE d           6.915  37.382  25.400  0.00  0.00     0.121 C 
ATOM      9  C15 1GE d           6.101  37.507  26.718  0.00  0.00     0.030 C 
ATOM     10  C16 1GE d           6.851  36.986  27.928  0.00  0.00     0.061 C 
ATOM     11  C17 1GE d           5.310  38.749  27.059  0.00  0.00     0.047 C 
ATOM     12  C18 1GE d           6.380  39.319  27.945  0.00  0.00    -0.051 A 
ATOM     13  C19 1GE d           7.253  38.341  28.464  0.00  0.00    -0.043 A 
ATOM     14  C24 1GE d           6.560  40.685  28.254  0.00  0.00     0.007 A 
ATOM     15  C25 1GE d           7.624  41.046  29.105  0.00  0.00     0.001 A 
ATOM     16  C26 1GE d           8.496  40.072  29.636  0.00  0.00     0.001 A 
ATOM     17  C27 1GE d           8.317  38.709  29.316  0.00  0.00     0.008 A 
ATOM     18  H8  1GE d           7.883  35.755  24.365  0.00  0.00     0.160 HD
ENDROOT
BRANCH   8  19
ATOM     19  C32 1GE d           5.919  37.504  24.252  0.00  0.00    -0.021 A 
ATOM     20  C34 1GE d           5.787  38.735  23.542  0.00  0.00    -0.015 A 
ATOM     21  C35 1GE d           4.764  38.810  22.589  0.00  0.00     0.052 A 
ATOM     22  C36 1GE d           3.937  37.712  22.286  0.00  0.00     0.099 A 
ATOM     23  C37 1GE d           4.085  36.462  22.930  0.00  0.00     0.101 A 
ATOM     24  C38 1GE d           5.088  36.393  23.935  0.00  0.00     0.049 A 
BRANCH  20  25
ATOM     25  C41 1GE d           6.697  39.905  23.667  0.00  0.00    -0.025 A 
ATOM     26  C42 1GE d           6.276  41.167  24.124  0.00  0.00     0.013 A 
ATOM     27  C43 1GE d           7.178  42.267  24.180  0.00  0.00     0.019 A 
ATOM     28  C44 1GE d           8.534  42.131  23.780  0.00  0.00     0.040 A 
ATOM     29  C45 1GE d           8.953  40.860  23.333  0.00  0.00     0.019 A 
ATOM     30  C46 1GE d           8.042  39.771  23.285  0.00  0.00     0.013 A 
BRANCH  28  31
ATOM     31  C51 1GE d           9.480  43.250  23.841  0.00  0.00     0.209 C 
ATOM     32  O52 1GE d           9.062  44.298  24.589  0.00  0.00    -0.644 OA
ATOM     33  O53 1GE d          10.535  43.199  23.277  0.00  0.00    -0.644 OA
ENDBRANCH  28  31
ENDBRANCH  20  25
BRANCH  22  34
ATOM     34  O59 1GE d           2.975  37.864  21.309  0.00  0.00    -0.358 OA
ATOM     35  H27 1GE d           3.001  38.753  20.976  0.00  0.00     0.217 HD
ENDBRANCH  22  34
BRANCH  23  36
ATOM     36  O54 1GE d           3.267  35.426  22.501  0.00  0.00    -0.353 OA
ATOM     37  C55 1GE d           3.397  34.184  23.171  0.00  0.00     0.210 C 
ENDBRANCH  23  36
ENDBRANCH   8  19
BRANCH   1  38
ATOM     38  C10 1GE d           9.968  33.493  29.761  0.00  0.00     0.102 C 
ATOM     39  N12 1GE d           9.882  34.084  30.984  0.00  0.00    -0.385 N 
ATOM     40  H6  1GE d           9.467  35.022  31.075  0.00  0.00     0.157 HD
ATOM     41  H7  1GE d          10.232  33.593  31.819  0.00  0.00     0.157 HD
BRANCH  38  42
ATOM     42  N11 1GE d          10.508  32.276  29.651  0.00  0.00    -0.385 N 
ATOM     43  H4  1GE d          10.861  31.792  30.489  0.00  0.00     0.157 HD
ATOM     44  H5  1GE d          10.571  31.822  28.729  0.00  0.00     0.157 HD
ENDBRANCH  38  42
ENDBRANCH   1  38
TORSDOF 7
