REMARK  6 active torsions:
REMARK  status: ('A' for Active; 'I' for Inactive)
REMARK    1  A    between atoms: C3_3  and  O3_31 
REMARK    2  A    between atoms: C4_4  and  O4_32 
REMARK    3  A    between atoms: C5_5  and  O5_33 
REMARK    4  A    between atoms: C11_11  and  O11_35 
REMARK    5  A    between atoms: C12_12  and  O12_36 
REMARK    6  A    between atoms: C17_17  and  C25_24 
ROOT
ATOM      1  C1  S1A d          12.459  27.209 115.547  0.00  0.00     0.268 C 
ATOM      2  C2  S1A d          13.585  27.685 114.635  0.00  0.00     0.146 C 
ATOM      3  C3  S1A d          14.714  26.627 114.679  0.00  0.00     0.203 C 
ATOM      4  C4  S1A d          15.869  27.047 113.713  0.00  0.00     0.212 C 
ATOM      5  C5  S1A d          16.902  25.885 113.493  0.00  0.00     0.158 C 
ATOM      6  C6  S1A d          16.184  24.549 113.242  0.00  0.00     0.043 C 
ATOM      7  C7  S1A d          15.124  24.323 114.333  0.00  0.00     0.138 C 
ATOM      8  C8  S1A d          14.396  22.984 114.109  0.00  0.00     0.033 C 
ATOM      9  C9  S1A d          13.296  22.805 115.188  0.00  0.00    -0.021 C 
ATOM     10  C10 S1A d          13.511  21.997 116.299  0.00  0.00     0.004 C 
ATOM     11  C11 S1A d          12.439  21.912 117.408  0.00  0.00     0.172 C 
ATOM     12  C12 S1A d          13.068  22.216 118.779  0.00  0.00     0.153 C 
ATOM     13  C13 S1A d          13.580  23.661 118.834  0.00  0.00     0.035 C 
ATOM     14  C14 S1A d          12.486  24.704 118.659  0.00  0.00     0.003 C 
ATOM     15  C15 S1A d          12.967  26.088 119.019  0.00  0.00     0.003 C 
ATOM     16  C16 S1A d          11.825  27.092 118.959  0.00  0.00     0.037 C 
ATOM     17  C17 S1A d          11.331  27.403 117.544  0.00  0.00     0.165 C 
ATOM     18  C19 S1A d          14.095  29.043 115.094  0.00  0.00     0.026 C 
ATOM     19  C21 S1A d          15.546  24.541 111.850  0.00  0.00     0.015 C 
ATOM     20  C22 S1A d          15.365  21.807 114.117  0.00  0.00     0.017 C 
ATOM     21  O1  S1A d          11.575  26.345 115.344  0.00  0.00    -0.265 OA
ATOM     22  O7  S1A d          14.157  25.374 114.269  0.00  0.00    -0.346 OA
ATOM     23  O18 S1A d          12.448  27.797 116.731  0.00  0.00    -0.311 OA
ENDROOT
BRANCH  17  24
ATOM     24  C25 S1A d          10.324  28.563 117.626  0.00  0.00    -0.029 A 
ATOM     25  C26 S1A d          10.793  29.872 117.842  0.00  0.00     0.010 A 
ATOM     26  C27 S1A d           9.901  30.897 118.143  0.00  0.00     0.001 A 
ATOM     27  C28 S1A d           8.538  30.623 118.231  0.00  0.00     0.000 A 
ATOM     28  C29 S1A d           8.069  29.323 118.018  0.00  0.00     0.001 A 
ATOM     29  C30 S1A d           8.963  28.294 117.718  0.00  0.00     0.010 A 
ENDBRANCH  17  24
BRANCH   3  30
ATOM     30  O3  S1A d          15.216  26.526 116.016  0.00  0.00    -0.362 OA
ATOM     31  H43 S1A d          15.890  25.858 116.050  0.00  0.00     0.213 HD
ENDBRANCH   3  30
BRANCH  12  32
ATOM     32  O12 S1A d          14.142  21.300 119.025  0.00  0.00    -0.388 OA
ATOM     33  C24 S1A d          14.392  21.194 120.448  0.00  0.00     0.202 C 
ENDBRANCH  12  32
BRANCH   4  34
ATOM     34  O4  S1A d          15.315  27.445 112.454  0.00  0.00    -0.383 OA
ATOM     35  C20 S1A d          16.077  28.549 111.900  0.00  0.00     0.202 C 
ENDBRANCH   4  34
BRANCH  11  36
ATOM     36  O11 S1A d          11.863  20.600 117.435  0.00  0.00    -0.384 OA
ATOM     37  C23 S1A d          10.878  20.462 116.377  0.00  0.00     0.202 C 
ENDBRANCH  11  36
BRANCH   5  38
ATOM     38  O5  S1A d          17.764  25.760 114.630  0.00  0.00    -0.392 OA
ATOM     39  H44 S1A d          17.248  25.530 115.394  0.00  0.00     0.210 HD
ENDBRANCH   5  38
TORSDOF 6
