REMARK  4 active torsions:
REMARK  status: ('A' for Active; 'I' for Inactive)
REMARK    1  A    between atoms: O2_1  and  C4_2 
REMARK    2  A    between atoms: C3_3  and  O1_4 
REMARK    3  A    between atoms: C5_7  and  C6_8 
REMARK    4  A    between atoms: C6_8  and  O_9 
ROOT
ATOM      1  C4  LDU d          78.942  88.854  20.348  0.00  0.00     0.181 C 
ATOM      2  C3  LDU d          77.774  89.807  20.560  0.00  0.00     0.174 C 
ATOM      3  C2  LDU d          76.869  89.477  19.388  0.00  0.00     0.267 C 
ATOM      4  N   LDU d          77.817  89.157  18.286  0.00  0.00    -0.064 N 
ATOM      5  C5  LDU d          79.178  89.094  18.855  0.00  0.00     0.240 C 
ATOM      6  H7  LDU d          77.775  89.875  17.580  0.00  0.00     0.277 HD
ATOM      7  H8  LDU d          77.577  88.268  17.876  0.00  0.00     0.277 HD
ENDROOT
BRANCH   5   8
ATOM      8  C6  LDU d          79.993  88.001  18.195  0.00  0.00     0.199 C 
BRANCH   8   9
ATOM      9  O   LDU d          80.439  88.416  16.914  0.00  0.00    -0.399 OA
ATOM     10  H12 LDU d          80.979  89.192  17.004  0.00  0.00     0.209 HD
ENDBRANCH   8   9
ENDBRANCH   5   8
BRANCH   1  11
ATOM     11  O2  LDU d          78.540  87.519  20.600  0.00  0.00    -0.391 OA
ATOM     12  H1  LDU d          78.237  87.445  21.497  0.00  0.00     0.210 HD
ENDBRANCH   1  11
BRANCH   2  13
ATOM     13  O1  LDU d          77.125  89.586  21.813  0.00  0.00    -0.391 OA
ATOM     14  H4  LDU d          77.748  89.717  22.518  0.00  0.00     0.210 HD
ENDBRANCH   2  13
TORSDOF 4
