REMARK  6 active torsions:
REMARK  status: ('A' for Active; 'I' for Inactive)
REMARK    1  A    between atoms: C2_2  and  C4_4 
REMARK    2  A    between atoms: C6_6  and  C7_7 
REMARK       I    between atoms: C7_7  and  N9_9 
REMARK    3  A    between atoms: C14_14  and  C15_15 
REMARK    4  A    between atoms: C15_15  and  N16_16 
REMARK    5  A    between atoms: C28_26  and  O29_27 
REMARK    6  A    between atoms: C31_29  and  O32_30 
ROOT
ATOM      1  C7  XJX d          15.763  -4.569   8.623  0.00  0.00     0.257 C 
ATOM      2  O8  XJX d          16.684  -4.985   9.297  0.00  0.00    -0.267 OA
ATOM      3  N9  XJX d          15.793  -4.597   7.283  0.00  0.00    -0.339 N 
ATOM      4  C10 XJX d          16.882  -5.218   6.515  0.00  0.00     0.165 C 
ATOM      5  C11 XJX d          16.266  -5.375   5.153  0.00  0.00    -0.032 A 
ATOM      6  C12 XJX d          16.789  -5.984   4.019  0.00  0.00     0.010 A 
ATOM      7  C13 XJX d          16.053  -6.015   2.848  0.00  0.00     0.009 A 
ATOM      8  C14 XJX d          14.788  -5.437   2.793  0.00  0.00    -0.032 A 
ATOM      9  C25 XJX d          14.282  -4.834   3.941  0.00  0.00     0.018 A 
ATOM     10  C26 XJX d          15.019  -4.810   5.112  0.00  0.00    -0.032 A 
ATOM     11  C27 XJX d          14.667  -4.183   6.433  0.00  0.00     0.165 C 
ENDROOT
BRANCH   1  12
ATOM     12  C6  XJX d          14.593  -3.928   9.284  0.00  0.00     0.066 A 
ATOM     13  C5  XJX d          14.378  -2.556   9.133  0.00  0.00     0.030 A 
ATOM     14  C4  XJX d          13.280  -1.925   9.716  0.00  0.00    -0.020 A 
ATOM     15  C31 XJX d          12.417  -2.711  10.512  0.00  0.00     0.075 A 
ATOM     16  C30 XJX d          12.626  -4.073  10.659  0.00  0.00     0.074 A 
ATOM     17  C28 XJX d          13.715  -4.685  10.039  0.00  0.00     0.084 A 
BRANCH  14  18
ATOM     18  C2  XJX d          13.097  -0.409   9.627  0.00  0.00     0.013 C 
ATOM     19  C1  XJX d          13.790   0.293  10.800  0.00  0.00     0.015 C 
ATOM     20  C3  XJX d          13.565   0.183   8.302  0.00  0.00     0.015 C 
ENDBRANCH  14  18
BRANCH  15  21
ATOM     21  O32 XJX d          11.320  -2.163  11.117  0.00  0.00    -0.360 OA
ATOM     22  H33 XJX d          11.295  -1.230  10.939  0.00  0.00     0.217 HD
ENDBRANCH  15  21
BRANCH  17  23
ATOM     23  O29 XJX d          13.937  -6.030  10.185  0.00  0.00    -0.360 OA
ATOM     24  H31 XJX d          14.781  -6.167  10.599  0.00  0.00     0.217 HD
ENDBRANCH  17  23
ENDBRANCH   1  12
BRANCH   8  25
ATOM     25  C15 XJX d          13.987  -5.448   1.514  0.00  0.00     0.273 C 
BRANCH  25  26
ATOM     26  N16 XJX d          14.297  -4.266   0.628  0.00  0.00    -0.064 N 
ATOM     27  C18 XJX d          14.308  -2.986   1.412  0.00  0.00     0.263 C 
ATOM     28  C19 XJX d          14.638  -1.795   0.524  0.00  0.00     0.262 C 
ATOM     29  N20 XJX d          15.958  -2.012  -0.141  0.00  0.00    -0.072 N 
ATOM     30  C22 XJX d          16.369  -0.825  -0.948  0.00  0.00     0.269 C 
ATOM     31  C23 XJX d          15.912  -3.253  -0.973  0.00  0.00     0.262 C 
ATOM     32  H20 XJX d          16.650  -2.146   0.579  0.00  0.00     0.279 HD
ATOM     33  C24 XJX d          15.599  -4.453  -0.093  0.00  0.00     0.263 C 
ATOM     34  H15 XJX d          13.566  -4.200  -0.063  0.00  0.00     0.280 HD
ENDBRANCH  25  26
ENDBRANCH   8  25
TORSDOF 6
