3wqm_ligand

Created by X-TOOL on Sat Nov 28 16:04:27 2015
 44 47  0  0  0  0  0  0  0  0999 V2000
   -4.7870  -15.7090   25.8500  C 0  0  0  1  0  3
   -4.4910  -15.5170   27.2290  C 0  0  0  2  0  3
   -4.8040  -16.5320   28.1710  C 0  0  0  2  0  3
   -5.4120  -17.7410   27.7390  C 0  0  0  2  0  3
   -5.7070  -17.9340   26.3620  C 0  0  0  2  0  3
   -5.3940  -16.9180   25.4220  C 0  0  0  1  0  3
   -5.5650  -16.8450   24.0700  O 0  0  0  1  0  2
   -5.0980  -15.6380   23.6060  C 0  0  0  1  0  3
   -4.6050  -14.9110   24.7230  C 0  0  0  1  0  3
   -4.0550  -13.6150   24.5420  C 0  0  0  2  0  3
   -4.0020  -13.0460   23.2500  C 0  0  0  2  0  3
   -4.4870  -13.7610   22.1300  C 0  0  0  2  0  3
   -5.0440  -15.0690   22.2810  C 0  0  0  1  0  3
   -5.5240  -15.7960   21.1380  C 0  0  0  1  0  3
   -6.5290  -16.8140   21.2520  C 0  0  0  2  0  3
   -4.9860  -15.5180   19.8440  C 0  0  0  2  0  3
   -5.4360  -16.2290   18.7100  C 0  0  0  2  0  3
   -6.4220  -17.2300   18.8340  C 0  0  0  2  0  3
   -6.9820  -17.5330   20.1090  C 0  0  0  1  0  3
   -8.0620  -18.6300   20.2850  C 0  0  0  3  0  4
   -9.2110  -18.7070   19.2430  C 0  0  0  1  0  4
  -10.3520  -20.1370   19.6880  P 0  0  0  1  0  4
  -10.4530  -20.2290   21.2960  O 0  0  0  1  0  1
  -11.8210  -19.7680   19.1660  O 0  0  0  1  0  1
   -9.8890  -21.4060   19.0820  O 0  0  0  1  0  1
  -10.2840  -17.1560   19.1510  P 0  0  0  1  0  4
  -11.3610  -17.2980   20.3540  O 0  0  0  1  0  1
   -9.4090  -15.8480   19.4730  O 0  0  0  1  0  1
  -10.9380  -17.0890   17.8230  O 0  0  0  1  0  1
   -8.6640  -18.9570   17.9400  O 0  0  0  2  0  2
   -4.0263  -14.5953   27.5601  H 0  0  0  1  0  1
   -4.5788  -16.3843   29.2210  H 0  0  0  1  0  1
   -5.6507  -18.5156   28.4588  H 0  0  0  1  0  1
   -6.1705  -18.8561   26.0303  H 0  0  0  1  0  1
   -3.6761  -13.0625   25.3942  H 0  0  0  1  0  1
   -3.5865  -12.0538   23.1159  H 0  0  0  1  0  1
   -4.4357  -13.3116   21.1449  H 0  0  0  1  0  1
   -6.9507  -17.0397   22.2248  H 0  0  0  1  0  1
   -4.2252  -14.7541   19.7317  H 0  0  0  1  0  1
   -5.0197  -16.0034   17.7349  H 0  0  0  1  0  1
   -6.7552  -17.7711   17.9558  H 0  0  0  1  0  1
   -8.5260  -18.4750   21.2702  H 0  0  0  1  0  1
   -7.5451  -19.6009   20.2718  H 0  0  0  1  0  1
   -9.3705  -19.0200   17.3080  H 0  0  0  1  0  1
  1  2  4  0  0  1
  1  6  4  0  0  1
  1  9  1  0  0  1
  2  3  4  0  0  1
  3  4  4  0  0  1
  4  5  4  0  0  1
  5  6  4  0  0  1
  6  7  1  0  0  1
  7  8  1  0  0  1
  8  9  4  0  0  1
  8 13  4  0  0  1
  9 10  4  0  0  1
 10 11  4  0  0  1
 11 12  4  0  0  1
 12 13  4  0  0  1
 13 14  1  0  0  2
 14 15  4  0  0  1
 14 16  4  0  0  1
 15 19  4  0  0  1
 16 17  4  0  0  1
 17 18  4  0  0  1
 18 19  4  0  0  1
 19 20  1  0  0  2
 20 21  1  0  0  2
 21 22  1  0  0  2
 21 26  1  0  0  2
 21 30  1  0  0  2
 22 23  2  0  0  2
 22 24  2  0  0  2
 22 25  2  0  0  2
 26 27  2  0  0  2
 26 28  2  0  0  2
 26 29  2  0  0  2
  2 31  1  0  0  2
  3 32  1  0  0  2
  4 33  1  0  0  2
  5 34  1  0  0  2
 10 35  1  0  0  2
 11 36  1  0  0  2
 12 37  1  0  0  2
 15 38  1  0  0  2
 16 39  1  0  0  2
 17 40  1  0  0  2
 18 41  1  0  0  2
 20 42  1  0  0  2
 20 43  1  0  0  2
 30 44  1  0  0  2
M  END
> <MOLECULAR_FORMULA>
C20H14O8P2

> <MOLECULAR_WEIGHT>
444.1

> <NUM_HB_ATOMS>
7  

> <NUM_ROTOR>
2  

> <XLOGP2>
2.65 

$$$$
