REMARK  21 active torsions:
REMARK  status: ('A' for Active; 'I' for Inactive)
REMARK       I    between atoms: C1_1  and  N3_3 
REMARK       I    between atoms: N21_12  and  C1_1 
REMARK    1  A    between atoms: N3_3  and  C5_5 
REMARK    2  A    between atoms: C5_5  and  C6_6 
REMARK    3  A    between atoms: C22_13  and  N21_12 
REMARK    4  A    between atoms: C23_14  and  C22_13 
REMARK    5  A    between atoms: C22_13  and  C25_16 
REMARK       I    between atoms: N37_19  and  C23_14 
REMARK    6  A    between atoms: C38_20  and  N37_19 
REMARK    7  A    between atoms: C38_20  and  C39_21 
REMARK    8  A    between atoms: C46_28  and  C38_20 
REMARK    9  A    between atoms: C39_21  and  C40_22 
REMARK   10  A    between atoms: C46_28  and  O47_29 
REMARK   11  A    between atoms: C49_31  and  C46_28 
REMARK   12  A    between atoms: C49_31  and  O48_30 
REMARK   13  A    between atoms: C51_33  and  C49_31 
REMARK       I    between atoms: N50_32  and  C83_43 
REMARK   14  A    between atoms: C51_33  and  N50_32 
REMARK   15  A    between atoms: C51_33  and  C52_34 
REMARK   16  A    between atoms: C52_34  and  C53_35 
REMARK   17  A    between atoms: C82_42  and  N81_41 
REMARK       I    between atoms: N81_41  and  C97_48 
REMARK   18  A    between atoms: C83_43  and  C82_42 
REMARK   19  A    between atoms: C82_42  and  C85_45 
REMARK       I    between atoms: C97_48  and  N99_50 
REMARK   20  A    between atoms: N99_50  and  C3_52 
REMARK   21  A    between atoms: C3_52  and  C8_53 
ROOT
ATOM      1  C46 A77 d           6.014   0.288  15.165  0.00  0.00     0.171 C 
ENDROOT
BRANCH   1   2
ATOM      2  C38 A77 d           6.042   0.414  13.690  0.00  0.00     0.120 C 
BRANCH   2   3
ATOM      3  N37 A77 d           4.841   1.118  13.286  0.00  0.00    -0.352 N 
ATOM      4  C23 A77 d           3.902   0.557  12.542  0.00  0.00     0.241 C 
ATOM      5  O24 A77 d           3.950  -0.613  12.190  0.00  0.00    -0.271 OA
ATOM      6  H19 A77 d           4.717   2.065  13.581  0.00  0.00     0.163 HD
BRANCH   4   7
ATOM      7  C22 A77 d           2.763   1.493  12.158  0.00  0.00     0.181 C 
BRANCH   7   8
ATOM      8  N21 A77 d           3.175   2.187  10.977  0.00  0.00    -0.329 N 
ATOM      9  C1  A77 d           3.510   3.480  10.912  0.00  0.00     0.319 C 
ATOM     10  O2  A77 d           3.401   4.220  11.874  0.00  0.00    -0.247 OA
ATOM     11  N3  A77 d           3.977   3.948   9.734  0.00  0.00    -0.333 N 
ATOM     12  C4  A77 d           4.257   3.087   8.579  0.00  0.00     0.154 C 
ATOM     13  H10 A77 d           3.216   1.661  10.128  0.00  0.00     0.165 HD
BRANCH  11  14
ATOM     14  C5  A77 d           4.245   5.340   9.555  0.00  0.00     0.186 C 
BRANCH  14  15
ATOM     15  C6  A77 d           5.726   5.554   9.592  0.00  0.00     0.052 A 
ATOM     16  C7  A77 d           6.471   5.604   8.426  0.00  0.00     0.029 A 
ATOM     17  C9  A77 d           7.818   5.862   8.519  0.00  0.00     0.003 A 
ATOM     18  C11 A77 d           8.367   6.045   9.765  0.00  0.00     0.019 A 
ATOM     19  C10 A77 d           7.530   5.955  10.853  0.00  0.00     0.117 A 
ATOM     20  N8  A77 d           6.233   5.721  10.790  0.00  0.00    -0.264 NA
ENDBRANCH  14  15
ENDBRANCH  11  14
ENDBRANCH   7   8
BRANCH   7  21
ATOM     21  C25 A77 d           1.445   0.750  11.905  0.00  0.00     0.009 C 
ATOM     22  C26 A77 d           0.935  -0.052  13.128  0.00  0.00     0.012 C 
ATOM     23  C27 A77 d           0.358   1.699  11.398  0.00  0.00     0.012 C 
ENDBRANCH   7  21
ENDBRANCH   4   7
ENDBRANCH   2   3
BRANCH   2  24
ATOM     24  C39 A77 d           7.275   1.258  13.349  0.00  0.00     0.066 C 
BRANCH  24  25
ATOM     25  C40 A77 d           7.612   1.213  11.899  0.00  0.00    -0.056 A 
ATOM     26  C41 A77 d           7.232   2.239  11.057  0.00  0.00     0.007 A 
ATOM     27  C42 A77 d           7.510   2.164   9.719  0.00  0.00     0.001 A 
ATOM     28  C43 A77 d           8.160   1.060   9.231  0.00  0.00     0.000 A 
ATOM     29  C44 A77 d           8.558   0.040  10.074  0.00  0.00     0.001 A 
ATOM     30  C45 A77 d           8.289   0.115  11.413  0.00  0.00     0.007 A 
ENDBRANCH  24  25
ENDBRANCH   2  24
ENDBRANCH   1   2
BRANCH   1  31
ATOM     31  O47 A77 d           7.210  -0.364  15.546  0.00  0.00    -0.391 OA
ATOM     32  H29 A77 d           7.228  -0.463  16.491  0.00  0.00     0.210 HD
ENDBRANCH   1  31
BRANCH   1  33
ATOM     33  C49 A77 d           4.823  -0.366  15.834  0.00  0.00     0.171 C 
BRANCH  33  34
ATOM     34  C51 A77 d           4.646  -1.862  15.643  0.00  0.00     0.120 C 
BRANCH  34  35
ATOM     35  C52 A77 d           3.280  -2.233  16.247  0.00  0.00     0.066 C 
BRANCH  35  36
ATOM     36  C53 A77 d           2.931  -3.721  16.186  0.00  0.00    -0.056 A 
ATOM     37  C54 A77 d           2.996  -4.516  17.331  0.00  0.00     0.007 A 
ATOM     38  C55 A77 d           2.686  -5.861  17.276  0.00  0.00     0.001 A 
ATOM     39  C56 A77 d           2.310  -6.449  16.097  0.00  0.00     0.000 A 
ATOM     40  C57 A77 d           2.231  -5.678  14.952  0.00  0.00     0.001 A 
ATOM     41  C58 A77 d           2.538  -4.323  14.995  0.00  0.00     0.007 A 
ENDBRANCH  35  36
ENDBRANCH  34  35
BRANCH  34  42
ATOM     42  N50 A77 d           5.722  -2.633  16.307  0.00  0.00    -0.352 N 
ATOM     43  C83 A77 d           6.375  -3.646  15.703  0.00  0.00     0.241 C 
ATOM     44  O84 A77 d           6.190  -3.922  14.528  0.00  0.00    -0.271 OA
ATOM     45  H32 A77 d           5.975  -2.392  17.244  0.00  0.00     0.163 HD
BRANCH  43  46
ATOM     46  C82 A77 d           7.386  -4.434  16.522  0.00  0.00     0.181 C 
BRANCH  46  47
ATOM     47  N81 A77 d           6.835  -5.760  16.755  0.00  0.00    -0.329 N 
ATOM     48  C97 A77 d           6.604  -6.254  17.982  0.00  0.00     0.319 C 
ATOM     49  O98 A77 d           7.051  -5.736  18.989  0.00  0.00    -0.247 OA
ATOM     50  N99 A77 d           5.892  -7.363  18.071  0.00  0.00    -0.333 N 
ATOM     51  C2  A77 d           5.352  -7.989  16.856  0.00  0.00     0.154 C 
ATOM     52  H41 A77 d           6.618  -6.331  15.963  0.00  0.00     0.165 HD
BRANCH  50  53
ATOM     53  C3  A77 d           5.669  -7.973  19.375  0.00  0.00     0.186 C 
BRANCH  53  54
ATOM     54  C8  A77 d           4.244  -7.821  19.847  0.00  0.00     0.052 A 
ATOM     55  C12 A77 d           3.340  -8.848  19.581  0.00  0.00     0.029 A 
ATOM     56  C13 A77 d           2.017  -8.712  19.923  0.00  0.00     0.003 A 
ATOM     57  C15 A77 d           1.653  -7.528  20.514  0.00  0.00     0.019 A 
ATOM     58  C14 A77 d           2.631  -6.568  20.744  0.00  0.00     0.117 A 
ATOM     59  N10 A77 d           3.918  -6.689  20.458  0.00  0.00    -0.264 NA
ENDBRANCH  53  54
ENDBRANCH  50  53
ENDBRANCH  46  47
BRANCH  46  60
ATOM     60  C85 A77 d           8.723  -4.600  15.812  0.00  0.00     0.009 C 
ATOM     61  C86 A77 d           9.352  -3.245  15.447  0.00  0.00     0.012 C 
ATOM     62  C87 A77 d           9.683  -5.452  16.668  0.00  0.00     0.012 C 
ENDBRANCH  46  60
ENDBRANCH  43  46
ENDBRANCH  34  42
ENDBRANCH  33  34
BRANCH  33  63
ATOM     63  O48 A77 d           5.178  -0.220  17.176  0.00  0.00    -0.391 OA
ATOM     64  H30 A77 d           5.984  -0.695  17.343  0.00  0.00     0.210 HD
ENDBRANCH  33  63
ENDBRANCH   1  33
TORSDOF 21
