REMARK  14 active torsions:
REMARK  status: ('A' for Active; 'I' for Inactive)
REMARK    1  A    between atoms: O1_2  and  C1_1 
REMARK    2  A    between atoms: P_12  and  O1_2 
REMARK    3  A    between atoms: C2_3  and  O2_4 
REMARK    4  A    between atoms: C3_5  and  O3_6 
REMARK    5  A    between atoms: C4_7  and  O4_8 
REMARK    6  A    between atoms: P_12  and  N_15 
REMARK    7  A    between atoms: N_15  and  CA_16 
REMARK    8  A    between atoms: CA_16  and  CB_19 
REMARK    9  A    between atoms: CA_16  and  C_17 
REMARK       I    between atoms: C_17  and  N_23 
REMARK   10  A    between atoms: CB_19  and  CG_20 
REMARK   11  A    between atoms: N_23  and  CA_24 
REMARK   12  A    between atoms: CA_24  and  CB_27 
REMARK   13  A    between atoms: CA_24  and  C_25 
REMARK   14  A    between atoms: CB_27  and  CG_28 
ROOT
ATOM      1  CA  MOL d          52.688  17.980  -4.388  0.00  0.00     0.180 C 
ENDROOT
BRANCH   1   2
ATOM      2  N   MOL d          51.667  18.103  -5.418  0.00  0.00    -0.312 N 
ATOM      3  H12 MOL d          50.836  17.564  -5.283  0.00  0.00     0.166 HD
BRANCH   2   4
ATOM      4  P   MOL d          51.715  18.902  -6.596  0.00  0.00     0.362 P 
ATOM      5  O1P MOL d          53.231  19.053  -6.870  0.00  0.00    -0.630 OA
ATOM      6  O2P MOL d          51.194  20.234  -6.325  0.00  0.00    -0.630 OA
BRANCH   4   7
ATOM      7  O1  MOL d          50.920  18.137  -7.643  0.00  0.00    -0.261 OA
BRANCH   7   8
ATOM      8  C1  MOL d          51.183  16.914  -8.254  0.00  0.00     0.303 C 
ATOM      9  C2  MOL d          50.171  16.113  -7.502  0.00  0.00     0.205 C 
ATOM     10  C3  MOL d          48.865  16.750  -7.787  0.00  0.00     0.183 C 
ATOM     11  C4  MOL d          48.610  16.502  -9.263  0.00  0.00     0.178 C 
ATOM     12  C5  MOL d          49.572  17.376 -10.084  0.00  0.00     0.152 C 
ATOM     13  O5  MOL d          50.917  16.967  -9.678  0.00  0.00    -0.350 OA
ATOM     14  C6  MOL d          49.360  17.397 -11.604  0.00  0.00     0.042 C 
BRANCH   9  15
ATOM     15  O2  MOL d          49.976  14.742  -8.034  0.00  0.00    -0.388 OA
ATOM     16  H3  MOL d          49.323  14.291  -7.512  0.00  0.00     0.210 HD
ENDBRANCH   9  15
BRANCH  10  17
ATOM     17  O3  MOL d          48.022  16.009  -6.924  0.00  0.00    -0.390 OA
ATOM     18  H5  MOL d          48.059  15.089  -7.160  0.00  0.00     0.210 HD
ENDBRANCH  10  17
BRANCH  11  19
ATOM     19  O4  MOL d          47.268  16.717  -9.593  0.00  0.00    -0.390 OA
ATOM     20  H7  MOL d          46.721  16.127  -9.089  0.00  0.00     0.210 HD
ENDBRANCH  11  19
ENDBRANCH   7   8
ENDBRANCH   4   7
ENDBRANCH   2   4
ENDBRANCH   1   2
BRANCH   1  21
ATOM     21  CB  MOL d          52.144  18.204  -2.986  0.00  0.00     0.038 C 
BRANCH  21  22
ATOM     22  CG  MOL d          53.236  18.074  -1.852  0.00  0.00    -0.020 C 
ATOM     23  CD1 MOL d          54.393  19.099  -1.824  0.00  0.00     0.009 C 
ATOM     24  CD2 MOL d          52.637  18.119  -0.440  0.00  0.00     0.009 C 
ENDBRANCH  21  22
ENDBRANCH   1  21
BRANCH   1  25
ATOM     25  C   MOL d          53.504  16.720  -4.374  0.00  0.00     0.241 C 
ATOM     26  O   MOL d          54.637  16.851  -3.933  0.00  0.00    -0.271 OA
ATOM     27  N   MOL d          52.910  15.559  -4.831  0.00  0.00    -0.344 N 
ATOM     28  H23 MOL d          51.948  15.627  -5.096  0.00  0.00     0.163 HD
BRANCH  27  29
ATOM     29  CA  MOL d          53.536  14.231  -4.971  0.00  0.00     0.190 C 
BRANCH  29  30
ATOM     30  CB  MOL d          54.032  13.779  -3.578  0.00  0.00     0.077 C 
BRANCH  30  31
ATOM     31  CG  MOL d          52.938  13.365  -2.684  0.00  0.00    -0.028 A 
ATOM     32  CD1 MOL d          52.156  14.197  -1.947  0.00  0.00     0.096 A 
ATOM     33  NE1 MOL d          51.220  13.492  -1.253  0.00  0.00    -0.365 N 
ATOM     34  CE2 MOL d          51.394  12.166  -1.521  0.00  0.00     0.042 A 
ATOM     35  H28 MOL d          50.503  13.892  -0.631  0.00  0.00     0.165 HD
ATOM     36  CD2 MOL d          52.477  12.038  -2.441  0.00  0.00    -0.002 A 
ATOM     37  CZ2 MOL d          50.676  11.082  -1.052  0.00  0.00     0.030 A 
ATOM     38  CE3 MOL d          52.873  10.772  -2.906  0.00  0.00     0.014 A 
ATOM     39  CZ3 MOL d          52.145   9.694  -2.444  0.00  0.00     0.001 A 
ATOM     40  CH2 MOL d          51.084   9.848  -1.519  0.00  0.00     0.002 A 
ENDBRANCH  30  31
ENDBRANCH  29  30
BRANCH  29  41
ATOM     41  C   MOL d          52.673  13.218  -5.766  0.00  0.00     0.197 C 
ATOM     42  O   MOL d          51.490  13.641  -5.932  0.00  0.00    -0.646 OA
ATOM     43  OXT MOL d          53.184  12.087  -6.164  0.00  0.00    -0.646 OA
ENDBRANCH  29  41
ENDBRANCH  27  29
ENDBRANCH   1  25
TORSDOF 14
