REMARK  4 active torsions:
REMARK  status: ('A' for Active; 'I' for Inactive)
REMARK    1  A    between atoms: C4_7  and  S_1 
REMARK    2  A    between atoms: S_1  and  N3S_15 
REMARK       I    between atoms: C7_10  and  N'_2 
REMARK    3  A    between atoms: N'_2  and  C1'_11 
REMARK    4  A    between atoms: C1_4  and  C7_10 
ROOT
ATOM      1  C1  RYV d          16.854   3.601  14.644  0.00  0.00     0.032 A 
ATOM      2  C2  RYV d          14.909   2.410  15.503  0.00  0.00     0.026 A 
ATOM      3  C3  RYV d          15.464   3.518  14.842  0.00  0.00     0.018 A 
ATOM      4  C4  RYV d          15.732   1.358  15.951  0.00  0.00     0.079 A 
ATOM      5  C5  RYV d          17.688   2.552  15.120  0.00  0.00     0.018 A 
ATOM      6  C6  RYV d          17.136   1.460  15.791  0.00  0.00     0.026 A 
ENDROOT
BRANCH   1   7
ATOM      7  C7  RYV d          17.440   4.760  13.912  0.00  0.00     0.251 C 
ATOM      8  N'  RYV d          18.683   4.757  13.604  0.00  0.00    -0.357 N 
ATOM      9  H1  RYV d          19.251   3.977  13.868  0.00  0.00     0.162 HD
ATOM     10  O'  RYV d          16.690   5.754  13.682  0.00  0.00    -0.268 OA
BRANCH   8  11
ATOM     11  C1' RYV d          19.299   5.887  12.863  0.00  0.00     0.118 C 
ATOM     12  C2' RYV d          19.469   6.982  13.940  0.00  0.00     0.026 C 
ENDBRANCH   8  11
ENDBRANCH   1   7
BRANCH   4  13
ATOM     13  S   RYV d          15.083  -0.005  16.801  0.00  0.00     0.256 S 
ATOM     14  O1S RYV d          13.668   0.079  16.648  0.00  0.00    -0.201 OA
ATOM     15  O2S RYV d          15.590   0.049  18.175  0.00  0.00    -0.201 OA
BRANCH  13  16
ATOM     16  N3S RYV d          15.699  -1.318  16.063  0.00  0.00    -0.324 N 
ATOM     17  H11 RYV d          15.459  -2.233  16.388  0.00  0.00     0.169 HD
ATOM     18  H12 RYV d          16.317  -1.210  15.284  0.00  0.00     0.169 HD
ENDBRANCH  13  16
ENDBRANCH   4  13
TORSDOF 4
