REMARK  4 active torsions:
REMARK  status: ('A' for Active; 'I' for Inactive)
REMARK    1  A    between atoms: O4_1  and  C4_2 
REMARK    2  A    between atoms: C3_3  and  O3_4 
REMARK    3  A    between atoms: C5_8  and  C6_9 
REMARK    4  A    between atoms: C6_9  and  O6_10 
ROOT
ATOM      1  C4  IFM d          -0.859  10.697   7.780  0.00  0.00     0.156 C 
ATOM      2  C3  IFM d           0.020  11.921   8.209  0.00  0.00     0.172 C 
ATOM      3  C2  IFM d           0.477  11.865   9.677  0.00  0.00     0.266 C 
ATOM      4  N   IFM d          -0.617  11.509  10.602  0.00  0.00    -0.072 N 
ATOM      5  C1  IFM d          -1.447  10.355  10.192  0.00  0.00     0.241 C 
ATOM      6  C5  IFM d          -2.048  10.560   8.784  0.00  0.00     0.066 C 
ATOM      7  H7  IFM d          -1.222  12.310  10.691  0.00  0.00     0.277 HD
ATOM      8  H8  IFM d          -0.209  11.295  11.498  0.00  0.00     0.277 HD
ENDROOT
BRANCH   6   9
ATOM      9  C6  IFM d          -2.991   9.373   8.493  0.00  0.00     0.173 C 
BRANCH   9  10
ATOM     10  O6  IFM d          -2.287   8.168   8.834  0.00  0.00    -0.400 OA
ATOM     11  H14 IFM d          -2.845   7.418   8.665  0.00  0.00     0.209 HD
ENDBRANCH   9  10
ENDBRANCH   6   9
BRANCH   1  12
ATOM     12  O4  IFM d          -1.245  10.921   6.420  0.00  0.00    -0.392 OA
ATOM     13  H1  IFM d          -0.468  10.985   5.878  0.00  0.00     0.210 HD
ENDBRANCH   1  12
BRANCH   2  14
ATOM     14  O3  IFM d           1.128  12.216   7.364  0.00  0.00    -0.391 OA
ATOM     15  H4  IFM d           0.815  12.408   6.488  0.00  0.00     0.210 HD
ENDBRANCH   2  14
TORSDOF 4
