REMARK  15 active torsions:
REMARK  status: ('A' for Active; 'I' for Inactive)
REMARK    1  A    between atoms: C6_6  and  N6_7 
REMARK    2  A    between atoms: C1'_13  and  N9_10 
REMARK    3  A    between atoms: O3A_26  and  PA_11 
REMARK    4  A    between atoms: PA_11  and  O5'_34 
REMARK    5  A    between atoms: PB_12  and  O3A_26 
REMARK    6  A    between atoms: O5D_36  and  PB_12 
REMARK    7  A    between atoms: C1D_16  and  O1D_17 
REMARK    8  A    between atoms: C2'_18  and  O2'_19 
REMARK    9  A    between atoms: C2D_22  and  O2D_23 
REMARK   10  A    between atoms: C3'_24  and  O3'_25 
REMARK   11  A    between atoms: C3D_27  and  O3D_28 
REMARK   12  A    between atoms: C5'_33  and  C4'_29 
REMARK   13  A    between atoms: C5D_35  and  C4D_31 
REMARK   14  A    between atoms: O5'_34  and  C5'_33 
REMARK   15  A    between atoms: C5D_35  and  O5D_36 
ROOT
ATOM      1  C5' AR6 d         -25.882  14.394 -22.416  0.00  0.00     0.216 C 
ENDROOT
BRANCH   1   2
ATOM      2  C4' AR6 d         -25.733  12.942 -21.919  0.00  0.00     0.180 C 
ATOM      3  C3' AR6 d         -24.418  12.760 -21.138  0.00  0.00     0.182 C 
ATOM      4  C2' AR6 d         -23.644  11.720 -21.937  0.00  0.00     0.198 C 
ATOM      5  C1' AR6 d         -24.770  10.958 -22.588  0.00  0.00     0.262 C 
ATOM      6  O4' AR6 d         -25.630  12.037 -23.031  0.00  0.00    -0.353 OA
BRANCH   3   7
ATOM      7  O3' AR6 d         -24.726  12.214 -19.858  0.00  0.00    -0.390 OA
ATOM      8  H13 AR6 d         -23.920  11.993 -19.407  0.00  0.00     0.210 HD
ENDBRANCH   3   7
BRANCH   4   9
ATOM      9  O2' AR6 d         -22.966  10.841 -21.060  0.00  0.00    -0.388 OA
ATOM     10  H9  AR6 d         -23.572  10.524 -20.400  0.00  0.00     0.210 HD
ENDBRANCH   4   9
BRANCH   5  11
ATOM     11  N9  AR6 d         -24.468  10.382 -23.879  0.00  0.00    -0.294 N 
ATOM     12  C4  AR6 d         -25.156   9.403 -24.457  0.00  0.00     0.167 A 
ATOM     13  N3  AR6 d         -26.209   8.654 -24.075  0.00  0.00    -0.222 NA
ATOM     14  C5  AR6 d         -24.576   9.187 -25.693  0.00  0.00     0.149 A 
ATOM     15  C2  AR6 d         -26.672   7.710 -24.900  0.00  0.00     0.237 A 
ATOM     16  N1  AR6 d         -26.141   7.481 -26.101  0.00  0.00    -0.222 NA
ATOM     17  C6  AR6 d         -25.091   8.207 -26.525  0.00  0.00     0.155 A 
ATOM     18  N7  AR6 d         -23.571  10.048 -25.824  0.00  0.00    -0.236 NA
ATOM     19  C8  AR6 d         -23.505  10.784 -24.717  0.00  0.00     0.214 A 
BRANCH  17  20
ATOM     20  N6  AR6 d         -24.525   8.009 -27.707  0.00  0.00    -0.382 N 
ATOM     21  H2  AR6 d         -23.722   8.585 -27.997  0.00  0.00     0.157 HD
ATOM     22  H3  AR6 d         -24.888   7.279 -28.336  0.00  0.00     0.157 HD
ENDBRANCH  17  20
ENDBRANCH   5  11
ENDBRANCH   1   2
BRANCH   1  23
ATOM     23  O5' AR6 d         -24.681  14.843 -23.066  0.00  0.00    -0.287 OA
BRANCH  23  24
ATOM     24  PA  AR6 d         -24.615  16.148 -24.010  0.00  0.00     0.417 P 
ATOM     25  O1A AR6 d         -24.530  15.670 -25.394  0.00  0.00    -0.624 OA
ATOM     26  O2A AR6 d         -23.530  17.007 -23.492  0.00  0.00    -0.624 OA
BRANCH  24  27
ATOM     27  O3A AR6 d         -26.041  16.845 -23.840  0.00  0.00    -0.180 OA
BRANCH  27  28
ATOM     28  PB  AR6 d         -26.494  17.973 -22.760  0.00  0.00     0.417 P 
ATOM     29  O1B AR6 d         -27.987  17.913 -22.776  0.00  0.00    -0.624 OA
ATOM     30  O2B AR6 d         -25.760  17.820 -21.487  0.00  0.00    -0.624 OA
BRANCH  28  31
ATOM     31  O5D AR6 d         -26.244  19.366 -23.499  0.00  0.00    -0.287 OA
BRANCH  31  32
ATOM     32  C5D AR6 d         -25.233  19.519 -24.480  0.00  0.00     0.216 C 
BRANCH  32  33
ATOM     33  C4D AR6 d         -25.787  20.003 -25.771  0.00  0.00     0.180 C 
ATOM     34  C3D AR6 d         -24.736  20.648 -26.649  0.00  0.00     0.182 C 
ATOM     35  C2D AR6 d         -24.713  22.069 -26.157  0.00  0.00     0.204 C 
ATOM     36  C1D AR6 d         -26.079  22.247 -25.492  0.00  0.00     0.288 C 
ATOM     37  O4D AR6 d         -26.755  21.003 -25.548  0.00  0.00    -0.349 OA
BRANCH  34  38
ATOM     38  O3D AR6 d         -25.279  20.644 -27.968  0.00  0.00    -0.390 OA
ATOM     39  H15 AR6 d         -24.735  21.178 -28.535  0.00  0.00     0.210 HD
ENDBRANCH  34  38
BRANCH  35  40
ATOM     40  O2D AR6 d         -24.606  22.935 -27.275  0.00  0.00    -0.388 OA
ATOM     41  H11 AR6 d         -25.290  22.728 -27.901  0.00  0.00     0.210 HD
ENDBRANCH  35  40
BRANCH  36  42
ATOM     42  O1D AR6 d         -26.945  22.973 -26.274  0.00  0.00    -0.369 OA
ATOM     43  H7  AR6 d         -26.992  22.583 -27.139  0.00  0.00     0.212 HD
ENDBRANCH  36  42
ENDBRANCH  32  33
ENDBRANCH  31  32
ENDBRANCH  28  31
ENDBRANCH  27  28
ENDBRANCH  24  27
ENDBRANCH  23  24
ENDBRANCH   1  23
TORSDOF 15
