3v3l_ligand

Created by X-TOOL on Fri Sep 26 17:34:53 2014
 55 58  0  0  0  0  0  0  0  0999 V2000
   28.2110   58.8990   82.2450  N 0  0  0  1  0  2
   28.3190   57.5520   82.3350  C 0  0  0  2  0  3
   27.2570   56.7330   82.4130  N 0  0  0  1  0  2
   25.9970   57.2240   82.4030  C 0  0  0  1  0  3
   25.7870   58.6670   82.3100  C 0  0  0  1  0  3
   26.9940   59.5070   82.2570  C 0  0  0  1  0  3
   26.8320   60.8320   82.1830  N 0  0  0  3  0  3
   24.4610   58.8860   82.3210  N 0  0  0  1  0  2
   23.8670   57.6990   82.4230  C 0  0  0  2  0  3
   24.7750   56.7120   82.4360  N 0  0  0  1  0  3
   19.7160   56.7940   82.5430  P 0  0  0  1  0  4
   24.4880   54.1080   91.2780  P 0  0  0  1  0  4
   25.0410   55.3060   86.2440  C 0  0  0  2  0  4
   24.4580   55.2790   82.6130  C 0  0  0  2  0  4
   18.5170   56.0280   83.0820  O 0  0  0  1  0  1
   25.3210   55.1690   91.9280  O 0  0  0  1  0  1
   26.4160   55.2220   86.9030  C 0  0  0  2  0  4
   27.4490   55.6090   86.0080  O 0  0  0  2  0  2
   23.9760   55.1010   84.0570  C 0  0  0  2  0  4
   25.1150   54.8480   84.8940  O 0  0  0  1  0  2
   19.7500   56.9710   81.0340  O 0  0  0  1  0  1
   23.0390   54.5130   91.1630  O 0  0  0  1  0  1
   26.5200   53.7550   87.3090  C 0  0  0  2  0  4
   27.1720   52.9540   86.3160  O 0  0  0  2  0  2
   22.9660   53.9520   83.9490  C 0  0  0  2  0  4
   23.5180   52.6680   84.2450  O 0  0  0  2  0  2
   20.0390   58.0310   83.3410  O 0  0  0  1  0  1
   24.6730   52.7080   91.8020  O 0  0  0  1  0  1
   25.0700   53.3160   87.4550  C 0  0  0  2  0  4
   24.2400   54.3890   86.9870  O 0  0  0  1  0  2
   22.4980   53.9930   82.4980  C 0  0  0  2  0  4
   23.3930   54.8600   81.7910  O 0  0  0  1  0  2
   24.7000   52.9680   88.8940  C 0  0  0  3  0  4
   25.0680   54.0120   89.7940  O 0  0  0  1  0  2
   21.0970   54.5420   82.3010  C 0  0  0  3  0  4
   20.9630   55.8490   82.8970  O 0  0  0  1  0  2
   29.3103   57.1135   82.3446  H 0  0  0  1  0  1
   25.8849   61.2366   82.1965  H 0  0  0  1  0  1
   27.6543   61.4482   82.1125  H 0  0  0  1  0  1
   22.7902   57.5497   82.4872  H 0  0  0  1  0  1
   24.6368   56.3282   86.2849  H 0  0  0  1  0  1
   25.3519   54.6697   82.4138  H 0  0  0  1  0  1
   26.4579   55.8689   87.7917  H 0  0  0  1  0  1
   27.4427   55.0344   85.2514  H 0  0  0  1  0  1
   23.4683   56.0070   84.4196  H 0  0  0  1  0  1
   27.0587   53.6584   88.2632  H 0  0  0  1  0  1
   28.0525   53.2815   86.1747  H 0  0  0  1  0  1
   22.1223   54.1363   84.6304  H 0  0  0  1  0  1
   23.8537   52.6661   85.1337  H 0  0  0  1  0  1
   24.9045   52.4265   86.8294  H 0  0  0  1  0  1
   22.5423   52.9757   82.0819  H 0  0  0  1  0  1
   25.2225   52.0447   89.1844  H 0  0  0  1  0  1
   23.6133   52.8092   88.9556  H 0  0  0  1  0  1
   20.3739   53.8579   82.7690  H 0  0  0  1  0  1
   20.8880   54.6154   81.2235  H 0  0  0  1  0  1
  2  1  4  0  0  1
  6  1  4  0  0  1
  3  2  4  0  0  1
  4  3  4  0  0  1
  4  5  4  0  0  1
 10  4  1  0  0  1
  5  6  4  0  0  1
  8  5  1  0  0  1
  6  7  1  0  0  2
  9  8  2  0  0  1
 10  9  1  0  0  1
 14 10  1  0  0  2
 11 15  2  0  0  2
 11 21  2  0  0  2
 11 27  2  0  0  2
 36 11  1  0  0  2
 12 16  2  0  0  2
 12 22  2  0  0  2
 12 28  2  0  0  2
 34 12  1  0  0  2
 13 17  1  0  0  1
 20 13  1  0  0  2
 13 30  1  0  0  1
 14 19  1  0  0  1
 32 14  1  0  0  1
 17 18  1  0  0  2
 17 23  1  0  0  1
 19 20  1  0  0  2
 25 19  1  0  0  1
 23 24  1  0  0  2
 29 23  1  0  0  1
 25 26  1  0  0  2
 31 25  1  0  0  1
 30 29  1  0  0  1
 29 33  1  0  0  2
 31 32  1  0  0  1
 35 31  1  0  0  2
 33 34  1  0  0  2
 35 36  1  0  0  2
  2 37  1  0  0  2
  7 38  1  0  0  2
  7 39  1  0  0  2
  9 40  1  0  0  2
 13 41  1  0  0  2
 14 42  1  0  0  2
 17 43  1  0  0  2
 18 44  1  0  0  2
 19 45  1  0  0  2
 23 46  1  0  0  2
 24 47  1  0  0  2
 25 48  1  0  0  2
 26 49  1  0  0  2
 29 50  1  0  0  2
 31 51  1  0  0  2
 33 52  1  0  0  2
 33 53  1  0  0  2
 35 54  1  0  0  2
 35 55  1  0  0  2
M  END
> <MOLECULAR_FORMULA>
C15H19N5O14P2

> <MOLECULAR_WEIGHT>
555.1

> <NUM_HB_ATOMS>
19 

> <NUM_ROTOR>
7  

> <XLOGP2>
-4.49

$$$$
