REMARK  2 active torsions:
REMARK  status: ('A' for Active; 'I' for Inactive)
REMARK    1  A    between atoms: C1_2  and  C0_1 
REMARK    2  A    between atoms: C0_1  and  N1_3 
ROOT
ATOM      1  C1  ESP d           8.490   0.331  25.435  0.00  0.00     0.051 A 
ATOM      2  S2  ESP d           9.073   0.549  23.762  0.00  0.00    -0.066 SA
ATOM      3  C3  ESP d           9.265   2.237  23.965  0.00  0.00     0.108 A 
ATOM      4  C4  ESP d           8.896   2.590  25.254  0.00  0.00     0.001 A 
ATOM      5  C5  ESP d           8.473   1.558  26.057  0.00  0.00     0.037 A 
ATOM      6  N6  ESP d           9.674   3.191  23.168  0.00  0.00    -0.253 NA
ATOM      7  C7  ESP d           9.766   4.477  23.464  0.00  0.00     0.118 A 
ATOM      8  C8  ESP d           9.397   4.844  24.756  0.00  0.00     0.020 A 
ATOM      9  C9  ESP d           8.957   3.901  25.653  0.00  0.00     0.016 A 
ENDROOT
BRANCH   1  10
ATOM     10  C0  ESP d           8.166  -0.927  25.865  0.00  0.00     0.109 C 
ATOM     11  N2  ESP d           8.511  -1.910  25.098  0.00  0.00    -0.385 N 
ATOM     12  H3  ESP d           8.998  -1.724  24.210  0.00  0.00     0.157 HD
ATOM     13  H4  ESP d           8.299  -2.879  25.375  0.00  0.00     0.157 HD
BRANCH  10  14
ATOM     14  N1  ESP d           7.550  -1.033  27.004  0.00  0.00    -0.385 N 
ATOM     15  H1  ESP d           7.288  -1.962  27.363  0.00  0.00     0.157 HD
ATOM     16  H2  ESP d           7.323  -0.188  27.547  0.00  0.00     0.157 HD
ENDBRANCH  10  14
ENDBRANCH   1  10
TORSDOF 2
