REMARK  3 active torsions:
REMARK  status: ('A' for Active; 'I' for Inactive)
REMARK    1  A    between atoms: C8_2  and  N9_3 
REMARK    2  A    between atoms: N9_3  and  C10_8 
REMARK    3  A    between atoms: C4_5  and  C3_6 
ROOT
ATOM      1  N7  P4T d          41.896  69.686  64.712  0.00  0.00    -0.228 NA
ATOM      2  C8  P4T d          40.573  69.904  64.597  0.00  0.00     0.172 A 
ATOM      3  C5  P4T d          42.629  70.701  64.177  0.00  0.00     0.054 A 
ATOM      4  C4  P4T d          41.721  71.727  63.590  0.00  0.00     0.078 A 
ATOM      5  C6  P4T d          44.127  70.742  64.183  0.00  0.00     0.072 C 
ATOM      6  S4  P4T d          40.045  71.336  63.775  0.00  0.00    -0.046 SA
ENDROOT
BRANCH   2   7
ATOM      7  N9  P4T d          39.592  69.051  65.034  0.00  0.00    -0.335 N 
ATOM      8  H1  P4T d          38.634  69.371  64.833  0.00  0.00     0.168 HD
BRANCH   7   9
ATOM      9  C10 P4T d          39.659  67.823  65.705  0.00  0.00     0.034 A 
ATOM     10  C16 P4T d          38.505  67.376  66.372  0.00  0.00     0.029 A 
ATOM     11  C15 P4T d          38.507  66.155  67.075  0.00  0.00     0.002 A 
ATOM     12  C14 P4T d          39.659  65.373  67.082  0.00  0.00     0.000 A 
ATOM     13  C13 P4T d          40.794  65.816  66.403  0.00  0.00     0.002 A 
ATOM     14  C12 P4T d          40.807  67.034  65.709  0.00  0.00     0.029 A 
ENDBRANCH   7   9
ENDBRANCH   2   7
BRANCH   4  15
ATOM     15  C3  P4T d          42.022  73.031  62.898  0.00  0.00     0.164 C 
ATOM     16  C2  P4T d          43.448  73.444  62.732  0.00  0.00     0.097 C 
ATOM     17  O8  P4T d          41.107  73.735  62.468  0.00  0.00    -0.292 OA
ENDBRANCH   4  15
TORSDOF 3
