REMARK  7 active torsions:
REMARK  status: ('A' for Active; 'I' for Inactive)
REMARK    1  A    between atoms: C4_6  and  C5_7 
REMARK    2  A    between atoms: C6_8  and  S1_9 
REMARK    3  A    between atoms: S1_9  and  N1_12 
REMARK    4  A    between atoms: N1_12  and  C12_13 
REMARK    5  A    between atoms: N2_18  and  C15_19 
REMARK    6  A    between atoms: C27_24  and  C28_26 
REMARK    7  A    between atoms: C28_26  and  N3_28 
ROOT
ATOM      1  C12 MOL d           5.959   6.970  23.163  0.00  0.00     0.187 C 
ATOM      2  C13 MOL d           4.640   6.216  22.936  0.00  0.00     0.056 C 
ATOM      3  C14 MOL d           4.949   5.076  21.949  0.00  0.00     0.135 C 
ATOM      4  C50 MOL d           6.888   6.416  22.098  0.00  0.00     0.247 C 
ATOM      5  O3  MOL d           7.994   6.856  21.805  0.00  0.00    -0.271 OA
ATOM      6  N2  MOL d           6.314   5.338  21.509  0.00  0.00    -0.313 N 
ENDROOT
BRANCH   1   7
ATOM      7  N1  MOL d           5.820   8.389  22.949  0.00  0.00    -0.302 N 
ATOM      8  H5  MOL d           5.363   8.733  22.129  0.00  0.00     0.173 HD
BRANCH   7   9
ATOM      9  S1  MOL d           6.410   9.418  24.047  0.00  0.00     0.249 S 
ATOM     10  O2  MOL d           6.368  10.659  23.332  0.00  0.00    -0.201 OA
ATOM     11  O1  MOL d           5.702   9.201  25.263  0.00  0.00    -0.201 OA
BRANCH   9  12
ATOM     12  C6  MOL d           8.076   8.963  24.306  0.00  0.00     0.132 C 
ATOM     13  C5  MOL d           8.419   8.529  25.531  0.00  0.00     0.032 C 
BRANCH  13  14
ATOM     14  C4  MOL d           9.745   8.098  25.973  0.00  0.00     0.007 A 
ATOM     15  C3  MOL d          10.003   7.406  27.151  0.00  0.00     0.021 A 
ATOM     16  C2  MOL d          11.353   7.117  27.352  0.00  0.00     0.033 A 
ATOM     17  C1  MOL d          12.109   7.582  26.326  0.00  0.00     0.075 A 
ATOM     18 CL1  MOL d          13.836   7.420  26.202  0.00  0.00    -0.076 Cl
ATOM     19  S2  MOL d          11.219   8.399  25.102  0.00  0.00    -0.078 SA
ENDBRANCH  13  14
ENDBRANCH   9  12
ENDBRANCH   7   9
ENDBRANCH   1   7
BRANCH   6  20
ATOM     20  C15 MOL d           7.005   4.544  20.553  0.00  0.00     0.076 A 
ATOM     21  C21 MOL d           7.552   5.155  19.443  0.00  0.00     0.143 A 
ATOM     22  F1  MOL d           7.400   6.475  19.290  0.00  0.00    -0.204 F 
ATOM     23  C24 MOL d           8.251   4.456  18.480  0.00  0.00     0.054 A 
ATOM     24  C27 MOL d           8.421   3.082  18.632  0.00  0.00    -0.025 A 
ATOM     25  C26 MOL d           7.869   2.453  19.759  0.00  0.00     0.012 A 
ATOM     26  C22 MOL d           7.168   3.174  20.727  0.00  0.00     0.033 A 
BRANCH  24  27
ATOM     27  C28 MOL d           9.168   2.328  17.547  0.00  0.00     0.216 C 
ATOM     28  C7  MOL d          10.060   1.185  18.063  0.00  0.00     0.045 C 
BRANCH  27  29
ATOM     29  N3  MOL d           8.220   1.863  16.504  0.00  0.00    -0.071 N 
ATOM     30  C11 MOL d           7.212   0.878  16.933  0.00  0.00     0.270 C 
ATOM     31  C10 MOL d           7.610   2.915  15.669  0.00  0.00     0.270 C 
ATOM     32  H18 MOL d           8.810   1.351  15.867  0.00  0.00     0.279 HD
ENDBRANCH  27  29
ENDBRANCH  24  27
ENDBRANCH   6  20
TORSDOF 7
