REMARK  12 active torsions:
REMARK  status: ('A' for Active; 'I' for Inactive)
REMARK    1  A    between atoms: C4'_2  and  C5'_1 
REMARK    2  A    between atoms: C5'_1  and  C6'_16 
REMARK    3  A    between atoms: C3'_3  and  O3'_4 
REMARK    4  A    between atoms: C10_21  and  N1'_15 
REMARK    5  A    between atoms: C6'_16  and  S6'_17 
REMARK    6  A    between atoms: S6'_17  and  C20_18 
REMARK    7  A    between atoms: C20_18  and  C21_19 
REMARK    8  A    between atoms: C21_19  and  O22_20 
REMARK    9  A    between atoms: O22_20  and  C23_24 
REMARK   10  A    between atoms: C10_21  and  C9_22 
REMARK   11  A    between atoms: C23_24  and  C24_25 
REMARK   12  A    between atoms: C24_25  and  O25_26 
ROOT
ATOM      1  C4' MOL d          37.056  73.183  23.619  0.00  0.00     0.043 C 
ATOM      2  C3' MOL d          35.702  73.841  23.806  0.00  0.00     0.149 C 
ATOM      3  C2' MOL d          35.813  74.508  25.144  0.00  0.00     0.267 C 
ATOM      4  C1' MOL d          37.614  73.008  25.030  0.00  0.00     0.242 C 
ATOM      5  N1' MOL d          36.525  73.464  25.908  0.00  0.00    -0.064 N 
ATOM      6  H13 MOL d          35.891  72.694  26.052  0.00  0.00     0.280 HD
ENDROOT
BRANCH   5   7
ATOM      7  C10 MOL d          36.981  73.882  27.234  0.00  0.00     0.277 C 
BRANCH   7   8
ATOM      8  C9  MOL d          38.186  74.784  27.354  0.00  0.00     0.014 A 
ATOM      9  C8  MOL d          39.448  74.409  27.818  0.00  0.00     0.099 A 
ATOM     10  N7  MOL d          40.304  75.467  27.879  0.00  0.00    -0.360 N 
ATOM     11  C5  MOL d          39.680  76.581  27.473  0.00  0.00     0.107 A 
ATOM     12  H11 MOL d          41.285  75.418  28.191  0.00  0.00     0.165 HD
ATOM     13  C6  MOL d          40.048  77.986  27.303  0.00  0.00     0.151 A 
ATOM     14  C4  MOL d          38.317  76.227  27.140  0.00  0.00     0.098 A 
ATOM     15  N1  MOL d          39.102  78.846  26.843  0.00  0.00    -0.223 NA
ATOM     16  N6  MOL d          41.297  78.359  27.607  0.00  0.00    -0.382 N 
ATOM     17  C2  MOL d          37.866  78.413  26.551  0.00  0.00     0.236 A 
ATOM     18  N3  MOL d          37.442  77.151  26.671  0.00  0.00    -0.239 NA
ATOM     19  H22 MOL d          41.582  79.343  27.496  0.00  0.00     0.157 HD
ATOM     20  H23 MOL d          41.973  77.662  27.952  0.00  0.00     0.157 HD
ENDBRANCH   7   8
ENDBRANCH   5   7
BRANCH   2  21
ATOM     21  O3' MOL d          34.655  72.872  23.891  0.00  0.00    -0.393 OA
ATOM     22  H5  MOL d          33.823  73.316  24.008  0.00  0.00     0.210 HD
ENDBRANCH   2  21
BRANCH   1  23
ATOM     23  C5' MOL d          38.009  74.000  22.750  0.00  0.00     0.019 C 
BRANCH  23  24
ATOM     24  C6' MOL d          37.572  73.899  21.294  0.00  0.00     0.074 C 
BRANCH  24  25
ATOM     25  S6' MOL d          38.917  74.174  20.189  0.00  0.00    -0.167 SA
BRANCH  25  26
ATOM     26  C20 MOL d          39.982  72.762  20.187  0.00  0.00     0.100 C 
BRANCH  26  27
ATOM     27  C21 MOL d          39.586  71.814  19.064  0.00  0.00     0.178 C 
BRANCH  27  28
ATOM     28  O22 MOL d          39.815  72.425  17.779  0.00  0.00    -0.388 OA
BRANCH  28  29
ATOM     29  C23 MOL d          40.379  71.527  16.812  0.00  0.00     0.193 C 
BRANCH  29  30
ATOM     30  C24 MOL d          39.366  70.448  16.419  0.00  0.00     0.190 C 
BRANCH  30  31
ATOM     31  O25 MOL d          38.970  70.623  15.059  0.00  0.00    -0.399 OA
ATOM     32  H28 MOL d          38.342  69.950  14.824  0.00  0.00     0.209 HD
ENDBRANCH  30  31
ENDBRANCH  29  30
ENDBRANCH  28  29
ENDBRANCH  27  28
ENDBRANCH  26  27
ENDBRANCH  25  26
ENDBRANCH  24  25
ENDBRANCH  23  24
ENDBRANCH   1  23
TORSDOF 12
