REMARK  18 active torsions:
REMARK  status: ('A' for Active; 'I' for Inactive)
REMARK    1  A    between atoms: CA_2  and  N_1 
REMARK    2  A    between atoms: CA_2  and  CB_5 
REMARK    3  A    between atoms: C_3  and  CA_2 
REMARK       I    between atoms: N_10  and  C_3 
REMARK    4  A    between atoms: CB_5  and  CG_6 
REMARK    5  A    between atoms: CG_6  and  CD_7 
REMARK    6  A    between atoms: CD_7  and  CE_8 
REMARK    7  A    between atoms: CE_8  and  NZ_9 
REMARK    8  A    between atoms: CA_11  and  N_10 
REMARK    9  A    between atoms: CA_11  and  CB_14 
REMARK   10  A    between atoms: C_12  and  CA_11 
REMARK       I    between atoms: C_12  and  N_21 
REMARK   11  A    between atoms: CB_14  and  CG_15 
REMARK   12  A    between atoms: N_21  and  CA_22 
REMARK   13  A    between atoms: CA_22  and  CB_25 
REMARK   14  A    between atoms: CA_22  and  C_23 
REMARK   15  A    between atoms: CB_25  and  CG_26 
REMARK   16  A    between atoms: CG_26  and  CD_27 
REMARK   17  A    between atoms: CD_27  and  CE_28 
REMARK   18  A    between atoms: CE_28  and  NZ_29 
ROOT
ATOM      1  CA  MOL d           4.071  20.397  16.125  0.00  0.00     0.180 C 
ENDROOT
BRANCH   1   2
ATOM      2  N   MOL d           5.200  19.780  15.466  0.00  0.00    -0.346 N 
ATOM      3  C   MOL d           5.327  18.465  15.350  0.00  0.00     0.248 C 
ATOM      4  O   MOL d           4.476  17.687  15.846  0.00  0.00    -0.271 OA
ATOM      5  H16 MOL d           5.913  20.367  15.083  0.00  0.00     0.163 HD
BRANCH   3   6
ATOM      6  CA  MOL d           6.576  17.938  14.639  0.00  0.00     0.274 C 
BRANCH   6   7
ATOM      7  N   MOL d           6.956  16.579  15.148  0.00  0.00    -0.067 N 
ATOM      8  H1  MOL d           7.779  16.257  14.664  0.00  0.00     0.275 HD
ATOM      9  H2  MOL d           6.198  15.935  14.986  0.00  0.00     0.275 HD
ATOM     10  H3  MOL d           7.146  16.631  16.136  0.00  0.00     0.275 HD
ENDBRANCH   6   7
BRANCH   6  11
ATOM     11  CB  MOL d           6.352  17.897  13.125  0.00  0.00     0.042 C 
BRANCH  11  12
ATOM     12  CG  MOL d           5.456  16.799  12.603  0.00  0.00     0.004 C 
BRANCH  12  13
ATOM     13  CD  MOL d           5.273  16.833  11.098  0.00  0.00     0.027 C 
BRANCH  13  14
ATOM     14  CE  MOL d           6.456  16.278  10.305  0.00  0.00     0.229 C 
BRANCH  14  15
ATOM     15  NZ  MOL d           6.721  14.868  10.762  0.00  0.00    -0.079 N 
ATOM     16  H13 MOL d           7.500  14.489  10.247  0.00  0.00     0.274 HD
ATOM     17  H14 MOL d           5.903  14.303  10.599  0.00  0.00     0.274 HD
ATOM     18  H15 MOL d           6.938  14.869  11.746  0.00  0.00     0.274 HD
ENDBRANCH  14  15
ENDBRANCH  13  14
ENDBRANCH  12  13
ENDBRANCH  11  12
ENDBRANCH   6  11
ENDBRANCH   3   6
ENDBRANCH   1   2
BRANCH   1  19
ATOM     19  CB  MOL d           4.379  21.890  16.353  0.00  0.00     0.073 C 
BRANCH  19  20
ATOM     20  CG  MOL d           5.487  22.117  17.376  0.00  0.00    -0.056 A 
ATOM     21  CD1 MOL d           6.816  21.990  17.001  0.00  0.00     0.007 A 
ATOM     22  CE1 MOL d           7.809  22.202  17.927  0.00  0.00     0.001 A 
ATOM     23  CZ  MOL d           7.521  22.519  19.248  0.00  0.00     0.000 A 
ATOM     24  CE2 MOL d           6.184  22.635  19.600  0.00  0.00     0.001 A 
ATOM     25  CD2 MOL d           5.173  22.434  18.665  0.00  0.00     0.007 A 
ENDBRANCH  19  20
ENDBRANCH   1  19
BRANCH   1  26
ATOM     26  C   MOL d           2.763  20.296  15.313  0.00  0.00     0.241 C 
ATOM     27  O   MOL d           2.788  20.602  14.115  0.00  0.00    -0.271 OA
ATOM     28  N   MOL d           1.654  19.913  15.956  0.00  0.00    -0.345 N 
ATOM     29  H25 MOL d           1.709  19.651  16.919  0.00  0.00     0.163 HD
BRANCH  28  30
ATOM     30  CA  MOL d           0.381  19.873  15.281  0.00  0.00     0.185 C 
BRANCH  30  31
ATOM     31  CB  MOL d          -0.124  18.418  15.122  0.00  0.00     0.036 C 
BRANCH  31  32
ATOM     32  CG  MOL d          -1.129  18.354  13.971  0.00  0.00     0.004 C 
BRANCH  32  33
ATOM     33  CD  MOL d          -2.249  17.373  14.225  0.00  0.00     0.027 C 
BRANCH  33  34
ATOM     34  CE  MOL d          -3.324  17.391  13.123  0.00  0.00     0.229 C 
BRANCH  34  35
ATOM     35  NZ  MOL d          -2.719  16.948  11.838  0.00  0.00    -0.079 N 
ATOM     36  H35 MOL d          -3.421  16.959  11.115  0.00  0.00     0.274 HD
ATOM     37  H36 MOL d          -2.358  16.013  11.941  0.00  0.00     0.274 HD
ATOM     38  H37 MOL d          -1.968  17.572  11.587  0.00  0.00     0.274 HD
ENDBRANCH  34  35
ENDBRANCH  33  34
ENDBRANCH  32  33
ENDBRANCH  31  32
ENDBRANCH  30  31
BRANCH  30  39
ATOM     39  C   MOL d          -0.688  20.634  16.088  0.00  0.00     0.196 C 
ATOM     40  O   MOL d          -1.785  20.846  15.525  0.00  0.00    -0.646 OA
ATOM     41  O1  MOL d          -0.467  21.026  17.265  0.00  0.00    -0.646 OA
ENDBRANCH  30  39
ENDBRANCH  28  30
ENDBRANCH   1  26
TORSDOF 18
