REMARK  22 active torsions:
REMARK  status: ('A' for Active; 'I' for Inactive)
REMARK    1  A    between atoms: C_1  and  CA_2 
REMARK       I    between atoms: N_15  and  C_1 
REMARK    2  A    between atoms: CA_2  and  O1_14 
REMARK    3  A    between atoms: O1_14  and  C1_3 
REMARK    4  A    between atoms: CA_16  and  N_15 
REMARK    5  A    between atoms: C_17  and  CA_16 
REMARK    6  A    between atoms: CA_16  and  CB_19 
REMARK       I    between atoms: N_25  and  C_17 
REMARK    7  A    between atoms: CB_19  and  CG_20 
REMARK    8  A    between atoms: CA_26  and  N_25 
REMARK    9  A    between atoms: C_34  and  CA_26 
REMARK   10  A    between atoms: CA_26  and  CB_27 
REMARK   11  A    between atoms: CB_27  and  CG_28 
REMARK   12  A    between atoms: CB1_36  and  C_34 
REMARK   13  A    between atoms: CB1_36  and  OB1_41 
REMARK   14  A    between atoms: CA'_37  and  CB1_36 
REMARK   15  A    between atoms: C'_42  and  CA'_37 
REMARK   16  A    between atoms: CA'_37  and  CB'_38 
REMARK       I    between atoms: N_44  and  C'_42 
REMARK   17  A    between atoms: CA_45  and  N_44 
REMARK   18  A    between atoms: C_46  and  CA_45 
REMARK   19  A    between atoms: CA_45  and  CB_48 
REMARK       I    between atoms: C_46  and  N_52 
REMARK   20  A    between atoms: CB_48  and  CG1_49 
REMARK   21  A    between atoms: N_52  and  CM_53 
REMARK   22  A    between atoms: CM_53  and  C2_54 
ROOT
ATOM      1  CA  MOL d           2.409  17.022  20.996  0.00  0.00     0.157 C 
ENDROOT
BRANCH   1   2
ATOM      2  N   MOL d           2.880  16.383  19.750  0.00  0.00    -0.348 N 
ATOM      3  C   MOL d           2.075  15.585  19.056  0.00  0.00     0.241 C 
ATOM      4  O   MOL d           0.902  15.291  19.364  0.00  0.00    -0.271 OA
ATOM      5  H17 MOL d           3.811  16.552  19.427  0.00  0.00     0.163 HD
BRANCH   3   6
ATOM      6  CA  MOL d           2.701  14.968  17.813  0.00  0.00     0.182 C 
BRANCH   6   7
ATOM      7  CB  MOL d           1.625  14.820  16.689  0.00  0.00     0.093 C 
BRANCH   7   8
ATOM      8  CG  MOL d           2.192  13.971  15.585  0.00  0.00     0.030 A 
ATOM      9  CD2 MOL d           2.726  14.323  14.392  0.00  0.00     0.143 A 
ATOM     10  NE2 MOL d           3.161  13.194  13.771  0.00  0.00    -0.254 NA
ATOM     11  CE1 MOL d           2.906  12.162  14.543  0.00  0.00     0.207 A 
ATOM     12  ND1 MOL d           2.320  12.615  15.639  0.00  0.00    -0.353 N 
ATOM     13  H14 MOL d           2.005  12.026  16.423  0.00  0.00     0.166 HD
ENDBRANCH   7   8
ENDBRANCH   6   7
BRANCH   6  14
ATOM     14  N   MOL d           3.157  13.620  18.206  0.00  0.00    -0.346 N 
ATOM     15  C   MOL d           4.312  13.086  17.860  0.00  0.00     0.242 C 
ATOM     16  O   MOL d           5.155  13.679  17.160  0.00  0.00    -0.271 OA
ATOM     17  H10 MOL d           2.545  13.072  18.776  0.00  0.00     0.163 HD
BRANCH  15  18
ATOM     18  CA  MOL d           4.533  11.657  18.372  0.00  0.00     0.278 C 
BRANCH  18  19
ATOM     19  O1  MOL d           4.871  11.678  19.753  0.00  0.00    -0.341 OA
BRANCH  19  20
ATOM     20  C1  MOL d           5.099  10.610  20.550  0.00  0.00     0.080 A 
ATOM     21  C1A MOL d           4.098   9.733  20.948  0.00  0.00     0.007 A 
ATOM     22  C4A MOL d           4.385   8.645  21.778  0.00  0.00    -0.023 A 
ATOM     23  C8  MOL d           2.786   9.926  20.504  0.00  0.00     0.015 A 
ATOM     24  C4  MOL d           5.694   8.437  22.228  0.00  0.00     0.012 A 
ATOM     25  C5  MOL d           3.379   7.740  22.165  0.00  0.00     0.012 A 
ATOM     26  C3  MOL d           6.706   9.320  21.850  0.00  0.00     0.004 A 
ATOM     27  C2  MOL d           6.413  10.411  21.013  0.00  0.00     0.037 A 
ATOM     28  C6  MOL d           2.067   7.934  21.703  0.00  0.00     0.001 A 
ATOM     29  C7  MOL d           1.771   9.028  20.869  0.00  0.00     0.001 A 
ENDBRANCH  19  20
ENDBRANCH  18  19
ENDBRANCH  15  18
ENDBRANCH   6  14
ENDBRANCH   3   6
ENDBRANCH   1   2
BRANCH   1  30
ATOM     30  C   MOL d           2.381  18.544  20.850  0.00  0.00     0.178 C 
ATOM     31  O   MOL d           3.320  19.337  20.887  0.00  0.00    -0.293 OA
BRANCH  30  32
ATOM     32  CB1 MOL d           1.193  18.891  19.949  0.00  0.00     0.203 C 
BRANCH  32  33
ATOM     33  OB1 MOL d           1.720  19.141  18.631  0.00  0.00    -0.387 OA
ATOM     34  H41 MOL d           2.335  19.864  18.669  0.00  0.00     0.210 HD
ENDBRANCH  32  33
BRANCH  32  35
ATOM     35  CA' MOL d           0.492  20.118  20.532  0.00  0.00     0.117 C 
BRANCH  35  36
ATOM     36  C'  MOL d          -0.123  19.800  21.913  0.00  0.00     0.225 C 
ATOM     37  O'  MOL d          -0.307  18.668  22.401  0.00  0.00    -0.273 OA
ATOM     38  N   MOL d          -0.446  20.905  22.547  0.00  0.00    -0.347 N 
ATOM     39  H42 MOL d          -0.193  21.742  22.062  0.00  0.00     0.163 HD
BRANCH  38  40
ATOM     40  CA  MOL d          -1.100  21.133  23.816  0.00  0.00     0.180 C 
BRANCH  40  41
ATOM     41  C   MOL d          -1.679  22.555  23.702  0.00  0.00     0.241 C 
ATOM     42  O   MOL d          -1.129  23.587  24.101  0.00  0.00    -0.271 OA
ATOM     43  N   MOL d          -2.843  22.555  23.074  0.00  0.00    -0.354 N 
ATOM     44  H53 MOL d          -3.190  21.663  22.784  0.00  0.00     0.162 HD
BRANCH  43  45
ATOM     45  CM  MOL d          -3.678  23.707  22.756  0.00  0.00     0.181 C 
BRANCH  45  46
ATOM     46  C2  MOL d          -5.057  23.273  22.381  0.00  0.00     0.051 A 
ATOM     47  N1  MOL d          -5.933  24.196  21.950  0.00  0.00    -0.264 NA
ATOM     48  C6  MOL d          -7.201  23.907  21.625  0.00  0.00     0.117 A 
ATOM     49  C5  MOL d          -7.663  22.585  21.712  0.00  0.00     0.019 A 
ATOM     50  C4  MOL d          -6.784  21.587  22.164  0.00  0.00     0.003 A 
ATOM     51  C3  MOL d          -5.470  21.937  22.492  0.00  0.00     0.029 A 
ENDBRANCH  45  46
ENDBRANCH  43  45
ENDBRANCH  40  41
BRANCH  40  52
ATOM     52  CB  MOL d          -0.412  20.701  25.124  0.00  0.00     0.013 C 
ATOM     53  CG2 MOL d           1.110  20.503  25.122  0.00  0.00     0.012 C 
BRANCH  52  54
ATOM     54  CG1 MOL d          -0.888  21.613  26.285  0.00  0.00     0.002 C 
ATOM     55  CD1 MOL d          -2.430  21.741  26.382  0.00  0.00     0.005 C 
ENDBRANCH  52  54
ENDBRANCH  40  52
ENDBRANCH  38  40
ENDBRANCH  35  36
BRANCH  35  56
ATOM     56  CB' MOL d          -0.593  20.446  19.564  0.00  0.00    -0.007 C 
ATOM     57  CG2 MOL d          -1.440  21.637  19.986  0.00  0.00     0.010 C 
ATOM     58  CG1 MOL d          -1.527  19.310  19.094  0.00  0.00     0.010 C 
ENDBRANCH  35  56
ENDBRANCH  32  35
ENDBRANCH  30  32
ENDBRANCH   1  30
BRANCH   1  59
ATOM     59  CB  MOL d           2.964  16.550  22.196  0.00  0.00     0.037 C 
BRANCH  59  60
ATOM     60  CG  MOL d           3.383  15.080  22.229  0.00  0.00    -0.012 C 
ATOM     61  CD2 MOL d           4.930  15.046  22.292  0.00  0.00     0.005 C 
ATOM     62  CE2 MOL d           5.494  13.656  22.512  0.00  0.00     0.000 C 
ATOM     63  CZ  MOL d           4.790  12.901  23.631  0.00  0.00     0.000 C 
ATOM     64  CE1 MOL d           3.254  12.911  23.455  0.00  0.00     0.000 C 
ATOM     65  CD1 MOL d           2.794  14.390  23.479  0.00  0.00     0.005 C 
ENDBRANCH  59  60
ENDBRANCH   1  59
TORSDOF 22
