1c3e_ligand

Created by X-TOOL on Fri Sep 26 17:34:16 2014
 54 56  0  0  0  0  0  0  0  0999 V2000
   22.3420    1.3780   22.7850  N 0  0  0  1  0  2
   23.3440    1.7360   22.0220  C 0  0  0  1  0  3
   24.5300    1.0800   22.1240  N 0  0  0  3  0  3
   23.2170    2.8230   21.0530  N 0  0  0  2  0  3
   22.0500    3.5340   20.8930  C 0  0  0  1  0  3
   22.0170    4.4390   20.0610  O 0  0  0  1  0  1
   20.8520    3.1520   21.7670  C 0  0  0  1  0  3
   21.0480    2.0520   22.7090  C 0  0  0  1  0  3
   19.9770    1.6480   23.5320  C 0  0  0  2  0  3
   18.7440    2.3200   23.4570  C 0  0  0  2  0  3
   17.2450    4.1620   22.5490  C 0  0  0  3  0  4
   17.3890    5.7150   22.9720  C 0  0  0  2  0  4
   16.2410    6.6090   22.5320  C 0  5  0  1  0  3
   16.2870    6.9380   21.3410  O 0  0  0  1  0  1
   18.5610    3.4000   22.5570  C 0  0  0  1  0  3
   19.6130    3.8110   21.7110  C 0  0  0  2  0  3
   18.3750    5.0170   26.7230  C 0  0  0  2  0  3
   18.9380    6.2320   27.1740  C 0  0  0  1  0  3
   19.5100    6.3100   28.6050  C 0  0  0  1  0  3
   20.1750    7.2940   28.9810  O 0  0  0  1  0  1
   18.9910    7.3270   26.2420  C 0  0  0  2  0  3
   18.4800    7.1920   24.9160  C 0  0  0  2  0  3
   17.9220    5.9320   24.4800  C 0  0  0  1  0  3
   17.8670    4.8710   25.4280  C 0  0  0  2  0  3
   19.2860    5.2610   29.4670  N 0  0  0  2  0  3
   19.7220    5.0840   30.8870  C 0  0  0  2  0  4
   18.9890    5.8600   32.0650  C 0  5  0  1  0  3
   18.4910    5.2830   33.0680  O 0  0  0  1  0  1
   21.2750    5.2520   31.0000  C 0  0  0  3  0  4
   22.1950    4.0120   31.3310  C 0  0  0  3  0  4
   21.4570    2.6750   31.3500  C 0  5  0  1  0  3
   20.9130    2.1760   30.3660  O 0  0  0  1  0  1
   21.5060    2.0640   32.5790  O 0  0  0  1  0  1
   18.9310    7.2150   31.9110  O 0  0  0  1  0  1
   15.8190    7.4850   23.2710  O 0  0  0  1  0  1
   24.6369    0.3116   22.8015  H 0  0  0  1  0  1
   25.3219    1.3513   21.5238  H 0  0  0  1  0  1
   24.0065    3.0583   20.4861  H 0  0  0  1  0  1
   20.1037    0.8210   24.2212  H 0  0  0  1  0  1
   17.9243    2.0088   24.0944  H 0  0  0  1  0  1
   16.8239    4.1165   21.5338  H 0  0  0  1  0  1
   16.5566    3.6728   23.2538  H 0  0  0  1  0  1
   18.2282    6.0704   22.3560  H 0  0  0  1  0  1
   19.4653    4.6330   21.0199  H 0  0  0  1  0  1
   18.3356    4.1723   27.4013  H 0  0  0  1  0  1
   19.4262    8.2702   26.5520  H 0  0  0  1  0  1
   18.5105    8.0352   24.2354  H 0  0  0  1  0  1
   17.4203    3.9266   25.1389  H 0  0  0  1  0  1
   18.7526    4.5048   29.0879  H 0  0  0  1  0  1
   19.5151    4.0246   31.0989  H 0  0  0  1  0  1
   21.4545    5.9967   31.7894  H 0  0  0  1  0  1
   21.6196    5.6508   30.0345  H 0  0  0  1  0  1
   22.6464    4.1714   32.3214  H 0  0  0  1  0  1
   22.9883    3.9578   30.5709  H 0  0  0  1  0  1
  1  2  2  0  0  1
  8  1  1  0  0  1
  2  3  1  0  0  2
  4  2  1  0  0  1
  5  4  1  0  0  1
  5  6  2  0  0  2
  7  5  1  0  0  1
  7  8  4  0  0  1
 16  7  4  0  0  1
  9  8  4  0  0  1
 10  9  4  0  0  1
 15 10  4  0  0  1
 12 11  1  0  0  2
 11 15  1  0  0  2
 12 13  1  0  0  2
 23 12  1  0  0  2
 13 14  2  0  0  2
 13 35  2  0  0  2
 15 16  4  0  0  1
 18 17  4  0  0  1
 17 24  4  0  0  1
 18 19  1  0  0  2
 21 18  4  0  0  1
 19 20  2  0  0  2
 19 25  1  0  0  2
 22 21  4  0  0  1
 22 23  4  0  0  1
 23 24  4  0  0  1
 25 26  1  0  0  2
 26 27  1  0  0  2
 26 29  1  0  0  2
 27 28  2  0  0  2
 27 34  2  0  0  2
 29 30  1  0  0  2
 30 31  1  0  0  2
 31 32  2  0  0  2
 31 33  2  0  0  2
  3 36  1  0  0  2
  3 37  1  0  0  2
  4 38  1  0  0  2
  9 39  1  0  0  2
 10 40  1  0  0  2
 11 41  1  0  0  2
 11 42  1  0  0  2
 12 43  1  0  0  2
 16 44  1  0  0  2
 17 45  1  0  0  2
 21 46  1  0  0  2
 22 47  1  0  0  2
 24 48  1  0  0  2
 25 49  1  0  0  2
 26 50  1  0  0  2
 29 51  1  0  0  2
 29 52  1  0  0  2
 30 53  1  0  0  2
 30 54  1  0  0  2
M  END
> <MOLECULAR_FORMULA>
C23H19N4O8

> <MOLECULAR_WEIGHT>
479.3

> <NUM_HB_ATOMS>
12 

> <NUM_ROTOR>
6  

> <XLOGP2>
-0.36

$$$$
