REMARK  8 active torsions:
REMARK  status: ('A' for Active; 'I' for Inactive)
REMARK    1  A    between atoms: C1_1  and  C2_4 
REMARK    2  A    between atoms: C2_4  and  O2_5 
REMARK    3  A    between atoms: C4_7  and  O4_8 
REMARK    4  A    between atoms: C5_9  and  O5_10 
REMARK    5  A    between atoms: C6_11  and  C7_13 
REMARK    6  A    between atoms: C7_13  and  O7_14 
REMARK    7  A    between atoms: C7_13  and  C8_15 
REMARK    8  A    between atoms: C8_15  and  O8_16 
ROOT
ATOM      1  C2  KDO d          -8.248   1.438   0.767  0.00  0.00     0.256 C 
ATOM      2  C3  KDO d          -7.499   1.622  -0.571  0.00  0.00     0.114 C 
ATOM      3  C4  KDO d          -6.315   2.577  -0.365  0.00  0.00     0.155 C 
ATOM      4  C5  KDO d          -6.883   3.912   0.137  0.00  0.00     0.178 C 
ATOM      5  C6  KDO d          -7.667   3.642   1.419  0.00  0.00     0.187 C 
ATOM      6  O6  KDO d          -8.725   2.722   1.214  0.00  0.00    -0.336 OA
ENDROOT
BRANCH   5   7
ATOM      7  C7  KDO d          -8.327   4.947   1.916  0.00  0.00     0.173 C 
BRANCH   7   8
ATOM      8  O7  KDO d          -7.349   5.972   2.129  0.00  0.00    -0.391 OA
ATOM      9  H10 KDO d          -7.781   6.762   2.433  0.00  0.00     0.210 HD
ENDBRANCH   7   8
BRANCH   7  10
ATOM     10  C8  KDO d          -9.066   4.625   3.231  0.00  0.00     0.198 C 
BRANCH  10  11
ATOM     11  O8  KDO d          -9.798   5.773   3.714  0.00  0.00    -0.398 OA
ATOM     12  H13 KDO d          -9.194   6.489   3.873  0.00  0.00     0.209 HD
ENDBRANCH  10  11
ENDBRANCH   7  10
ENDBRANCH   5   7
BRANCH   4  13
ATOM     13  O5  KDO d          -7.783   4.409  -0.840  0.00  0.00    -0.390 OA
ATOM     14  H7  KDO d          -7.319   4.539  -1.659  0.00  0.00     0.210 HD
ENDBRANCH   4  13
BRANCH   3  15
ATOM     15  O4  KDO d          -5.668   2.772  -1.642  0.00  0.00    -0.393 OA
ATOM     16  H5  KDO d          -6.288   3.147  -2.256  0.00  0.00     0.210 HD
ENDBRANCH   3  15
BRANCH   1  17
ATOM     17  C1  KDO d          -9.451   0.505   0.585  0.00  0.00     0.238 C 
ATOM     18  O1A KDO d         -10.437   0.908  -0.092  0.00  0.00    -0.644 OA
ATOM     19  O1B KDO d          -9.406  -0.583   1.202  0.00  0.00    -0.644 OA
ENDBRANCH   1  17
BRANCH   1  20
ATOM     20  O2  KDO d          -7.410   0.908   1.817  0.00  0.00    -0.357 OA
ATOM     21  H1  KDO d          -7.921   0.818   2.613  0.00  0.00     0.213 HD
ENDBRANCH   1  20
TORSDOF 8
