REMARK  6 active torsions:
REMARK  status: ('A' for Active; 'I' for Inactive)
REMARK    1  A    between atoms: N12_26  and  C2_2 
REMARK       I    between atoms: C13_5  and  N12_26 
REMARK       I    between atoms: N14_27  and  C13_5 
REMARK    2  A    between atoms: C16_6  and  N14_27 
REMARK    3  A    between atoms: O22_12  and  C19_9 
REMARK    4  A    between atoms: C23_29  and  O22_12 
REMARK    5  A    between atoms: C29_31  and  C27_15 
REMARK       I    between atoms: N30_17  and  C29_31 
REMARK    6  A    between atoms: C6_20  and  C7_21 
ROOT
ATOM      1  C16 BAX d         -20.550  -4.130  18.672  0.00  0.00     0.036 A 
ATOM      2  C17 BAX d         -19.822  -3.108  19.276  0.00  0.00     0.032 A 
ATOM      3  C18 BAX d         -20.435  -2.195  20.141  0.00  0.00     0.039 A 
ATOM      4  C19 BAX d         -21.819  -2.287  20.347  0.00  0.00     0.076 A 
ATOM      5  C20 BAX d         -22.554  -3.297  19.749  0.00  0.00     0.039 A 
ATOM      6  C21 BAX d         -21.930  -4.215  18.915  0.00  0.00     0.032 A 
ENDROOT
BRANCH   1   7
ATOM      7  N14 BAX d         -19.970  -5.025  17.855  0.00  0.00    -0.309 N 
ATOM      8  C13 BAX d         -18.708  -5.495  17.931  0.00  0.00     0.325 C 
ATOM      9  N12 BAX d         -18.375  -6.401  16.987  0.00  0.00    -0.309 N 
ATOM     10  O15 BAX d         -17.923  -5.131  18.824  0.00  0.00    -0.247 OA
ATOM     11  H15 BAX d         -19.078  -6.652  16.322  0.00  0.00     0.170 HD
ATOM     12  H16 BAX d         -20.535  -5.381  17.110  0.00  0.00     0.170 HD
BRANCH   9  13
ATOM     13  C2  BAX d         -17.154  -7.003  16.868  0.00  0.00     0.037 A 
ATOM     14  C1  BAX d         -16.369  -7.323  17.990  0.00  0.00     0.047 A 
ATOM     15  C6  BAX d         -15.112  -7.933  17.845  0.00  0.00     0.071 A 
ATOM     16  C5  BAX d         -14.674  -8.242  16.563  0.00  0.00     0.049 A 
ATOM     17  C4  BAX d         -15.460  -7.959  15.423  0.00  0.00     0.027 A 
ATOM     18 CL11 BAX d         -13.151  -9.000  16.378  0.00  0.00    -0.083 Cl
ATOM     19  C3  BAX d         -16.690  -7.337  15.595  0.00  0.00     0.031 A 
BRANCH  15  20
ATOM     20  C7  BAX d         -14.258  -8.275  19.099  0.00  0.00     0.419 C 
ATOM     21  F8  BAX d         -14.929  -7.886  20.138  0.00  0.00    -0.166 F 
ATOM     22  F9  BAX d         -14.026  -9.583  19.209  0.00  0.00    -0.166 F 
ATOM     23  F10 BAX d         -13.109  -7.634  19.185  0.00  0.00    -0.166 F 
ENDBRANCH  15  20
ENDBRANCH   9  13
ENDBRANCH   1   7
BRANCH   4  24
ATOM     24  O22 BAX d         -22.491  -1.447  21.208  0.00  0.00    -0.311 OA
BRANCH  24  25
ATOM     25  C23 BAX d         -22.347  -0.123  21.172  0.00  0.00     0.079 A 
ATOM     26  C24 BAX d         -22.185   0.561  19.976  0.00  0.00     0.056 A 
ATOM     27  C25 BAX d         -22.069   1.953  20.028  0.00  0.00     0.120 A 
ATOM     28  N26 BAX d         -22.119   2.580  21.200  0.00  0.00    -0.255 NA
ATOM     29  C27 BAX d         -22.295   1.943  22.374  0.00  0.00     0.126 A 
ATOM     30  C28 BAX d         -22.425   0.555  22.379  0.00  0.00     0.074 A 
BRANCH  29  31
ATOM     31  C29 BAX d         -22.351   2.740  23.690  0.00  0.00     0.269 C 
ATOM     32  N30 BAX d         -22.371   4.068  23.553  0.00  0.00    -0.360 N 
ATOM     33  C31 BAX d         -22.420   4.891  24.772  0.00  0.00     0.149 C 
ATOM     34  H11 BAX d         -22.353   4.492  22.647  0.00  0.00     0.162 HD
ATOM     35  O32 BAX d         -22.379   2.159  24.771  0.00  0.00    -0.266 OA
ENDBRANCH  29  31
ENDBRANCH  24  25
ENDBRANCH   4  24
TORSDOF 6
