REMARK  11 active torsions:
REMARK  status: ('A' for Active; 'I' for Inactive)
REMARK    1  A    between atoms: N_1  and  CA_2 
REMARK    2  A    between atoms: CA_2  and  CB_3 
REMARK    3  A    between atoms: CA_2  and  C_6 
REMARK    4  A    between atoms: CB_3  and  CG_4 
REMARK    5  A    between atoms: CG_4  and  SD_5 
REMARK    6  A    between atoms: SD_5  and  C5'_9 
REMARK    7  A    between atoms: C5'_9  and  C4'_10 
REMARK    8  A    between atoms: C3'_12  and  O3'_13 
REMARK    9  A    between atoms: C2'_14  and  O2'_15 
REMARK   10  A    between atoms: C1'_16  and  N9_17 
REMARK   11  A    between atoms: C6_21  and  N6_22 
ROOT
ATOM      1  C4' SAH d         -16.253 -12.374  15.594  0.00  0.00     0.165 C 
ATOM      2  O4' SAH d         -16.674 -13.454  16.425  0.00  0.00    -0.355 OA
ATOM      3  C3' SAH d         -17.341 -12.126  14.550  0.00  0.00     0.180 C 
ATOM      4  C2' SAH d         -18.443 -13.117  15.021  0.00  0.00     0.198 C 
ATOM      5  C1' SAH d         -17.659 -14.194  15.721  0.00  0.00     0.262 C 
ENDROOT
BRANCH   1   6
ATOM      6  C5' SAH d         -15.912 -11.190  16.511  0.00  0.00     0.108 C 
BRANCH   6   7
ATOM      7  SD  SAH d         -14.985  -9.904  15.702  0.00  0.00    -0.166 SA
BRANCH   7   8
ATOM      8  CG  SAH d         -13.402 -10.747  15.539  0.00  0.00     0.076 C 
BRANCH   8   9
ATOM      9  CB  SAH d         -12.369  -9.740  15.109  0.00  0.00     0.054 C 
BRANCH   9  10
ATOM     10  CA  SAH d         -11.036 -10.373  14.682  0.00  0.00     0.284 C 
BRANCH  10  11
ATOM     11  N   SAH d         -10.468 -11.279  15.700  0.00  0.00    -0.065 N 
ATOM     12  H1  SAH d         -11.134 -12.005  15.913  0.00  0.00     0.275 HD
ATOM     13  H2  SAH d         -10.261 -10.757  16.537  0.00  0.00     0.275 HD
ATOM     14  H3  SAH d          -9.621 -11.694  15.345  0.00  0.00     0.275 HD
ENDBRANCH  10  11
BRANCH  10  15
ATOM     15  C   SAH d         -10.019  -9.289  14.376  0.00  0.00     0.204 C 
ATOM     16  O   SAH d          -9.137  -9.000  15.197  0.00  0.00    -0.646 OA
ATOM     17  OXT SAH d         -10.159  -8.714  13.296  0.00  0.00    -0.646 OA
ENDBRANCH  10  15
ENDBRANCH   9  10
ENDBRANCH   8   9
ENDBRANCH   7   8
ENDBRANCH   6   7
ENDBRANCH   1   6
BRANCH   3  18
ATOM     18  O3' SAH d         -16.930 -12.369  13.217  0.00  0.00    -0.390 OA
ATOM     19  H13 SAH d         -17.654 -12.195  12.627  0.00  0.00     0.210 HD
ENDBRANCH   3  18
BRANCH   5  20
ATOM     20  N9  SAH d         -18.402 -14.973  16.712  0.00  0.00    -0.294 N 
ATOM     21  C8  SAH d         -19.280 -14.460  17.629  0.00  0.00     0.214 A 
ATOM     22  N7  SAH d         -19.696 -15.422  18.494  0.00  0.00    -0.236 NA
ATOM     23  C5  SAH d         -19.039 -16.566  18.076  0.00  0.00     0.149 A 
ATOM     24  C6  SAH d         -19.032 -17.902  18.558  0.00  0.00     0.155 A 
ATOM     25  C4  SAH d         -18.233 -16.280  16.954  0.00  0.00     0.167 A 
ATOM     26  N1  SAH d         -18.259 -18.782  17.936  0.00  0.00    -0.222 NA
ATOM     27  C2  SAH d         -17.539 -18.404  16.864  0.00  0.00     0.237 A 
ATOM     28  N3  SAH d         -17.459 -17.171  16.332  0.00  0.00    -0.222 NA
BRANCH  24  29
ATOM     29  N6  SAH d         -19.797 -18.271  19.621  0.00  0.00    -0.382 N 
ATOM     30  H18 SAH d         -19.778 -19.245  19.956  0.00  0.00     0.157 HD
ATOM     31  H19 SAH d         -20.395 -17.576  20.091  0.00  0.00     0.157 HD
ENDBRANCH  24  29
ENDBRANCH   5  20
BRANCH   4  32
ATOM     32  O2' SAH d         -19.277 -13.646  13.976  0.00  0.00    -0.388 OA
ATOM     33  H15 SAH d         -18.739 -14.116  13.350  0.00  0.00     0.210 HD
ENDBRANCH   4  32
TORSDOF 11
