REMARK  5 active torsions:
REMARK  status: ('A' for Active; 'I' for Inactive)
REMARK    1  A    between atoms: C1_1  and  O1_2 
REMARK    2  A    between atoms: O1_2  and  C26_33 
REMARK    3  A    between atoms: C4_5  and  C7_8 
REMARK    4  A    between atoms: C12_15  and  C14_17 
REMARK    5  A    between atoms: C19_24  and  N5_26 
ROOT
ATOM      1  C7  HT1 d          -0.302  -3.156   3.208  0.00  0.00     0.139 A 
ATOM      2  N1  HT1 d          -1.275  -3.398   2.306  0.00  0.00    -0.228 NA
ATOM      3  C8  HT1 d          -1.243  -2.446   1.379  0.00  0.00     0.086 A 
ATOM      4  C9  HT1 d          -0.201  -1.571   1.739  0.00  0.00     0.062 A 
ATOM      5  N2  HT1 d           0.347  -2.034   2.862  0.00  0.00    -0.338 N 
ATOM      6  C10 HT1 d           0.083  -0.456   0.960  0.00  0.00     0.033 A 
ATOM      7  C11 HT1 d          -0.673  -0.216  -0.179  0.00  0.00     0.017 A 
ATOM      8  C12 HT1 d          -1.720  -1.075  -0.544  0.00  0.00     0.012 A 
ATOM      9  C13 HT1 d          -2.016  -2.218   0.224  0.00  0.00     0.049 A 
ATOM     10  H5  HT1 d           1.131  -1.606   3.374  0.00  0.00     0.167 HD
ENDROOT
BRANCH   8  11
ATOM     11  C14 HT1 d          -2.434  -0.791  -1.712  0.00  0.00     0.139 A 
ATOM     12  N3  HT1 d          -3.322  -1.599  -2.311  0.00  0.00    -0.338 N 
ATOM     13  C15 HT1 d          -3.774  -0.984  -3.410  0.00  0.00     0.064 A 
ATOM     14  H9  HT1 d          -3.607  -2.532  -1.981  0.00  0.00     0.167 HD
ATOM     15  C16 HT1 d          -3.117   0.245  -3.495  0.00  0.00     0.086 A 
ATOM     16  C20 HT1 d          -4.705  -1.350  -4.394  0.00  0.00     0.055 A 
ATOM     17  N4  HT1 d          -2.301   0.331  -2.447  0.00  0.00    -0.228 NA
ATOM     18  C17 HT1 d          -3.378   1.111  -4.557  0.00  0.00     0.036 A 
ATOM     19  C18 HT1 d          -4.308   0.750  -5.541  0.00  0.00     0.026 A 
ATOM     20  C19 HT1 d          -4.983  -0.471  -5.461  0.00  0.00     0.013 A 
BRANCH  20  21
ATOM     21  N5  HT1 d          -5.854  -0.828  -6.438  0.00  0.00    -0.280 NA
ATOM     22  C21 HT1 d          -6.991   0.096  -6.614  0.00  0.00     0.123 C 
ATOM     23  C22 HT1 d          -7.824  -0.352  -7.843  0.00  0.00     0.249 C 
ATOM     24  N6  HT1 d          -8.272  -1.761  -7.692  0.00  0.00    -0.073 N 
ATOM     25  C23 HT1 d          -7.116  -2.650  -7.469  0.00  0.00     0.249 C 
ATOM     26  C25 HT1 d          -8.983  -2.217  -8.896  0.00  0.00     0.269 C 
ATOM     27  H17 HT1 d          -8.893  -1.820  -6.900  0.00  0.00     0.279 HD
ATOM     28  C24 HT1 d          -6.359  -2.187  -6.214  0.00  0.00     0.123 C 
ENDBRANCH  20  21
ENDBRANCH   8  11
BRANCH   1  29
ATOM     29  C4  HT1 d          -0.026  -3.947   4.327  0.00  0.00     0.010 A 
ATOM     30  C3  HT1 d          -0.722  -5.137   4.503  0.00  0.00     0.018 A 
ATOM     31  C2  HT1 d          -0.465  -5.934   5.617  0.00  0.00     0.037 A 
ATOM     32  C1  HT1 d           0.484  -5.548   6.557  0.00  0.00     0.068 A 
ATOM     33  C6  HT1 d           1.183  -4.350   6.393  0.00  0.00     0.037 A 
ATOM     34  C5  HT1 d           0.930  -3.547   5.276  0.00  0.00     0.018 A 
BRANCH  32  35
ATOM     35  O1  HT1 d           0.722  -6.342   7.643  0.00  0.00    -0.352 OA
BRANCH  35  36
ATOM     36  C26 HT1 d           0.012  -7.584   7.528  0.00  0.00     0.171 C 
ATOM     37  C27 HT1 d          -0.173  -8.191   8.925  0.00  0.00     0.034 C 
ENDBRANCH  35  36
ENDBRANCH  32  35
ENDBRANCH   1  29
TORSDOF 5
