REMARK  9 active torsions:
REMARK  status: ('A' for Active; 'I' for Inactive)
REMARK       I    between atoms: C23_2  and  N22_4 
REMARK    1  A    between atoms: N22_4  and  C19_5 
REMARK    2  A    between atoms: C16_10  and  O14_11 
REMARK    3  A    between atoms: O14_11  and  C13_12 
REMARK    4  A    between atoms: C13_12  and  C11_13 
REMARK    5  A    between atoms: C11_13  and  O11_14 
REMARK    6  A    between atoms: C11_13  and  C10_16 
REMARK       I    between atoms: C10_16  and  N9_18 
REMARK    7  A    between atoms: N9_18  and  C6_19 
REMARK    8  A    between atoms: C3_23  and  N8_24 
REMARK    9  A    between atoms: C4_27  and  C7_28 
ROOT
ATOM      1  C11 B68 d          29.736   0.817   4.198  0.00  0.00     0.156 C 
ATOM      2  C12 B68 d          29.659  -0.411   3.289  0.00  0.00     0.059 C 
ENDROOT
BRANCH   1   3
ATOM      3  C13 B68 d          29.966   0.372   5.634  0.00  0.00     0.223 C 
BRANCH   3   4
ATOM      4  O14 B68 d          30.229   1.512   6.468  0.00  0.00    -0.348 OA
BRANCH   4   5
ATOM      5  C16 B68 d          29.991   1.248   7.782  0.00  0.00     0.069 A 
ATOM      6  C17 B68 d          30.933   0.570   8.550  0.00  0.00     0.039 A 
ATOM      7  C18 B68 d          30.703   0.349   9.905  0.00  0.00     0.032 A 
ATOM      8  C19 B68 d          29.532   0.806  10.507  0.00  0.00     0.034 A 
ATOM      9  C20 B68 d          28.595   1.487   9.736  0.00  0.00     0.032 A 
ATOM     10  C21 B68 d          28.820   1.708   8.380  0.00  0.00     0.039 A 
BRANCH   8  11
ATOM     11  N22 B68 d          29.266   0.597  11.797  0.00  0.00    -0.328 N 
ATOM     12  C23 B68 d          30.074  -0.031  12.649  0.00  0.00     0.218 C 
ATOM     13  C24 B68 d          29.530  -0.153  14.074  0.00  0.00     0.117 C 
ATOM     14  O23 B68 d          31.189  -0.468  12.365  0.00  0.00    -0.274 OA
ATOM     15  H4  B68 d          28.395   0.937  12.151  0.00  0.00     0.169 HD
ENDBRANCH   8  11
ENDBRANCH   4   5
ENDBRANCH   3   4
ENDBRANCH   1   3
BRANCH   1  16
ATOM     16  O11 B68 d          30.808   1.670   3.788  0.00  0.00    -0.378 OA
ATOM     17  H11 B68 d          30.840   2.431   4.355  0.00  0.00     0.211 HD
ENDBRANCH   1  16
BRANCH   1  18
ATOM     18  C10 B68 d          28.424   1.600   4.138  0.00  0.00     0.258 C 
ATOM     19  O10 B68 d          27.354   1.042   4.376  0.00  0.00    -0.270 OA
ATOM     20  N9  B68 d          28.564   2.892   3.846  0.00  0.00    -0.325 N 
ATOM     21  H15 B68 d          29.493   3.228   3.691  0.00  0.00     0.169 HD
BRANCH  20  22
ATOM     22  C6  B68 d          27.570   3.774   3.743  0.00  0.00     0.035 A 
ATOM     23  C5  B68 d          26.235   3.443   3.969  0.00  0.00     0.048 A 
ATOM     24  C4  B68 d          25.203   4.380   3.910  0.00  0.00     0.083 A 
ATOM     25  C3  B68 d          25.543   5.706   3.619  0.00  0.00     0.118 A 
ATOM     26  C2  B68 d          26.872   6.042   3.375  0.00  0.00     0.039 A 
ATOM     27  C1  B68 d          27.886   5.091   3.435  0.00  0.00     0.032 A 
BRANCH  24  28
ATOM     28  C7  B68 d          23.757   3.899   4.137  0.00  0.00     0.419 C 
ATOM     29  F2  B68 d          23.300   4.327   5.310  0.00  0.00    -0.166 F 
ATOM     30  F1  B68 d          22.917   4.310   3.191  0.00  0.00    -0.166 F 
ATOM     31  F3  B68 d          23.671   2.572   4.153  0.00  0.00    -0.166 F 
ENDBRANCH  24  28
BRANCH  25  32
ATOM     32  N8  B68 d          24.668   6.711   3.577  0.00  0.00    -0.115 N 
ATOM     33  O1  B68 d          23.301   6.566   3.934  0.00  0.00    -0.532 OA
ATOM     34  O2  B68 d          25.123   8.019   3.262  0.00  0.00    -0.532 OA
ENDBRANCH  25  32
ENDBRANCH  20  22
ENDBRANCH   1  18
TORSDOF 9
