REMARK  4 active torsions:
REMARK  status: ('A' for Active; 'I' for Inactive)
REMARK    1  A    between atoms: C03_3  and  S11_11 
REMARK    2  A    between atoms: C06_6  and  C07_7 
REMARK       I    between atoms: C07_7  and  N09_9 
REMARK    3  A    between atoms: N09_9  and  C10_10 
REMARK    4  A    between atoms: S11_11  and  NP2_12 
ROOT
ATOM      1  C07 IOE d          -4.464   3.827  13.564  0.00  0.00     0.251 C 
ATOM      2  O08 IOE d          -5.418   4.603  13.297  0.00  0.00    -0.268 OA
ATOM      3  N09 IOE d          -3.129   4.166  13.066  0.00  0.00    -0.352 N 
ATOM      4  H5  IOE d          -2.800   3.847  12.177  0.00  0.00     0.163 HD
ENDROOT
BRANCH   1   5
ATOM      5  C06 IOE d          -4.831   2.576  14.392  0.00  0.00     0.032 A 
ATOM      6  C01 IOE d          -3.851   1.617  14.743  0.00  0.00     0.018 A 
ATOM      7  C02 IOE d          -4.180   0.463  15.489  0.00  0.00     0.026 A 
ATOM      8  C03 IOE d          -5.554   0.241  15.911  0.00  0.00     0.079 A 
ATOM      9  C04 IOE d          -6.505   1.204  15.558  0.00  0.00     0.026 A 
ATOM     10  C05 IOE d          -6.137   2.352  14.810  0.00  0.00     0.018 A 
BRANCH   8  11
ATOM     11  S11 IOE d          -5.944  -1.263  16.865  0.00  0.00     0.256 S 
ATOM     12  O14 IOE d          -5.324  -0.927  18.185  0.00  0.00    -0.201 OA
ATOM     13  O13 IOE d          -7.409  -1.091  17.027  0.00  0.00    -0.201 OA
BRANCH  11  14
ATOM     14  NP2 IOE d          -5.391  -2.719  16.119  0.00  0.00    -0.324 N 
ATOM     15  H8  IOE d          -5.554  -3.601  16.561  0.00  0.00     0.169 HD
ATOM     16  H9  IOE d          -4.907  -2.680  15.245  0.00  0.00     0.169 HD
ENDBRANCH  11  14
ENDBRANCH   8  11
ENDBRANCH   1   5
BRANCH   3  17
ATOM     17  C10 IOE d          -2.308   4.994  13.939  0.00  0.00     0.167 C 
ATOM     18  C15 IOE d          -2.547   6.376  14.134  0.00  0.00     0.037 A 
ATOM     19  C20 IOE d          -1.853   7.076  15.235  0.00  0.00     0.130 A 
ATOM     20  C16 IOE d          -3.481   7.105  13.243  0.00  0.00     0.130 A 
ATOM     21  C19 IOE d          -2.084   8.492  15.451  0.00  0.00     0.085 A 
ATOM     22  F21 IOE d          -0.993   6.394  16.051  0.00  0.00    -0.205 F 
ATOM     23  C18 IOE d          -3.003   9.239  14.591  0.00  0.00     0.122 A 
ATOM     24  C17 IOE d          -3.696   8.547  13.492  0.00  0.00     0.085 A 
ATOM     25  F22 IOE d          -3.214  10.574  14.805  0.00  0.00    -0.206 F 
ATOM     26  F23 IOE d          -4.128   6.478  12.216  0.00  0.00    -0.205 F 
ENDBRANCH   3  17
TORSDOF 4
