REMARK WARNING: 32 MAX_TORS EXCEEDED!!!
REMARK  35 active torsions:
REMARK  status: ('A' for Active; 'I' for Inactive)
REMARK    1  A    between atoms: C1_1  and  C7_11 
REMARK    2  A    between atoms: C2_3  and  O4_8 
REMARK    3  A    between atoms: O2_4  and  C3_5 
REMARK    4  A    between atoms: C45_50  and  O2_4 
REMARK    5  A    between atoms: C4_7  and  O3_6 
REMARK    6  A    between atoms: C5_9  and  O11_15 
REMARK    7  A    between atoms: C7_11  and  O5_10 
REMARK    8  A    between atoms: O10_13  and  C25_31 
REMARK    9  A    between atoms: C26_32  and  O10_13 
REMARK   10  A    between atoms: O11_15  and  C27_33 
REMARK   11  A    between atoms: C13_18  and  C12_16 
REMARK   12  A    between atoms: C28_34  and  O12_17 
REMARK   13  A    between atoms: O12_17  and  C29_35 
REMARK   14  A    between atoms: C14_20  and  C13_18 
REMARK   15  A    between atoms: C15_21  and  C14_20 
REMARK   16  A    between atoms: C16_22  and  C15_21 
REMARK   17  A    between atoms: C17_23  and  C16_22 
REMARK   18  A    between atoms: C18_24  and  C17_23 
REMARK   19  A    between atoms: C19_25  and  C18_24 
REMARK   20  A    between atoms: C20_26  and  C19_25 
REMARK   21  A    between atoms: C21_27  and  C20_26 
REMARK   22  A    between atoms: C22_28  and  C21_27 
REMARK   23  A    between atoms: C23_29  and  C22_28 
REMARK   24  A    between atoms: C24_30  and  C23_29 
REMARK   25  A    between atoms: C25_31  and  C24_30 
REMARK   26  A    between atoms: C27_33  and  C26_32 
REMARK   27  A    between atoms: C26_32  and  C28_34 
REMARK   28  A    between atoms: C29_35  and  C30_36 
REMARK   29  A    between atoms: C30_36  and  C31_37 
REMARK   30  A    between atoms: C31_37  and  C32_38 
REMARK   31  A    between atoms: C32_38  and  C33_39 
REMARK   32  A    between atoms: C33_39  and  C34_40 
REMARK   33  A    between atoms: C42_44  and  N42_45 
REMARK   34  A    between atoms: C43_47  and  O42_46 
REMARK   35  A    between atoms: C44_48  and  N44_49 
REMARK       I    between atoms: N44_49  and  C48_52 
ROOT
ATOM      1  C1  LTC d          18.459  20.547 -22.326  0.00  0.00     0.179 C 
ATOM      2  O1  LTC d          17.306  21.300 -22.809  0.00  0.00    -0.348 OA
ATOM      3  C2  LTC d          18.757  20.773 -20.819  0.00  0.00     0.181 C 
ATOM      4  C3  LTC d          17.746  21.711 -20.105  0.00  0.00     0.189 C 
ATOM      5  C4  LTC d          16.296  21.329 -20.509  0.00  0.00     0.205 C 
ATOM      6  C5  LTC d          16.069  21.237 -22.039  0.00  0.00     0.291 C 
ENDROOT
BRANCH   6   7
ATOM      7  O11 LTC d          15.093  22.206 -22.512  0.00  0.00    -0.356 OA
BRANCH   7   8
ATOM      8  C27 LTC d          13.688  21.886 -22.381  0.00  0.00     0.205 C 
BRANCH   8   9
ATOM      9  C26 LTC d          13.000  21.413 -23.678  0.00  0.00     0.180 C 
BRANCH   9  10
ATOM     10  O10 LTC d          13.963  21.366 -24.751  0.00  0.00    -0.312 OA
BRANCH  10  11
ATOM     11  C25 LTC d          13.796  20.403 -25.875  0.00  0.00     0.259 C 
ATOM     12  O9  LTC d          12.701  19.912 -26.139  0.00  0.00    -0.265 OA
BRANCH  11  13
ATOM     13  C24 LTC d          15.000  20.028 -26.730  0.00  0.00     0.111 C 
BRANCH  13  14
ATOM     14  C23 LTC d          16.063  19.348 -25.861  0.00  0.00     0.010 C 
BRANCH  14  15
ATOM     15  C22 LTC d          15.469  18.213 -25.026  0.00  0.00     0.000 C 
BRANCH  15  16
ATOM     16  C21 LTC d          15.253  16.960 -25.872  0.00  0.00     0.000 C 
BRANCH  16  17
ATOM     17  C20 LTC d          15.195  15.645 -25.080  0.00  0.00     0.000 C 
BRANCH  17  18
ATOM     18  C19 LTC d          16.574  14.993 -24.978  0.00  0.00     0.000 C 
BRANCH  18  19
ATOM     19  C18 LTC d          17.198  14.383 -26.218  0.00  0.00     0.000 C 
BRANCH  19  20
ATOM     20  C17 LTC d          18.737  14.296 -26.198  0.00  0.00     0.000 C 
BRANCH  20  21
ATOM     21  C16 LTC d          19.469  14.800 -24.934  0.00  0.00     0.000 C 
BRANCH  21  22
ATOM     22  C15 LTC d          20.836  15.483 -25.145  0.00  0.00     0.000 C 
BRANCH  22  23
ATOM     23  C14 LTC d          20.718  17.005 -25.376  0.00  0.00     0.000 C 
BRANCH  23  24
ATOM     24  C13 LTC d          21.922  17.831 -24.899  0.00  0.00    -0.000 C 
BRANCH  24  25
ATOM     25  C12 LTC d          23.077  17.885 -25.911  0.00  0.00    -0.005 C 
ATOM     26  C11 LTC d          24.232  18.785 -25.469  0.00  0.00     0.005 C 
ENDBRANCH  24  25
ENDBRANCH  23  24
ENDBRANCH  22  23
ENDBRANCH  21  22
ENDBRANCH  20  21
ENDBRANCH  19  20
ENDBRANCH  18  19
ENDBRANCH  17  18
ENDBRANCH  16  17
ENDBRANCH  15  16
ENDBRANCH  14  15
ENDBRANCH  13  14
ENDBRANCH  11  13
ENDBRANCH  10  11
ENDBRANCH   9  10
BRANCH   9  27
ATOM     27  C28 LTC d          11.787  22.270 -24.063  0.00  0.00     0.213 C 
BRANCH  27  28
ATOM     28  O12 LTC d          10.600  21.463 -24.246  0.00  0.00    -0.319 OA
BRANCH  28  29
ATOM     29  C29 LTC d           9.813  21.362 -25.504  0.00  0.00     0.258 C 
ATOM     30  O13 LTC d          10.379  21.429 -26.608  0.00  0.00    -0.265 OA
BRANCH  29  31
ATOM     31  C30 LTC d           8.298  21.164 -25.410  0.00  0.00     0.111 C 
BRANCH  31  32
ATOM     32  C31 LTC d           7.648  21.056 -26.789  0.00  0.00     0.010 C 
BRANCH  32  33
ATOM     33  C32 LTC d           6.196  21.537 -26.810  0.00  0.00     0.000 C 
BRANCH  33  34
ATOM     34  C33 LTC d           6.035  22.752 -27.735  0.00  0.00    -0.000 C 
BRANCH  34  35
ATOM     35  C34 LTC d           5.400  22.446 -29.094  0.00  0.00    -0.005 C 
ATOM     36  C35 LTC d           6.032  23.238 -30.229  0.00  0.00     0.005 C 
ENDBRANCH  34  35
ENDBRANCH  33  34
ENDBRANCH  32  33
ENDBRANCH  31  32
ENDBRANCH  29  31
ENDBRANCH  28  29
ENDBRANCH  27  28
ENDBRANCH   9  27
ENDBRANCH   8   9
ENDBRANCH   7   8
ENDBRANCH   6   7
BRANCH   5  37
ATOM     37  O3  LTC d          15.287  22.193 -19.946  0.00  0.00    -0.388 OA
ATOM     38  H4  LTC d          15.335  22.157 -18.998  0.00  0.00     0.210 HD
ENDBRANCH   5  37
BRANCH   1  39
ATOM     39  C7  LTC d          18.307  19.054 -22.621  0.00  0.00     0.198 C 
BRANCH  39  40
ATOM     40  O5  LTC d          16.940  18.670 -22.403  0.00  0.00    -0.398 OA
ATOM     41  H8  LTC d          16.376  19.170 -22.981  0.00  0.00     0.209 HD
ENDBRANCH  39  40
ENDBRANCH   1  39
BRANCH   4  42
ATOM     42  O2  LTC d          18.068  21.703 -18.683  0.00  0.00    -0.348 OA
BRANCH  42  43
ATOM     43  C45 LTC d          17.104  21.922 -17.619  0.00  0.00     0.286 C 
ATOM     44  O41 LTC d          16.293  20.743 -17.529  0.00  0.00    -0.352 OA
ATOM     45  C41 LTC d          15.461  20.652 -16.361  0.00  0.00     0.153 C 
ATOM     46  C42 LTC d          15.470  21.918 -15.508  0.00  0.00     0.242 C 
ATOM     47  C47 LTC d          13.973  20.327 -16.512  0.00  0.00     0.042 C 
ATOM     48  C43 LTC d          15.314  23.206 -16.343  0.00  0.00     0.178 C 
ATOM     49  C44 LTC d          16.253  23.253 -17.580  0.00  0.00     0.170 C 
BRANCH  46  50
ATOM     50  N42 LTC d          14.471  21.819 -14.453  0.00  0.00    -0.070 N 
ATOM     51  H60 LTC d          14.486  22.659 -13.896  0.00  0.00     0.274 HD
ATOM     52  H61 LTC d          14.678  21.025 -13.868  0.00  0.00     0.274 HD
ATOM     53  H62 LTC d          13.558  21.704 -14.864  0.00  0.00     0.274 HD
ENDBRANCH  46  50
BRANCH  48  54
ATOM     54  O42 LTC d          13.917  23.420 -16.657  0.00  0.00    -0.391 OA
ATOM     55  H63 LTC d          13.827  24.214 -17.171  0.00  0.00     0.210 HD
ENDBRANCH  48  54
BRANCH  49  56
ATOM     56  N44 LTC d          17.050  24.510 -17.664  0.00  0.00    -0.349 N 
ATOM     57  C48 LTC d          16.721  25.847 -17.667  0.00  0.00     0.214 C 
ATOM     58  O48 LTC d          15.605  26.359 -17.680  0.00  0.00    -0.274 OA
ATOM     59  C49 LTC d          17.866  26.825 -17.475  0.00  0.00     0.117 C 
ATOM     60  H66 LTC d          18.034  24.347 -17.733  0.00  0.00     0.163 HD
ENDBRANCH  49  56
ENDBRANCH  42  43
ENDBRANCH   4  42
BRANCH   3  61
ATOM     61  O4  LTC d          20.141  21.150 -20.588  0.00  0.00    -0.390 OA
ATOM     62  H6  LTC d          20.325  21.119 -19.657  0.00  0.00     0.210 HD
ENDBRANCH   3  61
TORSDOF 35
