REMARK  19 active torsions:
REMARK  status: ('A' for Active; 'I' for Inactive)
REMARK    1  A    between atoms: C2_2  and  O2_39 
REMARK    2  A    between atoms: C7_21  and  C5_5 
REMARK    3  A    between atoms: C9_7  and  N1_8 
REMARK    4  A    between atoms: C11_10  and  C9_7 
REMARK    5  A    between atoms: C9_7  and  C7_21 
REMARK       I    between atoms: N1_8  and  C10_9 
REMARK    6  A    between atoms: C10_9  and  O9_18 
REMARK       I    between atoms: N2_11  and  C11_10 
REMARK    7  A    between atoms: C12_12  and  N2_11 
REMARK    8  A    between atoms: C13_13  and  C12_12 
REMARK    9  A    between atoms: C15_15  and  C13_13 
REMARK   10  A    between atoms: C14_14  and  O1_16 
REMARK   11  A    between atoms: C15_15  and  C14_14 
REMARK   12  A    between atoms: O1_16  and  C32_26 
REMARK   13  A    between atoms: O9_18  and  C41_40 
REMARK   14  A    between atoms: O2_39  and  C8_19 
REMARK   15  A    between atoms: C8_19  and  C24_23 
REMARK   16  A    between atoms: C8_19  and  C16_22 
REMARK   17  A    between atoms: C36_30  and  O13_36 
REMARK   18  A    between atoms: C37_31  and  C38_32 
REMARK   19  A    between atoms: C38_32  and  O12_34 
ROOT
ATOM      1  C9  MOL d          31.142  31.354  16.983  0.00  0.00     0.183 C 
ENDROOT
BRANCH   1   2
ATOM      2  N1  MOL d          30.384  32.359  16.250  0.00  0.00    -0.323 N 
ATOM      3  C10 MOL d          30.374  32.609  14.936  0.00  0.00     0.362 C 
ATOM      4  O4  MOL d          31.065  31.961  14.193  0.00  0.00    -0.238 OA
ATOM      5  H6  MOL d          29.790  32.941  16.805  0.00  0.00     0.165 HD
BRANCH   3   6
ATOM      6  O9  MOL d          29.556  33.592  14.516  0.00  0.00    -0.294 OA
BRANCH   6   7
ATOM      7  C41 MOL d          28.352  33.433  13.620  0.00  0.00     0.061 C 
ATOM      8  C42 MOL d          27.608  32.083  13.908  0.00  0.00     0.046 C 
ATOM      9  C43 MOL d          28.800  33.454  12.141  0.00  0.00     0.046 C 
ATOM     10  C44 MOL d          27.319  34.576  13.860  0.00  0.00     0.046 C 
ENDBRANCH   6   7
ENDBRANCH   3   6
ENDBRANCH   1   2
BRANCH   1  11
ATOM     11  C11 MOL d          30.456  29.966  17.205  0.00  0.00     0.240 C 
ATOM     12  N2  MOL d          29.149  30.025  17.495  0.00  0.00    -0.359 N 
ATOM     13  H7  MOL d          28.720  30.928  17.522  0.00  0.00     0.162 HD
ATOM     14  O8  MOL d          31.130  28.918  17.136  0.00  0.00    -0.271 OA
BRANCH  12  15
ATOM     15  C12 MOL d          28.295  28.848  17.778  0.00  0.00     0.122 C 
BRANCH  15  16
ATOM     16  C13 MOL d          27.169  29.310  18.745  0.00  0.00     0.022 C 
BRANCH  16  17
ATOM     17  C15 MOL d          27.688  30.315  19.811  0.00  0.00     0.028 C 
BRANCH  17  18
ATOM     18  C14 MOL d          26.618  30.792  20.765  0.00  0.00     0.175 C 
BRANCH  18  19
ATOM     19  O1  MOL d          26.216  29.698  21.598  0.00  0.00    -0.350 OA
BRANCH  19  20
ATOM     20  C32 MOL d          24.913  29.680  22.184  0.00  0.00     0.087 A 
ATOM     21  C33 MOL d          24.157  30.905  22.499  0.00  0.00     0.038 A 
ATOM     22  C34 MOL d          22.856  30.833  23.090  0.00  0.00     0.005 A 
ATOM     23  C35 MOL d          22.277  29.556  23.380  0.00  0.00     0.038 A 
ATOM     24  C36 MOL d          22.985  28.349  23.085  0.00  0.00     0.084 A 
ATOM     25  C37 MOL d          24.306  28.389  22.487  0.00  0.00     0.105 A 
BRANCH  24  26
ATOM     26  O13 MOL d          22.348  27.175  23.401  0.00  0.00    -0.360 OA
ATOM     27  H25 MOL d          21.499  27.369  23.780  0.00  0.00     0.217 HD
ENDBRANCH  24  26
BRANCH  25  28
ATOM     28  C38 MOL d          25.003  27.099  22.203  0.00  0.00     0.298 C 
ATOM     29  O11 MOL d          25.285  26.334  23.106  0.00  0.00    -0.259 OA
BRANCH  28  30
ATOM     30  O12 MOL d          25.280  26.854  20.901  0.00  0.00    -0.322 OA
ATOM     31  C39 MOL d          25.950  25.626  20.481  0.00  0.00     0.213 C 
ENDBRANCH  28  30
ENDBRANCH  25  28
ENDBRANCH  19  20
ENDBRANCH  18  19
ENDBRANCH  17  18
ENDBRANCH  16  17
ENDBRANCH  15  16
ENDBRANCH  12  15
ENDBRANCH   1  11
BRANCH   1  32
ATOM     32  C7  MOL d          31.570  31.991  18.361  0.00  0.00     0.073 C 
BRANCH  32  33
ATOM     33  C5  MOL d          32.357  31.012  19.229  0.00  0.00    -0.056 A 
ATOM     34  C4  MOL d          31.708  30.350  20.319  0.00  0.00     0.010 A 
ATOM     35  C3  MOL d          32.421  29.412  21.126  0.00  0.00     0.037 A 
ATOM     36  C2  MOL d          33.786  29.107  20.876  0.00  0.00     0.070 A 
ATOM     37  C1  MOL d          34.463  29.788  19.757  0.00  0.00     0.037 A 
ATOM     38  C6  MOL d          33.746  30.721  18.957  0.00  0.00     0.010 A 
BRANCH  36  39
ATOM     39  O2  MOL d          34.290  28.163  21.774  0.00  0.00    -0.324 OA
BRANCH  39  40
ATOM     40  C8  MOL d          35.643  27.665  21.750  0.00  0.00     0.329 C 
BRANCH  40  41
ATOM     41  C24 MOL d          35.644  26.429  22.674  0.00  0.00     0.214 C 
ATOM     42  O6  MOL d          34.940  26.274  23.617  0.00  0.00    -0.646 OA
ATOM     43  O7  MOL d          36.559  25.491  22.307  0.00  0.00    -0.646 OA
ENDBRANCH  40  41
BRANCH  40  44
ATOM     44  C16 MOL d          36.683  28.728  22.195  0.00  0.00     0.214 C 
ATOM     45  O3  MOL d          36.436  29.697  22.833  0.00  0.00    -0.646 OA
ATOM     46  O5  MOL d          37.935  28.439  21.761  0.00  0.00    -0.646 OA
ENDBRANCH  40  44
ENDBRANCH  39  40
ENDBRANCH  36  39
ENDBRANCH  32  33
ENDBRANCH   1  32
TORSDOF 19
