REMARK  10 active torsions:
REMARK  status: ('A' for Active; 'I' for Inactive)
REMARK    1  A    between atoms: C19_2  and  C18_4 
REMARK    2  A    between atoms: C20_6  and  C21_7 
REMARK    3  A    between atoms: C21_7  and  C22_8 
REMARK    4  A    between atoms: C22_8  and  C23_9 
REMARK    5  A    between atoms: C23_9  and  O24_10 
REMARK    6  A    between atoms: O24_10  and  C25_11 
REMARK    7  A    between atoms: C28_14  and  C31_15 
REMARK    8  A    between atoms: C31_15  and  N4_16 
REMARK    9  A    between atoms: C17_20  and  C14_21 
REMARK   10  A    between atoms: N2_31  and  N1_32 
ROOT
ATOM      1  C18 X0B d         -15.346 -16.148 -47.215  0.00  0.00     0.147 A 
ATOM      2  N3  X0B d         -16.528 -16.638 -46.793  0.00  0.00    -0.233 NA
ATOM      3  C20 X0B d         -15.311 -14.754 -47.266  0.00  0.00     0.020 A 
ATOM      4  S1  X0B d         -16.827 -14.047 -46.768  0.00  0.00    -0.072 SA
ATOM      5  C17 X0B d         -17.433 -15.675 -46.522  0.00  0.00     0.109 A 
ENDROOT
BRANCH   5   6
ATOM      6  C14 X0B d         -18.737 -15.853 -46.069  0.00  0.00     0.001 A 
ATOM      7  C15 X0B d         -19.053 -17.098 -45.510  0.00  0.00     0.015 A 
ATOM      8  C16 X0B d         -20.344 -17.343 -45.045  0.00  0.00     0.009 A 
ATOM      9  C11 X0B d         -21.313 -16.356 -45.141  0.00  0.00    -0.046 A 
ATOM     10  C10 X0B d         -22.720 -16.603 -44.642  0.00  0.00     0.040 C 
ATOM     11  C12 X0B d         -20.999 -15.120 -45.691  0.00  0.00    -0.003 A 
ATOM     12  C9  X0B d         -23.698 -15.971 -45.636  0.00  0.00     0.011 C 
ATOM     13  C8  X0B d         -23.538 -14.451 -45.697  0.00  0.00     0.062 C 
ATOM     14  C7  X0B d         -22.073 -14.070 -45.769  0.00  0.00     0.065 C 
ATOM     15  N2  X0B d         -21.784 -12.840 -45.892  0.00  0.00    -0.177 NA
ATOM     16  C13 X0B d         -19.708 -14.858 -46.153  0.00  0.00     0.028 A 
BRANCH  15  17
ATOM     17  N1  X0B d         -22.734 -11.908 -45.949  0.00  0.00    -0.255 N 
ATOM     18  C6  X0B d         -22.362 -10.623 -45.731  0.00  0.00     0.188 A 
ATOM     19  S   X0B d         -20.705 -10.252 -45.362  0.00  0.00    -0.049 SA
ATOM     20  N   X0B d         -23.246  -9.598 -45.802  0.00  0.00    -0.222 NA
ATOM     21  C3  X0B d         -21.262  -8.649 -45.306  0.00  0.00     0.037 A 
ATOM     22  C2  X0B d         -20.384  -7.606 -45.029  0.00  0.00     0.021 A 
ATOM     23  C4  X0B d         -22.611  -8.410 -45.556  0.00  0.00     0.076 A 
ATOM     24  C1  X0B d         -20.872  -6.303 -44.986  0.00  0.00     0.002 A 
ATOM     25  C   X0B d         -22.223  -6.051 -45.235  0.00  0.00     0.002 A 
ATOM     26  C5  X0B d         -23.095  -7.103 -45.518  0.00  0.00     0.033 A 
ATOM     27  H25 X0B d         -23.713 -12.154 -46.151  0.00  0.00     0.191 HD
ENDBRANCH  15  17
ENDBRANCH   5   6
BRANCH   1  28
ATOM     28  C19 X0B d         -14.185 -17.004 -47.557  0.00  0.00     0.230 C 
ATOM     29  O1  X0B d         -14.226 -18.168 -47.101  0.00  0.00    -0.643 OA
ATOM     30  O   X0B d         -13.232 -16.578 -48.249  0.00  0.00    -0.643 OA
ENDBRANCH   1  28
BRANCH   3  31
ATOM     31  C21 X0B d         -14.238 -13.768 -47.680  0.00  0.00     0.051 C 
BRANCH  31  32
ATOM     32  C22 X0B d         -14.328 -13.597 -49.206  0.00  0.00     0.032 C 
BRANCH  32  33
ATOM     33  C23 X0B d         -13.008 -13.171 -49.849  0.00  0.00     0.176 C 
BRANCH  33  34
ATOM     34  O24 X0B d         -12.589 -11.913 -49.292  0.00  0.00    -0.351 OA
BRANCH  34  35
ATOM     35  C25 X0B d         -11.430 -11.308 -49.706  0.00  0.00     0.068 A 
ATOM     36  C30 X0B d         -11.100 -10.049 -49.210  0.00  0.00     0.037 A 
ATOM     37  C29 X0B d          -9.922  -9.433 -49.619  0.00  0.00     0.011 A 
ATOM     38  C28 X0B d          -9.074 -10.069 -50.524  0.00  0.00    -0.033 A 
ATOM     39  C27 X0B d          -9.404 -11.327 -51.018  0.00  0.00     0.011 A 
ATOM     40  C26 X0B d         -10.581 -11.955 -50.602  0.00  0.00     0.037 A 
BRANCH  38  41
ATOM     41  C31 X0B d          -7.788  -9.397 -50.968  0.00  0.00     0.268 C 
BRANCH  41  42
ATOM     42  N4  X0B d          -7.166 -10.179 -52.024  0.00  0.00    -0.075 N 
ATOM     43  H11 X0B d          -6.312  -9.730 -52.316  0.00  0.00     0.274 HD
ATOM     44  H12 X0B d          -7.796 -10.246 -52.808  0.00  0.00     0.274 HD
ATOM     45  H13 X0B d          -6.958 -11.103 -51.680  0.00  0.00     0.274 HD
ENDBRANCH  41  42
ENDBRANCH  38  41
ENDBRANCH  34  35
ENDBRANCH  33  34
ENDBRANCH  32  33
ENDBRANCH  31  32
ENDBRANCH   3  31
TORSDOF 10
