REMARK  23 active torsions:
REMARK  status: ('A' for Active; 'I' for Inactive)
REMARK    1  A    between atoms: O1_1  and  C8_8 
REMARK    2  A    between atoms: C19_19  and  O1_1 
REMARK    3  A    between atoms: C5_5  and  C19_19 
REMARK       I    between atoms: C8_8  and  N10_10 
REMARK    4  A    between atoms: N10_10  and  C11_11 
REMARK    5  A    between atoms: C11_11  and  C12_12 
REMARK    6  A    between atoms: C11_11  and  C21_20 
REMARK    7  A    between atoms: C12_12  and  C13_13 
REMARK    8  A    between atoms: C21_20  and  O22_21 
REMARK    9  A    between atoms: C21_20  and  C_22 
REMARK       I    between atoms: C_22  and  N_24 
REMARK   10  A    between atoms: N_24  and  CA_25 
REMARK   11  A    between atoms: CA_25  and  C_26 
REMARK   12  A    between atoms: CA_25  and  CB_28 
REMARK       I    between atoms: C_26  and  N_35 
REMARK   13  A    between atoms: CB_28  and  CG_29 
REMARK   14  A    between atoms: N_35  and  CA_36 
REMARK   15  A    between atoms: CA_36  and  C_37 
REMARK   16  A    between atoms: CA_36  and  CB_39 
REMARK       I    between atoms: C_37  and  N_44 
REMARK   17  A    between atoms: CB_39  and  CG_40 
REMARK   18  A    between atoms: CG_40  and  CD_41 
REMARK   19  A    between atoms: N_44  and  CA_45 
REMARK   20  A    between atoms: CA_45  and  C_46 
REMARK   21  A    between atoms: CA_45  and  CB_48 
REMARK       I    between atoms: C_46  and  N_53 
REMARK   22  A    between atoms: CB_48  and  CG_49 
REMARK   23  A    between atoms: CG_49  and  CD_50 
ROOT
ATOM      1  CA  MOL d          18.134   7.312  84.620  0.00  0.00     0.180 C 
ENDROOT
BRANCH   1   2
ATOM      2  N   MOL d          16.863   7.191  83.951  0.00  0.00    -0.345 N 
ATOM      3  C   MOL d          15.890   6.477  84.493  0.00  0.00     0.249 C 
ATOM      4  O   MOL d          15.906   6.099  85.698  0.00  0.00    -0.271 OA
ATOM      5  H19 MOL d          16.716   7.648  83.074  0.00  0.00     0.163 HD
BRANCH   3   6
ATOM      6  C21 MOL d          14.719   6.269  83.586  0.00  0.00     0.232 C 
BRANCH   6   7
ATOM      7  C11 MOL d          13.583   7.308  83.831  0.00  0.00     0.129 C 
BRANCH   7   8
ATOM      8  N10 MOL d          12.971   7.705  82.570  0.00  0.00    -0.329 N 
ATOM      9  C8  MOL d          13.599   8.660  81.781  0.00  0.00     0.361 C 
ATOM     10  O9  MOL d          14.373   9.530  82.222  0.00  0.00    -0.238 OA
ATOM     11  H6  MOL d          12.108   7.294  82.276  0.00  0.00     0.165 HD
BRANCH   9  12
ATOM     12  O1  MOL d          13.088   8.704  80.517  0.00  0.00    -0.299 OA
BRANCH  12  13
ATOM     13  C19 MOL d          13.656   9.734  79.707  0.00  0.00     0.219 C 
BRANCH  13  14
ATOM     14  C5  MOL d          13.042   9.544  78.322  0.00  0.00    -0.034 A 
ATOM     15  C4  MOL d          13.740   8.930  77.324  0.00  0.00     0.009 A 
ATOM     16  C3  MOL d          13.210   8.757  76.040  0.00  0.00     0.001 A 
ATOM     17  C2  MOL d          11.908   9.209  75.816  0.00  0.00     0.000 A 
ATOM     18  C7  MOL d          11.151   9.834  76.803  0.00  0.00     0.001 A 
ATOM     19  C6  MOL d          11.739  10.003  78.082  0.00  0.00     0.009 A 
ENDBRANCH  13  14
ENDBRANCH  12  13
ENDBRANCH   9  12
ENDBRANCH   7   8
BRANCH   7  20
ATOM     20  C12 MOL d          12.541   6.813  84.801  0.00  0.00     0.067 C 
BRANCH  20  21
ATOM     21  C13 MOL d          11.535   7.920  84.966  0.00  0.00    -0.056 A 
ATOM     22  C14 MOL d          11.706   8.910  85.924  0.00  0.00     0.007 A 
ATOM     23  C15 MOL d          10.779   9.953  86.097  0.00  0.00     0.001 A 
ATOM     24  C16 MOL d           9.659   9.986  85.269  0.00  0.00     0.000 A 
ATOM     25  C17 MOL d           9.488   9.021  84.284  0.00  0.00     0.001 A 
ATOM     26  C18 MOL d          10.381   7.957  84.170  0.00  0.00     0.007 A 
ENDBRANCH  20  21
ENDBRANCH   7  20
ENDBRANCH   6   7
BRANCH   6  27
ATOM     27  O22 MOL d          15.138   6.321  82.244  0.00  0.00    -0.384 OA
ATOM     28  H18 MOL d          15.463   7.192  82.048  0.00  0.00     0.210 HD
ENDBRANCH   6  27
ENDBRANCH   3   6
ENDBRANCH   1   2
BRANCH   1  29
ATOM     29  C   MOL d          17.998   8.090  85.924  0.00  0.00     0.241 C 
ATOM     30  O   MOL d          17.336   9.134  85.979  0.00  0.00    -0.271 OA
ATOM     31  N   MOL d          18.661   7.599  86.959  0.00  0.00    -0.346 N 
ATOM     32  H28 MOL d          19.148   6.731  86.864  0.00  0.00     0.163 HD
BRANCH  31  33
ATOM     33  CA  MOL d          18.693   8.303  88.235  0.00  0.00     0.177 C 
BRANCH  33  34
ATOM     34  C   MOL d          20.031   7.940  88.908  0.00  0.00     0.241 C 
ATOM     35  O   MOL d          20.484   6.774  88.894  0.00  0.00    -0.271 OA
ATOM     36  N   MOL d          20.551   8.915  89.661  0.00  0.00    -0.346 N 
ATOM     37  H34 MOL d          20.109   9.812  89.648  0.00  0.00     0.163 HD
BRANCH  36  38
ATOM     38  CA  MOL d          21.727   8.736  90.497  0.00  0.00     0.176 C 
BRANCH  38  39
ATOM     39  C   MOL d          21.742   9.779  91.605  0.00  0.00     0.238 C 
ATOM     40  O   MOL d          21.170  10.850  91.433  0.00  0.00    -0.271 OA
ATOM     41  N   MOL d          22.423   9.488  92.671  0.00  0.00    -0.368 N 
ATOM     42  H40 MOL d          22.466  10.138  93.430  0.00  0.00     0.159 HD
ATOM     43  H41 MOL d          22.904   8.614  92.734  0.00  0.00     0.159 HD
ENDBRANCH  38  39
BRANCH  38  44
ATOM     44  CB  MOL d          23.014   8.858  89.668  0.00  0.00     0.045 C 
BRANCH  44  45
ATOM     45  CG  MOL d          23.202  10.255  89.097  0.00  0.00     0.116 C 
BRANCH  45  46
ATOM     46  CD  MOL d          24.419  10.434  88.213  0.00  0.00     0.172 C 
ATOM     47  OE1 MOL d          24.440  11.461  87.452  0.00  0.00    -0.648 OA
ATOM     48  OE2 MOL d          25.321   9.524  88.200  0.00  0.00    -0.648 OA
ENDBRANCH  45  46
ENDBRANCH  44  45
ENDBRANCH  38  44
ENDBRANCH  36  38
ENDBRANCH  33  34
BRANCH  33  49
ATOM     49  CB  MOL d          17.490   7.945  89.096  0.00  0.00     0.045 C 
BRANCH  49  50
ATOM     50  CG  MOL d          17.486   8.557  90.465  0.00  0.00     0.116 C 
BRANCH  50  51
ATOM     51  CD  MOL d          18.267   7.791  91.508  0.00  0.00     0.172 C 
ATOM     52  OE1 MOL d          18.696   8.433  92.525  0.00  0.00    -0.648 OA
ATOM     53  OE2 MOL d          18.613   6.615  91.274  0.00  0.00    -0.648 OA
ENDBRANCH  50  51
ENDBRANCH  49  50
ENDBRANCH  33  49
ENDBRANCH  31  33
ENDBRANCH   1  29
BRANCH   1  54
ATOM     54  CB  MOL d          19.151   8.048  83.695  0.00  0.00     0.073 C 
BRANCH  54  55
ATOM     55  CG  MOL d          20.478   8.260  84.357  0.00  0.00    -0.056 A 
ATOM     56  CD1 MOL d          20.933   9.523  84.739  0.00  0.00     0.007 A 
ATOM     57  CE1 MOL d          22.136   9.669  85.339  0.00  0.00     0.001 A 
ATOM     58  CZ  MOL d          22.972   8.584  85.607  0.00  0.00     0.000 A 
ATOM     59  CE2 MOL d          22.534   7.340  85.233  0.00  0.00     0.001 A 
ATOM     60  CD2 MOL d          21.301   7.203  84.617  0.00  0.00     0.007 A 
ENDBRANCH  54  55
ENDBRANCH   1  54
TORSDOF 23
