REMARK  5 active torsions:
REMARK  status: ('A' for Active; 'I' for Inactive)
REMARK    1  A    between atoms: N1_2  and  C2_4 
REMARK       I    between atoms: C10_18  and  N1_2 
REMARK    2  A    between atoms: N3_8  and  N2_5 
REMARK       I    between atoms: N2_5  and  C10_18 
REMARK       I    between atoms: C12_20  and  N3_8 
REMARK    3  A    between atoms: C16_24  and  N4_11 
REMARK    4  A    between atoms: C13_21  and  C12_20 
REMARK    5  A    between atoms: C18_26  and  C19_27 
ROOT
ATOM      1  O2  AGY d          30.434  -5.459  19.401  0.00  0.00    -0.266 OA
ATOM      2  N3  AGY d          29.137  -3.804  18.606  0.00  0.00    -0.262 N 
ATOM      3  C12 AGY d          29.547  -4.611  19.622  0.00  0.00     0.270 C 
ATOM      4  H3  AGY d          28.428  -3.110  18.728  0.00  0.00     0.190 HD
ENDROOT
BRANCH   2   5
ATOM      5  N2  AGY d          29.793  -4.018  17.347  0.00  0.00    -0.248 N 
ATOM      6  C10 AGY d          30.916  -3.351  16.964  0.00  0.00     0.339 C 
ATOM      7  N1  AGY d          31.494  -2.422  17.781  0.00  0.00    -0.307 N 
ATOM      8  O1  AGY d          31.389  -3.621  15.852  0.00  0.00    -0.245 OA
ATOM      9  H1  AGY d          31.032  -2.288  18.658  0.00  0.00     0.170 HD
ATOM     10  H2  AGY d          29.405  -4.692  16.719  0.00  0.00     0.192 HD
BRANCH   7  11
ATOM     11  C2  AGY d          32.624  -1.631  17.588  0.00  0.00     0.047 A 
ATOM     12  C1  AGY d          33.993  -2.124  17.638  0.00  0.00     0.001 A 
ATOM     13  C3  AGY d          35.136  -1.187  17.415  0.00  0.00    -0.024 A 
ATOM     14  C4  AGY d          34.274  -3.517  17.902  0.00  0.00     0.014 A 
ATOM     15  C6  AGY d          34.899   0.211  17.150  0.00  0.00     0.012 A 
ATOM     16  C7  AGY d          36.476  -1.676  17.465  0.00  0.00     0.012 A 
ATOM     17  C9  AGY d          33.526   0.702  17.101  0.00  0.00     0.003 A 
ATOM     18  C5  AGY d          32.412  -0.211  17.318  0.00  0.00     0.030 A 
ATOM     19  C11 AGY d          36.735  -3.078  17.732  0.00  0.00     0.001 A 
ATOM     20  C8  AGY d          35.637  -3.993  17.949  0.00  0.00     0.001 A 
ENDBRANCH   7  11
ENDBRANCH   2   5
BRANCH   3  21
ATOM     21  C13 AGY d          28.951  -4.490  20.951  0.00  0.00     0.036 A 
ATOM     22  C14 AGY d          27.580  -4.181  21.071  0.00  0.00     0.053 A 
ATOM     23  C16 AGY d          26.943  -4.057  22.348  0.00  0.00     0.111 A 
ATOM     24  C18 AGY d          27.709  -4.243  23.595  0.00  0.00    -0.018 A 
ATOM     25  C17 AGY d          29.139  -4.565  23.440  0.00  0.00     0.011 A 
ATOM     26  C15 AGY d          29.735  -4.682  22.130  0.00  0.00     0.018 A 
BRANCH  23  27
ATOM     27  N4  AGY d          25.645  -3.809  22.368  0.00  0.00    -0.115 N 
ATOM     28  O3  AGY d          24.819  -4.761  22.699  0.00  0.00    -0.532 OA
ATOM     29  O4  AGY d          25.168  -2.548  22.031  0.00  0.00    -0.532 OA
ENDBRANCH  23  27
BRANCH  24  30
ATOM     30  C19 AGY d          27.122  -4.133  25.024  0.00  0.00    -0.022 C 
ATOM     31  C20 AGY d          28.026  -3.363  26.017  0.00  0.00     0.019 C 
ATOM     32  C21 AGY d          25.795  -3.327  25.291  0.00  0.00     0.019 C 
ATOM     33  C22 AGY d          26.812  -5.570  25.486  0.00  0.00     0.019 C 
ENDBRANCH  24  30
ENDBRANCH   3  21
TORSDOF 5
