REMARK  5 active torsions:
REMARK  status: ('A' for Active; 'I' for Inactive)
REMARK    1  A    between atoms: C9_2  and  C6_3 
REMARK       I    between atoms: C9_2  and  N3_15 
REMARK       I    between atoms: N1_7  and  C21_8 
REMARK       I    between atoms: C21_8  and  N2_10 
REMARK    2  A    between atoms: N2_10  and  O4_11 
REMARK    3  A    between atoms: N3_15  and  C12_16 
REMARK    4  A    between atoms: C12_16  and  C13_17 
REMARK    5  A    between atoms: C17_20  and  C18_23 
ROOT
ATOM      1  O6  MOL d           0.533  -5.841   5.595  0.00  0.00    -0.271 OA
ATOM      2  C9  MOL d           1.511  -6.310   5.020  0.00  0.00     0.249 C 
ATOM      3  N3  MOL d           2.770  -6.133   5.425  0.00  0.00    -0.355 N 
ATOM      4  H10 MOL d           3.499  -6.557   4.887  0.00  0.00     0.162 HD
ENDROOT
BRANCH   2   5
ATOM      5  C6  MOL d           1.327  -7.157   3.787  0.00  0.00     0.247 C 
ATOM      6  O2  MOL d           2.577  -7.564   3.218  0.00  0.00    -0.342 OA
ATOM      7  C1  MOL d           2.742  -6.918   1.947  0.00  0.00     0.279 C 
ATOM      8  C3  MOL d           2.317  -7.859   0.833  0.00  0.00     0.188 C 
ATOM      9  O3  MOL d           1.796  -5.864   1.935  0.00  0.00    -0.350 OA
ATOM     10  N1  MOL d           1.030  -8.393   1.281  0.00  0.00    -0.325 N 
ATOM     11  C7  MOL d           0.011  -7.411   1.712  0.00  0.00     0.163 C 
ATOM     12  C21 MOL d           0.853  -9.720   1.287  0.00  0.00     0.342 C 
ATOM     13  C5  MOL d           0.686  -6.402   2.637  0.00  0.00     0.181 C 
ATOM     14  O1  MOL d           1.359 -10.416   0.414  0.00  0.00    -0.245 OA
ATOM     15  N2  MOL d           0.118 -10.295   2.236  0.00  0.00    -0.219 N 
ATOM     16  H5  MOL d          -0.246  -9.746   2.989  0.00  0.00     0.199 HD
BRANCH  15  17
ATOM     17  O4  MOL d          -0.144 -11.666   2.179  0.00  0.00    -0.286 OA
ATOM     18  H6  MOL d           0.676 -12.145   2.200  0.00  0.00     0.244 HD
ENDBRANCH  15  17
ENDBRANCH   2   5
BRANCH   3  19
ATOM     19  C12 MOL d           3.151  -5.363   6.600  0.00  0.00     0.161 C 
BRANCH  19  20
ATOM     20  C13 MOL d           4.356  -6.003   7.271  0.00  0.00    -0.040 A 
ATOM     21  C15 MOL d           4.301  -6.444   8.597  0.00  0.00     0.009 A 
ATOM     22  C19 MOL d           5.425  -7.021   9.191  0.00  0.00     0.013 A 
ATOM     23  C17 MOL d           6.619  -7.167   8.475  0.00  0.00    -0.026 A 
ATOM     24  C16 MOL d           6.668  -6.729   7.151  0.00  0.00     0.013 A 
ATOM     25  C14 MOL d           5.548  -6.144   6.562  0.00  0.00     0.009 A 
BRANCH  23  26
ATOM     26  C18 MOL d           7.819  -7.803   9.107  0.00  0.00    -0.026 A 
ATOM     27  C11 MOL d           9.119  -7.448   8.732  0.00  0.00     0.012 A 
ATOM     28  C2  MOL d          10.220  -8.062   9.332  0.00  0.00     0.001 A 
ATOM     29  C4  MOL d          10.031  -9.037  10.312  0.00  0.00     0.000 A 
ATOM     30  C10 MOL d           8.738  -9.399  10.687  0.00  0.00     0.001 A 
ATOM     31  C20 MOL d           7.638  -8.788  10.081  0.00  0.00     0.012 A 
ENDBRANCH  23  26
ENDBRANCH  19  20
ENDBRANCH   3  19
TORSDOF 5
