4qjm_ligand

Created by X-TOOL on Sun Nov 13 14:28:25 2016
 51 53  0  0  0  0  0  0  0  0999 V2000
   14.2160    5.0570   14.9970  F 0  0  0  1  0  1
   15.5210    5.1570   15.0480  C 0  0  0  1  0  3
   16.1740    4.1610   15.7840  C 0  0  0  1  0  3
   15.3570    2.8310   16.6920  S 0  0  0  1  0  4
   13.8500    2.9240   16.5840  O 0  0  0  1  0  1
   15.7850    1.2790   16.1100  N 0  0  0  3  0  3
   15.8470    3.0520   18.0820  O 0  0  0  1  0  1
   17.5660    4.2810   15.8970  C 0  0  0  1  0  3
   18.2560    3.3530   16.6110  F 0  0  0  1  0  1
   18.2710    5.2820   15.2640  C 0  0  0  1  0  3
   19.6240    5.3320   15.4310  F 0  0  0  1  0  1
   16.2080    6.1730   14.3650  C 0  0  0  1  0  3
   17.6150    6.2480   14.4860  C 0  0  0  1  0  3
   18.7040    7.4640   13.7000  S 0  0  0  1  0  4
   19.3220    8.5280   14.6080  O 0  0  0  1  0  1
   17.9030    8.3780   12.7410  O 0  0  0  1  0  1
   20.0050    6.6060   12.7270  C 0  0  0  3  0  4
   19.5880    5.7770   11.4780  C 0  0  0  3  0  4
   18.4360    4.8040   11.4560  C 0  0  0  1  0  3
   18.3270    3.7340   12.3630  C 0  0  0  2  0  3
   17.2250    2.8530   12.2560  C 0  0  0  2  0  3
   17.4160    4.9560   10.4780  C 0  0  0  2  0  3
   16.3170    4.0880   10.3930  C 0  0  0  2  0  3
   16.2170    3.0030   11.2650  C 0  0  0  2  0  3
   15.5460    7.1430   13.5940  N 0  0  0  2  0  3
   14.6580    6.7360   12.5340  C 0  0  0  3  0  4
   14.4890    7.8890   11.6300  C 0  0  0  1  0  3
   13.8000    9.0230   12.1070  C 0  0  0  2  0  3
   13.6210   10.1310   11.2540  C 0  0  0  2  0  3
   14.1420   10.0900    9.9560  C 0  0  0  2  0  3
   14.8150    8.9420    9.4880  C 0  0  0  2  0  3
   14.9740    7.8340   10.3110  C 0  0  0  2  0  3
   15.3958    0.4612   16.5339  H 0  0  0  1  0  1
   16.4243    1.1902   15.3461  H 0  0  0  1  0  1
   20.5201    5.9180   13.4134  H 0  0  0  1  0  1
   20.7105    7.3762   12.3820  H 0  0  0  1  0  1
   20.4768    5.1925   11.1981  H 0  0  0  1  0  1
   19.3707    6.5137   10.6906  H 0  0  0  1  0  1
   19.0762    3.5867   13.1324  H 0  0  0  1  0  1
   17.1463    2.0307   12.9579  H 0  0  0  1  0  1
   17.4900    5.7740    9.7706  H 0  0  0  1  0  1
   15.5461    4.2600    9.6505  H 0  0  0  1  0  1
   15.3974    2.2976   11.1891  H 0  0  0  1  0  1
   15.6950    8.1439   13.7859  H 0  0  0  1  0  1
   13.6844    6.4409   12.9522  H 0  0  0  1  0  1
   15.0931    5.8884   11.9842  H 0  0  0  1  0  1
   13.4120    9.0426   13.1190  H 0  0  0  1  0  1
   13.0846   11.0069   11.6005  H 0  0  0  1  0  1
   14.0274   10.9484    9.3040  H 0  0  0  1  0  1
   15.2109    8.9242    8.4790  H 0  0  0  1  0  1
   15.4645    6.9405    9.9420  H 0  0  0  1  0  1
  1  2  1  0  0  2
  2  3  4  0  0  1
  2 12  4  0  0  1
  3  4  1  0  0  2
  3  8  4  0  0  1
  4  5  2  0  0  2
  4  6  1  0  0  2
  4  7  2  0  0  2
  8  9  1  0  0  2
  8 10  4  0  0  1
 10 11  1  0  0  2
 10 13  4  0  0  1
 12 13  4  0  0  1
 12 25  1  0  0  2
 13 14  1  0  0  2
 14 15  2  0  0  2
 14 16  2  0  0  2
 14 17  1  0  0  2
 17 18  1  0  0  2
 18 19  1  0  0  2
 19 20  4  0  0  1
 19 22  4  0  0  1
 20 21  4  0  0  1
 21 24  4  0  0  1
 22 23  4  0  0  1
 23 24  4  0  0  1
 25 26  1  0  0  2
 26 27  1  0  0  2
 27 28  4  0  0  1
 27 32  4  0  0  1
 28 29  4  0  0  1
 29 30  4  0  0  1
 30 31  4  0  0  1
 31 32  4  0  0  1
  6 33  1  0  0  2
  6 34  1  0  0  2
 17 35  1  0  0  2
 17 36  1  0  0  2
 18 37  1  0  0  2
 18 38  1  0  0  2
 20 39  1  0  0  2
 21 40  1  0  0  2
 22 41  1  0  0  2
 23 42  1  0  0  2
 24 43  1  0  0  2
 25 44  1  0  0  2
 26 45  1  0  0  2
 26 46  1  0  0  2
 28 47  1  0  0  2
 29 48  1  0  0  2
 30 49  1  0  0  2
 31 50  1  0  0  2
 32 51  1  0  0  2
M  END
> <MOLECULAR_FORMULA>
C21H19N2O4S2F3

> <MOLECULAR_WEIGHT>
484.4

> <NUM_HB_ATOMS>
6  

> <NUM_ROTOR>
7  

> <XLOGP2>
4.37 

$$$$
