REMARK  7 active torsions:
REMARK  status: ('A' for Active; 'I' for Inactive)
REMARK    1  A    between atoms: CAX_2  and  OAQ_5 
REMARK    2  A    between atoms: OAQ_5  and  CAR_6 
REMARK       I    between atoms: CAR_6  and  N_8 
REMARK    3  A    between atoms: N_8  and  CA_9 
REMARK    4  A    between atoms: CA_9  and  C_10 
REMARK    5  A    between atoms: CA_9  and  CAT_14 
REMARK       I    between atoms: C_10  and  NAO_12 
REMARK    6  A    between atoms: NAO_12  and  OAF_13 
REMARK    7  A    between atoms: CAU_19  and  NAW_20 
ROOT
ATOM      1  CA  R5T d          13.722  10.413  12.290  0.00  0.00     0.214 C 
ENDROOT
BRANCH   1   2
ATOM      2  N   R5T d          15.127  10.851  12.219  0.00  0.00    -0.319 N 
ATOM      3  CAR R5T d          15.985  10.292  11.353  0.00  0.00     0.362 C 
ATOM      4  OAD R5T d          17.149  10.688  11.334  0.00  0.00    -0.238 OA
ATOM      5  H   R5T d          15.446  11.578  12.827  0.00  0.00     0.166 HD
BRANCH   3   6
ATOM      6  OAQ R5T d          15.539   9.298  10.507  0.00  0.00    -0.294 OA
BRANCH   6   7
ATOM      7  CAX R5T d          16.397   8.910   9.396  0.00  0.00     0.061 C 
ATOM      8  CAA R5T d          15.666   7.845   8.561  0.00  0.00     0.046 C 
ATOM      9  CAB R5T d          16.682  10.123   8.502  0.00  0.00     0.046 C 
ATOM     10  CAC R5T d          17.716   8.302   9.909  0.00  0.00     0.046 C 
ENDBRANCH   6   7
ENDBRANCH   3   6
ENDBRANCH   1   2
BRANCH   1  11
ATOM     11  C   R5T d          12.841  11.205  11.301  0.00  0.00     0.268 C 
ATOM     12  O   R5T d          11.821  10.708  10.838  0.00  0.00    -0.269 OA
ATOM     13  NAO R5T d          13.279  12.412  10.942  0.00  0.00    -0.235 N 
ATOM     14  H   R5T d          14.136  12.793  11.289  0.00  0.00     0.197 HD
BRANCH  13  15
ATOM     15  OAF R5T d          12.352  13.202   9.930  0.00  0.00    -0.287 OA
ATOM     16  H   R5T d          12.744  14.045   9.735  0.00  0.00     0.244 HD
ENDBRANCH  13  15
ENDBRANCH   1  11
BRANCH   1  17
ATOM     17  CAT R5T d          13.246  10.509  13.598  0.00  0.00    -0.026 A 
ATOM     18  CAJ R5T d          13.489   9.453  14.471  0.00  0.00     0.012 A 
ATOM     19  CAL R5T d          13.033   9.513  15.784  0.00  0.00     0.032 A 
ATOM     20  CAU R5T d          12.331  10.633  16.226  0.00  0.00     0.058 A 
ATOM     21  CAK R5T d          12.078  11.692  15.355  0.00  0.00     0.032 A 
ATOM     22  CAI R5T d          12.540  11.628  14.038  0.00  0.00     0.012 A 
BRANCH  20  23
ATOM     23  NAW R5T d          11.890  10.670  17.478  0.00  0.00    -0.245 N 
ATOM     24  NAN R5T d          11.281  11.579  17.991  0.00  0.00    -0.180 NA
ATOM     25  CAH R5T d          10.989  11.273  19.257  0.00  0.00     0.140 A 
ATOM     26  CAG R5T d          11.471  10.059  19.493  0.00  0.00     0.040 A 
ATOM     27  CAM R5T d          12.043   9.677  18.359  0.00  0.00     0.120 A 
ENDBRANCH  20  23
ENDBRANCH   1  17
TORSDOF 7
