REMARK  6 active torsions:
REMARK  status: ('A' for Active; 'I' for Inactive)
REMARK    1  A    between atoms: C1_1  and  O2_21 
REMARK    2  A    between atoms: C13_13  and  O1_20 
REMARK    3  A    between atoms: C17_17  and  C19_19 
REMARK    4  A    between atoms: C19_19  and  C21_23 
REMARK    5  A    between atoms: C21_23  and  C22_24 
REMARK    6  A    between atoms: C22_24  and  C23_25 
ROOT
ATOM      1  C1  DXC d           4.853  -3.500  84.879  0.00  0.00     0.118 C 
ATOM      2  C2  DXC d           3.819  -4.194  83.985  0.00  0.00     0.037 C 
ATOM      3  C3  DXC d           2.456  -4.345  84.699  0.00  0.00    -0.004 C 
ATOM      4  C4  DXC d           2.586  -5.084  86.069  0.00  0.00    -0.036 C 
ATOM      5  C5  DXC d           3.633  -4.316  86.923  0.00  0.00     0.012 C 
ATOM      6  C6  DXC d           5.002  -4.248  86.228  0.00  0.00     0.032 C 
ATOM      7  C7  DXC d           1.438  -5.058  83.772  0.00  0.00     0.006 C 
ATOM      8  C8  DXC d           1.772  -6.549  83.589  0.00  0.00     0.006 C 
ATOM      9  C9  DXC d           1.934  -7.291  84.928  0.00  0.00    -0.005 C 
ATOM     10  C10 DXC d           2.999  -6.588  85.820  0.00  0.00     0.001 C 
ATOM     11  C11 DXC d           2.359  -8.763  84.718  0.00  0.00     0.001 C 
ATOM     12  C12 DXC d           2.517  -9.540  86.042  0.00  0.00    -0.010 C 
ATOM     13  C13 DXC d           3.566  -8.871  86.950  0.00  0.00     0.127 C 
ATOM     14  C14 DXC d           3.155  -7.383  87.157  0.00  0.00     0.038 C 
ATOM     15  C15 DXC d           1.517  -9.696  83.840  0.00  0.00     0.006 C 
ATOM     16  C16 DXC d           1.887 -11.116  84.309  0.00  0.00     0.006 C 
ATOM     17  C17 DXC d           2.906 -10.929  85.454  0.00  0.00     0.000 C 
ATOM     18  C18 DXC d           1.248  -5.053  86.853  0.00  0.00     0.016 C 
ATOM     19  C20 DXC d           1.176  -9.622  86.815  0.00  0.00     0.018 C 
ENDROOT
BRANCH  17  20
ATOM     20  C19 DXC d           2.968 -12.184  86.394  0.00  0.00    -0.013 C 
ATOM     21  C24 DXC d           3.978 -12.007  87.537  0.00  0.00     0.010 C 
BRANCH  20  22
ATOM     22  C21 DXC d           3.350 -13.446  85.578  0.00  0.00     0.015 C 
BRANCH  22  23
ATOM     23  C22 DXC d           4.731 -13.414  84.923  0.00  0.00     0.113 C 
BRANCH  23  24
ATOM     24  C23 DXC d           4.626 -14.046  83.541  0.00  0.00     0.172 C 
ATOM     25  O4  DXC d           4.346 -15.348  83.605  0.00  0.00    -0.648 OA
ATOM     26  O3  DXC d           4.774 -13.466  82.516  0.00  0.00    -0.648 OA
ENDBRANCH  23  24
ENDBRANCH  22  23
ENDBRANCH  20  22
ENDBRANCH  17  20
BRANCH  13  27
ATOM     27  O1  DXC d           4.844  -8.961  86.334  0.00  0.00    -0.395 OA
ATOM     28  H28 DXC d           5.493  -8.549  86.892  0.00  0.00     0.210 HD
ENDBRANCH  13  27
BRANCH   1  29
ATOM     29  O2  DXC d           6.061  -3.399  84.151  0.00  0.00    -0.396 OA
ATOM     30  H29 DXC d           5.902  -2.932  83.339  0.00  0.00     0.210 HD
ENDBRANCH   1  29
TORSDOF 6
