REMARK  16 active torsions:
REMARK  status: ('A' for Active; 'I' for Inactive)
REMARK    1  A    between atoms: CA_2  and  N_1 
REMARK    2  A    between atoms: CA_2  and  CB_5 
REMARK    3  A    between atoms: C_3  and  CA_2 
REMARK       I    between atoms: N_10  and  C_3 
REMARK    4  A    between atoms: CB_5  and  CG_6 
REMARK    5  A    between atoms: CG_6  and  CD_7 
REMARK    6  A    between atoms: CD_7  and  CE_8 
REMARK    7  A    between atoms: CE_8  and  NZ_9 
REMARK    8  A    between atoms: CA_11  and  N_10 
REMARK    9  A    between atoms: C_12  and  CA_11 
REMARK       I    between atoms: C_12  and  N_14 
REMARK   10  A    between atoms: N_14  and  CA_15 
REMARK   11  A    between atoms: CA_15  and  CB_18 
REMARK   12  A    between atoms: CA_15  and  C_16 
REMARK   13  A    between atoms: CB_18  and  CG_19 
REMARK   14  A    between atoms: CG_19  and  CD_20 
REMARK   15  A    between atoms: CD_20  and  CE_21 
REMARK   16  A    between atoms: CE_21  and  NZ_22 
ROOT
ATOM      1  C   MOL d          55.790   4.144  93.025  0.00  0.00     0.248 C 
ATOM      2  O   MOL d          56.222   4.833  92.079  0.00  0.00    -0.271 OA
ATOM      3  N   MOL d          56.052   2.870  93.242  0.00  0.00    -0.351 N 
ATOM      4  H16 MOL d          55.612   2.384  93.998  0.00  0.00     0.163 HD
ENDROOT
BRANCH   3   5
ATOM      5  CA  MOL d          56.998   2.173  92.360  0.00  0.00     0.225 C 
BRANCH   5   6
ATOM      6  C   MOL d          56.334   1.781  91.049  0.00  0.00     0.236 C 
ATOM      7  O   MOL d          55.159   1.403  91.095  0.00  0.00    -0.272 OA
ATOM      8  N   MOL d          57.054   1.845  89.937  0.00  0.00    -0.345 N 
ATOM      9  H19 MOL d          57.978   2.222  89.995  0.00  0.00     0.163 HD
BRANCH   8  10
ATOM     10  CA  MOL d          56.576   1.398  88.636  0.00  0.00     0.185 C 
BRANCH  10  11
ATOM     11  CB  MOL d          56.411   2.545  87.656  0.00  0.00     0.036 C 
BRANCH  11  12
ATOM     12  CG  MOL d          55.369   2.092  86.541  0.00  0.00     0.004 C 
BRANCH  12  13
ATOM     13  CD  MOL d          55.346   3.213  85.528  0.00  0.00     0.027 C 
BRANCH  13  14
ATOM     14  CE  MOL d          54.627   2.779  84.234  0.00  0.00     0.229 C 
BRANCH  14  15
ATOM     15  NZ  MOL d          53.440   1.976  84.575  0.00  0.00    -0.079 N 
ATOM     16  H29 MOL d          52.971   1.693  83.729  0.00  0.00     0.274 HD
ATOM     17  H30 MOL d          52.812   2.527  85.139  0.00  0.00     0.274 HD
ATOM     18  H31 MOL d          53.724   1.158  85.091  0.00  0.00     0.274 HD
ENDBRANCH  14  15
ENDBRANCH  13  14
ENDBRANCH  12  13
ENDBRANCH  11  12
ENDBRANCH  10  11
BRANCH  10  19
ATOM     19  C   MOL d          57.493   0.369  87.953  0.00  0.00     0.196 C 
ATOM     20  O   MOL d          56.974  -0.433  87.121  0.00  0.00    -0.646 OA
ATOM     21  OXT MOL d          58.736   0.354  88.141  0.00  0.00    -0.646 OA
ENDBRANCH  10  19
ENDBRANCH   8  10
ENDBRANCH   5   6
ENDBRANCH   3   5
BRANCH   1  22
ATOM     22  CA  MOL d          54.887   4.800  94.099  0.00  0.00     0.274 C 
BRANCH  22  23
ATOM     23  N   MOL d          55.242   6.245  94.252  0.00  0.00    -0.067 N 
ATOM     24  H1  MOL d          54.650   6.664  94.952  0.00  0.00     0.275 HD
ATOM     25  H2  MOL d          55.109   6.719  93.372  0.00  0.00     0.275 HD
ATOM     26  H3  MOL d          56.206   6.326  94.535  0.00  0.00     0.275 HD
ENDBRANCH  22  23
BRANCH  22  27
ATOM     27  CB  MOL d          53.407   4.640  93.723  0.00  0.00     0.042 C 
BRANCH  27  28
ATOM     28  CG  MOL d          52.997   5.502  92.531  0.00  0.00     0.004 C 
BRANCH  28  29
ATOM     29  CD  MOL d          51.518   5.216  92.142  0.00  0.00     0.027 C 
BRANCH  29  30
ATOM     30  CE  MOL d          50.632   6.110  92.996  0.00  0.00     0.229 C 
BRANCH  30  31
ATOM     31  NZ  MOL d          50.936   7.537  92.854  0.00  0.00    -0.079 N 
ATOM     32  H13 MOL d          50.317   8.072  93.443  0.00  0.00     0.274 HD
ATOM     33  H14 MOL d          50.809   7.814  91.893  0.00  0.00     0.274 HD
ATOM     34  H15 MOL d          51.891   7.706  93.129  0.00  0.00     0.274 HD
ENDBRANCH  30  31
ENDBRANCH  29  30
ENDBRANCH  28  29
ENDBRANCH  27  28
ENDBRANCH  22  27
ENDBRANCH   1  22
TORSDOF 16
