REMARK  13 active torsions:
REMARK  status: ('A' for Active; 'I' for Inactive)
REMARK    1  A    between atoms: C5_1  and  C3_2 
REMARK    2  A    between atoms: C5_1  and  C6_6 
REMARK       I    between atoms: C3_2  and  N1_4 
REMARK    3  A    between atoms: N1_4  and  O2_5 
REMARK    4  A    between atoms: C6_6  and  C12_7 
REMARK    5  A    between atoms: C6_6  and  C7_9 
REMARK       I    between atoms: C12_7  and  N14_14 
REMARK    6  A    between atoms: C7_9  and  C8_10 
REMARK    7  A    between atoms: C8_10  and  C9_11 
REMARK    8  A    between atoms: C9_11  and  C10_12 
REMARK    9  A    between atoms: N14_14  and  C15_15 
REMARK   10  A    between atoms: C15_15  and  C16_16 
REMARK   11  A    between atoms: C15_15  and  C19_19 
REMARK       I    between atoms: C19_19  and  N21_21 
REMARK   12  A    between atoms: C22_22  and  C26_26 
REMARK   13  A    between atoms: C26_26  and  O27_27 
ROOT
ATOM      1  C12 BB2 d           9.357  -6.346 -16.964  0.00  0.00     0.223 C 
ATOM      2  O13 BB2 d           8.997  -5.485 -16.158  0.00  0.00    -0.273 OA
ATOM      3  N14 BB2 d           9.664  -6.048 -18.237  0.00  0.00    -0.347 N 
ATOM      4  H   BB2 d           9.945  -6.777 -18.861  0.00  0.00     0.163 HD
ENDROOT
BRANCH   3   5
ATOM      5  C15 BB2 d           9.592  -4.673 -18.720  0.00  0.00     0.180 C 
BRANCH   5   6
ATOM      6  C16 BB2 d          10.222  -4.527 -20.104  0.00  0.00     0.009 C 
ATOM      7  C18 BB2 d          11.318  -5.536 -20.404  0.00  0.00     0.012 C 
ATOM      8  C17 BB2 d           9.191  -4.511 -21.200  0.00  0.00     0.012 C 
ENDBRANCH   5   6
BRANCH   5   9
ATOM      9  C19 BB2 d           8.123  -4.140 -18.687  0.00  0.00     0.243 C 
ATOM     10  O20 BB2 d           7.227  -4.963 -18.996  0.00  0.00    -0.271 OA
ATOM     11  N21 BB2 d           7.897  -2.801 -18.329  0.00  0.00    -0.344 N 
ATOM     12  C22 BB2 d           6.585  -2.106 -18.228  0.00  0.00     0.111 C 
ATOM     13  C23 BB2 d           8.973  -1.833 -17.975  0.00  0.00     0.126 C 
ATOM     14  C25 BB2 d           6.820  -0.732 -17.539  0.00  0.00     0.029 C 
ATOM     15  C24 BB2 d           8.318  -0.594 -17.352  0.00  0.00     0.022 C 
BRANCH  12  16
ATOM     16  C26 BB2 d           5.965  -1.852 -19.611  0.00  0.00     0.189 C 
BRANCH  16  17
ATOM     17  O27 BB2 d           6.878  -1.062 -20.431  0.00  0.00    -0.399 OA
ATOM     18  H   BB2 d           7.044  -0.229 -20.005  0.00  0.00     0.209 HD
ENDBRANCH  16  17
ENDBRANCH  12  16
ENDBRANCH   5   9
ENDBRANCH   3   5
BRANCH   1  19
ATOM     19  C6  BB2 d           9.518  -7.820 -16.515  0.00  0.00     0.086 C 
BRANCH  19  20
ATOM     20  C5  BB2 d          10.631  -7.909 -15.427  0.00  0.00     0.119 C 
BRANCH  20  21
ATOM     21  C3  BB2 d          11.186  -9.336 -15.206  0.00  0.00     0.241 C 
ATOM     22  O4  BB2 d          12.086  -9.836 -15.916  0.00  0.00    -0.271 OA
ATOM     23  N1  BB2 d          10.601  -9.984 -14.200  0.00  0.00    -0.237 N 
ATOM     24  H   BB2 d           9.879  -9.531 -13.677  0.00  0.00     0.197 HD
BRANCH  23  25
ATOM     25  O2  BB2 d          10.973 -11.268 -13.868  0.00  0.00    -0.287 OA
ATOM     26  H   BB2 d          10.452 -11.567 -13.132  0.00  0.00     0.244 HD
ENDBRANCH  23  25
ENDBRANCH  20  21
ENDBRANCH  19  20
BRANCH  19  27
ATOM     27  C7  BB2 d           8.156  -8.398 -16.034  0.00  0.00     0.014 C 
BRANCH  27  28
ATOM     28  C8  BB2 d           7.164  -8.506 -17.216  0.00  0.00     0.001 C 
BRANCH  28  29
ATOM     29  C9  BB2 d           5.969  -9.386 -16.895  0.00  0.00    -0.000 C 
BRANCH  29  30
ATOM     30  C10 BB2 d           5.220  -9.847 -18.186  0.00  0.00    -0.005 C 
ATOM     31  C11 BB2 d           4.787  -8.643 -19.023  0.00  0.00     0.005 C 
ENDBRANCH  29  30
ENDBRANCH  28  29
ENDBRANCH  27  28
ENDBRANCH  19  27
ENDBRANCH   1  19
TORSDOF 13
