REMARK  6 active torsions:
REMARK  status: ('A' for Active; 'I' for Inactive)
REMARK    1  A    between atoms: C41_25  and  C3_3 
REMARK    2  A    between atoms: C4_4  and  C8_7 
REMARK    3  A    between atoms: C5_5  and  N52_30 
REMARK    4  A    between atoms: C11_10  and  N43_27 
REMARK    5  A    between atoms: C20_15  and  N32_24 
REMARK    6  A    between atoms: C42_26  and  C23_18 
ROOT
ATOM      1  C1  MOL d           5.431  -2.796  30.043  0.00  0.00     0.236 A 
ATOM      2  N2  MOL d           4.419  -3.071  29.252  0.00  0.00    -0.232 NA
ATOM      3  C3  MOL d           4.755  -3.083  27.958  0.00  0.00     0.126 A 
ATOM      4  C4  MOL d           5.993  -2.835  27.429  0.00  0.00     0.057 A 
ATOM      5  C5  MOL d           6.953  -2.559  28.386  0.00  0.00     0.136 A 
ATOM      6  N6  MOL d           6.681  -2.521  29.686  0.00  0.00    -0.224 NA
ENDROOT
BRANCH   3   7
ATOM      7  C41 MOL d           3.720  -3.391  27.054  0.00  0.00    -0.040 C 
ATOM      8  C42 MOL d           2.854  -3.413  26.198  0.00  0.00    -0.058 C 
BRANCH   8   9
ATOM      9  C23 MOL d           2.130  -3.290  25.035  0.00  0.00     0.035 A 
ATOM     10  C18 MOL d           0.770  -3.223  25.093  0.00  0.00     0.139 A 
ATOM     11  N19 MOL d          -0.047  -3.039  24.052  0.00  0.00    -0.242 NA
ATOM     12  C20 MOL d           0.583  -2.929  22.859  0.00  0.00     0.125 A 
ATOM     13  C21 MOL d           1.964  -2.982  22.714  0.00  0.00     0.052 A 
ATOM     14  C22 MOL d           2.763  -3.141  23.831  0.00  0.00     0.026 A 
BRANCH  12  15
ATOM     15  N32 MOL d          -0.154  -2.777  21.669  0.00  0.00    -0.362 N 
ATOM     16  C27 MOL d           0.613  -2.505  20.447  0.00  0.00     0.150 C 
ATOM     17  C28 MOL d          -0.236  -2.925  19.249  0.00  0.00     0.187 C 
ATOM     18  O29 MOL d          -1.558  -2.418  19.465  0.00  0.00    -0.388 OA
ATOM     19  C30 MOL d          -2.170  -3.011  20.586  0.00  0.00     0.187 C 
ATOM     20  C31 MOL d          -1.518  -2.417  21.812  0.00  0.00     0.150 C 
ENDBRANCH  12  15
ENDBRANCH   8   9
ENDBRANCH   3   7
BRANCH   4  21
ATOM     21  C8  MOL d           6.273  -2.955  26.007  0.00  0.00    -0.019 A 
ATOM     22  C9  MOL d           6.218  -4.219  25.503  0.00  0.00     0.014 A 
ATOM     23  C10 MOL d           6.499  -4.498  24.182  0.00  0.00     0.024 A 
ATOM     24  C11 MOL d           6.832  -3.519  23.290  0.00  0.00     0.009 A 
ATOM     25  C12 MOL d           6.855  -2.234  23.799  0.00  0.00     0.024 A 
ATOM     26  C13 MOL d           6.593  -1.957  25.129  0.00  0.00     0.014 A 
BRANCH  24  27
ATOM     27  N43 MOL d           7.110  -3.929  21.950  0.00  0.00    -0.292 NA
ATOM     28  C44 MOL d           7.653  -2.905  21.035  0.00  0.00     0.116 C 
ATOM     29  C48 MOL d           8.033  -5.045  22.115  0.00  0.00     0.116 C 
ENDBRANCH  24  27
ENDBRANCH   4  21
BRANCH   5  30
ATOM     30  N52 MOL d           8.244  -2.292  27.987  0.00  0.00    -0.383 N 
ATOM     31  H23 MOL d           8.968  -2.085  28.690  0.00  0.00     0.157 HD
ATOM     32  H24 MOL d           8.486  -2.299  26.986  0.00  0.00     0.157 HD
ENDBRANCH   5  30
TORSDOF 6
