REMARK  4 active torsions:
REMARK  status: ('A' for Active; 'I' for Inactive)
REMARK    1  A    between atoms: C1_1  and  C2_4 
REMARK    2  A    between atoms: C2_4  and  C3_6 
REMARK    3  A    between atoms: C3_6  and  C4_7 
REMARK    4  A    between atoms: C4_7  and  C5_8 
ROOT
ATOM      1  C2  AKG d          16.299   3.645   1.987  0.00  0.00     0.225 C 
ATOM      2  O5  AKG d          15.817   2.608   1.595  0.00  0.00    -0.286 OA
ENDROOT
BRANCH   1   3
ATOM      3  C1  AKG d          17.682   3.585   2.570  0.00  0.00     0.246 C 
ATOM      4  O1  AKG d          18.143   2.414   2.921  0.00  0.00    -0.642 OA
ATOM      5  O2  AKG d          18.345   4.677   2.689  0.00  0.00    -0.642 OA
ENDBRANCH   1   3
BRANCH   1   6
ATOM      6  C3  AKG d          15.449   4.920   1.901  0.00  0.00     0.101 C 
BRANCH   6   7
ATOM      7  C4  AKG d          13.993   4.622   2.315  0.00  0.00     0.121 C 
BRANCH   7   8
ATOM      8  C5  AKG d          13.166   5.892   2.559  0.00  0.00     0.172 C 
ATOM      9  O3  AKG d          13.623   7.014   2.208  0.00  0.00    -0.648 OA
ATOM     10  O4  AKG d          12.034   5.795   3.110  0.00  0.00    -0.648 OA
ENDBRANCH   7   8
ENDBRANCH   6   7
ENDBRANCH   1   6
TORSDOF 4
