REMARK  3 active torsions:
REMARK  status: ('A' for Active; 'I' for Inactive)
REMARK    1  A    between atoms: CAU_21  and  OAA_1 
REMARK    2  A    between atoms: CAQ_17  and  CAP_16 
REMARK    3  A    between atoms: CAR_18  and  CAU_21 
ROOT
ATOM      1  CAG MOL d          56.304  16.320  51.722  0.00  0.00     0.013 A 
ATOM      2  CAH MOL d          57.127  15.937  53.896  0.00  0.00     0.013 A 
ATOM      3  CAI MOL d          56.025  14.965  51.570  0.00  0.00     0.011 A 
ATOM      4  CAJ MOL d          56.835  14.577  53.763  0.00  0.00     0.011 A 
ATOM      5  CAQ MOL d          56.870  16.853  52.877  0.00  0.00    -0.026 A 
ATOM      6  CAR MOL d          56.299  14.052  52.585  0.00  0.00    -0.022 A 
ENDROOT
BRANCH   6   7
ATOM      7  CAU MOL d          55.984  12.584  52.456  0.00  0.00     0.113 C 
ATOM      8  CAO MOL d          55.575  12.165  51.045  0.00  0.00     0.278 C 
ATOM      9  NAT MOL d          56.247  10.896  50.686  0.00  0.00    -0.068 N 
ATOM     10  CAM MOL d          57.706  11.078  50.568  0.00  0.00     0.235 C 
ATOM     11  CAN MOL d          55.958   9.854  51.687  0.00  0.00     0.235 C 
ATOM     12  H22 MOL d          55.890  10.592  49.794  0.00  0.00     0.280 HD
ATOM     13  CAK MOL d          58.267  11.677  51.854  0.00  0.00     0.036 C 
ATOM     14  CAS MOL d          57.138  11.677  52.878  0.00  0.00     0.030 C 
ATOM     15  CAL MOL d          56.710  10.216  52.966  0.00  0.00     0.036 C 
BRANCH   7  16
ATOM     16  OAA MOL d          54.885  12.329  53.337  0.00  0.00    -0.383 OA
ATOM     17  H1  MOL d          55.123  12.585  54.221  0.00  0.00     0.211 HD
ENDBRANCH   7  16
ENDBRANCH   6   7
BRANCH   5  18
ATOM     18  CAP MOL d          57.149  18.210  52.994  0.00  0.00    -0.026 A 
ATOM     19  CAE MOL d          57.693  18.758  54.155  0.00  0.00     0.012 A 
ATOM     20  CAC MOL d          57.963  20.118  54.306  0.00  0.00     0.001 A 
ATOM     21  CAB MOL d          57.711  21.005  53.258  0.00  0.00     0.000 A 
ATOM     22  CAD MOL d          57.198  20.467  52.080  0.00  0.00     0.001 A 
ATOM     23  CAF MOL d          56.911  19.106  51.957  0.00  0.00     0.012 A 
ENDBRANCH   5  18
TORSDOF 3
