REMARK  6 active torsions:
REMARK  status: ('A' for Active; 'I' for Inactive)
REMARK    1  A    between atoms: C1_1  and  C7_8 
REMARK    2  A    between atoms: C7_8  and  N1_9 
REMARK    3  A    between atoms: C1'_14  and  C8_13 
REMARK    4  A    between atoms: O5'_21  and  C5'_18 
REMARK    5  A    between atoms: C6'_19  and  O6'_20 
REMARK    6  A    between atoms: C6''_27  and  O5'_21 
ROOT
ATOM      1  C1  CR9 d          11.823 -11.760  22.869  0.00  0.00     0.048 A 
ATOM      2  C2  CR9 d          12.400 -10.512  22.496  0.00  0.00     0.132 A 
ATOM      3  F2  CR9 d          12.189  -9.371  23.209  0.00  0.00    -0.205 F 
ATOM      4  C3  CR9 d          13.233 -10.390  21.393  0.00  0.00     0.075 A 
ATOM      5  C4  CR9 d          13.489 -11.514  20.666  0.00  0.00     0.066 A 
ATOM      6  C5  CR9 d          12.961 -12.731  20.977  0.00  0.00     0.087 A 
ATOM      7  C6  CR9 d          12.120 -12.887  22.080  0.00  0.00     0.052 A 
ATOM      8  N3  CR9 d          14.214 -11.701  19.621  0.00  0.00    -0.338 N 
ATOM      9  N4  CR9 d          13.345 -13.674  20.140  0.00  0.00    -0.228 NA
ATOM     10  C8  CR9 d          14.128 -12.976  19.308  0.00  0.00     0.142 A 
ATOM     11  H7  CR9 d          14.761 -10.985  19.121  0.00  0.00     0.167 HD
ENDROOT
BRANCH  10  12
ATOM     12  C1' CR9 d          14.817 -13.536  18.215  0.00  0.00     0.046 A 
ATOM     13  C2' CR9 d          14.718 -14.904  17.935  0.00  0.00     0.018 A 
ATOM     14  C3' CR9 d          15.406 -15.460  16.864  0.00  0.00     0.004 A 
ATOM     15  C4' CR9 d          16.195 -14.666  16.053  0.00  0.00     0.040 A 
ATOM     16  C5' CR9 d          16.319 -13.297  16.304  0.00  0.00     0.103 A 
ATOM     17  C6' CR9 d          15.623 -12.727  17.389  0.00  0.00     0.113 A 
BRANCH  16  18
ATOM     18  O5' CR9 d          17.119 -12.506  15.487  0.00  0.00    -0.343 OA
BRANCH  18  19
ATOM     19  C6' CR9 d          18.304 -12.895  14.781  0.00  0.00     0.132 C 
ATOM     20  C1' CR9 d          18.314 -12.205  13.337  0.00  0.00     0.011 C 
ATOM     21  C2' CR9 d          19.312 -11.034  13.276  0.00  0.00     0.007 C 
ATOM     22  C1A CR9 d          16.921 -11.687  12.929  0.00  0.00     0.012 C 
ATOM     23  C3' CR9 d          20.735 -11.551  13.569  0.00  0.00     0.001 C 
ATOM     24  C4' CR9 d          20.770 -12.538  14.800  0.00  0.00     0.002 C 
ATOM     25  C5' CR9 d          19.483 -12.431  15.653  0.00  0.00     0.033 C 
ENDBRANCH  18  19
ENDBRANCH  16  18
BRANCH  17  26
ATOM     26  O6' CR9 d          15.714 -11.368  17.651  0.00  0.00    -0.357 OA
ATOM     27  H11 CR9 d          15.186 -11.157  18.412  0.00  0.00     0.217 HD
ENDBRANCH  17  26
ENDBRANCH  10  12
BRANCH   1  28
ATOM     28  C7  CR9 d          10.969 -11.878  23.993  0.00  0.00     0.105 C 
ATOM     29  N2  CR9 d          10.776 -10.874  24.838  0.00  0.00    -0.385 N 
ATOM     30  H5  CR9 d          11.254  -9.974  24.686  0.00  0.00     0.157 HD
ATOM     31  H6  CR9 d          10.149 -10.994  25.646  0.00  0.00     0.157 HD
BRANCH  28  32
ATOM     32  N1  CR9 d          10.346 -13.005  24.218  0.00  0.00    -0.385 N 
ATOM     33  H3  CR9 d           9.724 -13.096  25.034  0.00  0.00     0.157 HD
ATOM     34  H4  CR9 d          10.477 -13.802  23.579  0.00  0.00     0.157 HD
ENDBRANCH  28  32
ENDBRANCH   1  28
TORSDOF 6
