REMARK  11 active torsions:
REMARK  status: ('A' for Active; 'I' for Inactive)
REMARK    1  A    between atoms: PG_1  and  S1G_2 
REMARK    2  A    between atoms: O3B_8  and  PG_1 
REMARK    3  A    between atoms: PB_5  and  O3B_8 
REMARK    4  A    between atoms: O3A_12  and  PB_5 
REMARK    5  A    between atoms: PA_9  and  O3A_12 
REMARK    6  A    between atoms: PA_9  and  O5'_13 
REMARK    7  A    between atoms: O5'_13  and  C5'_14 
REMARK    8  A    between atoms: C5'_14  and  C4'_15 
REMARK    9  A    between atoms: C3'_17  and  O3'_18 
REMARK   10  A    between atoms: C2'_19  and  O2'_20 
REMARK   11  A    between atoms: C1'_21  and  N9_22 
ROOT
ATOM      1  C4' AGS d          19.658  44.989 -10.330  0.00  0.00     0.180 C 
ATOM      2  O4' AGS d          20.148  44.487 -11.584  0.00  0.00    -0.353 OA
ATOM      3  C3' AGS d          20.810  44.858  -9.346  0.00  0.00     0.182 C 
ATOM      4  C2' AGS d          21.577  43.680  -9.890  0.00  0.00     0.198 C 
ATOM      5  C1' AGS d          21.367  43.753 -11.397  0.00  0.00     0.262 C 
ENDROOT
BRANCH   1   6
ATOM      6  C5' AGS d          19.197  46.429 -10.483  0.00  0.00     0.216 C 
BRANCH   6   7
ATOM      7  O5' AGS d          20.338  47.257 -10.694  0.00  0.00    -0.287 OA
BRANCH   7   8
ATOM      8  PA  AGS d          20.438  48.731 -10.064  0.00  0.00     0.417 P 
ATOM      9  O1A AGS d          21.857  49.037  -9.666  0.00  0.00    -0.624 OA
ATOM     10  O2A AGS d          19.307  48.978  -9.105  0.00  0.00    -0.624 OA
BRANCH   8  11
ATOM     11  O3A AGS d          20.160  49.578 -11.398  0.00  0.00    -0.180 OA
BRANCH  11  12
ATOM     12  PB  AGS d          20.405  51.160 -11.527  0.00  0.00     0.426 P 
ATOM     13  O1B AGS d          20.489  51.782 -10.156  0.00  0.00    -0.624 OA
ATOM     14  O2B AGS d          21.489  51.377 -12.553  0.00  0.00    -0.624 OA
BRANCH  12  15
ATOM     15  O3B AGS d          18.982  51.507 -12.212  0.00  0.00    -0.195 OA
BRANCH  15  16
ATOM     16  PG  AGS d          18.148  52.882 -12.082  0.00  0.00     0.322 P 
ATOM     17  O2G AGS d          17.952  53.224 -10.627  0.00  0.00    -0.638 OA
ATOM     18  O3G AGS d          18.863  53.869 -12.966  0.00  0.00    -0.638 OA
BRANCH  16  19
ATOM     19  S1G AGS d          16.246  52.528 -12.835  0.00  0.00    -0.054 SA
ATOM     20  H1  AGS d          16.311  52.292 -13.813  0.00  0.00     0.114 HD
ENDBRANCH  16  19
ENDBRANCH  15  16
ENDBRANCH  12  15
ENDBRANCH  11  12
ENDBRANCH   8  11
ENDBRANCH   7   8
ENDBRANCH   6   7
ENDBRANCH   1   6
BRANCH   3  21
ATOM     21  O3' AGS d          20.380  44.629  -8.000  0.00  0.00    -0.390 OA
ATOM     22  H6  AGS d          19.877  43.824  -7.962  0.00  0.00     0.210 HD
ENDBRANCH   3  21
BRANCH   5  23
ATOM     23  N9  AGS d          22.523  44.440 -12.036  0.00  0.00    -0.294 N 
ATOM     24  C8  AGS d          22.470  45.624 -12.673  0.00  0.00     0.214 A 
ATOM     25  N7  AGS d          23.686  45.988 -13.141  0.00  0.00    -0.236 NA
ATOM     26  C5  AGS d          24.564  45.033 -12.797  0.00  0.00     0.149 A 
ATOM     27  C6  AGS d          26.022  44.805 -12.984  0.00  0.00     0.155 A 
ATOM     28  C4  AGS d          23.797  44.007 -12.070  0.00  0.00     0.167 A 
ATOM     29  N6  AGS d          26.787  45.703 -13.647  0.00  0.00    -0.382 N 
ATOM     30  N1  AGS d          26.555  43.672 -12.471  0.00  0.00    -0.222 NA
ATOM     31  H11 AGS d          27.795  45.531 -13.768  0.00  0.00     0.157 HD
ATOM     32  H12 AGS d          26.361  46.559 -14.030  0.00  0.00     0.157 HD
ATOM     33  C2  AGS d          25.794  42.771 -11.810  0.00  0.00     0.237 A 
ATOM     34  N3  AGS d          24.468  42.918 -11.607  0.00  0.00    -0.222 NA
ENDBRANCH   5  23
BRANCH   4  35
ATOM     35  O2' AGS d          20.984  42.475  -9.398  0.00  0.00    -0.388 OA
ATOM     36  H8  AGS d          21.019  42.471  -8.449  0.00  0.00     0.210 HD
ENDBRANCH   4  35
TORSDOF 11
