REMARK  10 active torsions:
REMARK  status: ('A' for Active; 'I' for Inactive)
REMARK    1  A    between atoms: S8_2  and  N28_3 
REMARK    2  A    between atoms: S8_2  and  C26_34 
REMARK    3  A    between atoms: N28_3  and  C7_4 
REMARK    4  A    between atoms: N28_3  and  C23_11 
REMARK    5  A    between atoms: C7_4  and  C12_5 
REMARK    6  A    between atoms: C24_15  and  N32_16 
REMARK    7  A    between atoms: N32_16  and  S9_17 
REMARK    8  A    between atoms: N32_16  and  C33_26 
REMARK    9  A    between atoms: S9_17  and  C27_19 
REMARK   10  A    between atoms: C33_26  and  C34_27 
ROOT
ATOM      1  C23 G0G d          12.309 -20.104 -18.138  0.00  0.00     0.147 C 
ATOM      2  C21 G0G d          13.690 -19.765 -18.768  0.00  0.00     0.260 C 
ATOM      3  N22 G0G d          13.924 -18.310 -18.630  0.00  0.00    -0.071 N 
ATOM      4  C25 G0G d          12.615 -17.652 -18.344  0.00  0.00     0.260 C 
ATOM      5  C24 G0G d          11.753 -18.705 -17.619  0.00  0.00     0.147 C 
ATOM      6  H11 G0G d          14.310 -17.944 -19.486  0.00  0.00     0.277 HD
ATOM      7  H12 G0G d          14.565 -18.138 -17.872  0.00  0.00     0.277 HD
ENDROOT
BRANCH   1   8
ATOM      8  N28 G0G d          11.472 -20.868 -19.094  0.00  0.00    -0.294 N 
BRANCH   8   9
ATOM      9  S8  G0G d          11.149 -22.544 -18.779  0.00  0.00     0.261 S 
ATOM     10  O10 G0G d          11.241 -22.817 -17.360  0.00  0.00    -0.200 OA
ATOM     11  O41 G0G d           9.952 -22.913 -19.553  0.00  0.00    -0.200 OA
BRANCH   9  12
ATOM     12  C26 G0G d          12.561 -23.161 -19.671  0.00  0.00     0.079 A 
ATOM     13  C19 G0G d          13.733 -23.529 -18.945  0.00  0.00     0.025 A 
ATOM     14  C3  G0G d          14.900 -23.994 -19.650  0.00  0.00     0.002 A 
ATOM     15  C4  G0G d          14.856 -24.099 -21.065  0.00  0.00     0.000 A 
ATOM     16  C1  G0G d          13.670 -23.748 -21.787  0.00  0.00     0.002 A 
ATOM     17  C17 G0G d          12.521 -23.307 -21.081  0.00  0.00     0.025 A 
ENDBRANCH   9  12
ENDBRANCH   8   9
BRANCH   8  18
ATOM     18  C7  G0G d          10.950 -20.315 -20.360  0.00  0.00     0.174 C 
BRANCH  18  19
ATOM     19  C12 G0G d           9.667 -19.496 -20.263  0.00  0.00    -0.040 A 
ATOM     20  C13 G0G d           8.658 -19.786 -19.304  0.00  0.00     0.009 A 
ATOM     21  C29 G0G d           7.462 -19.021 -19.251  0.00  0.00     0.001 A 
ATOM     22  C31 G0G d           7.283 -17.928 -20.144  0.00  0.00     0.000 A 
ATOM     23  C30 G0G d           8.282 -17.645 -21.113  0.00  0.00     0.001 A 
ATOM     24  C14 G0G d           9.483 -18.389 -21.137  0.00  0.00     0.009 A 
ENDBRANCH  18  19
ENDBRANCH   8  18
ENDBRANCH   1   8
BRANCH   5  25
ATOM     25  N32 G0G d          12.014 -18.749 -16.113  0.00  0.00    -0.294 N 
BRANCH  25  26
ATOM     26  S9  G0G d          10.649 -19.078 -15.171  0.00  0.00     0.261 S 
ATOM     27  O11 G0G d           9.887 -20.202 -15.728  0.00  0.00    -0.200 OA
ATOM     28  O40 G0G d          11.080 -19.176 -13.760  0.00  0.00    -0.200 OA
BRANCH  26  29
ATOM     29  C27 G0G d           9.674 -17.636 -15.048  0.00  0.00     0.079 A 
ATOM     30  C18 G0G d           8.347 -17.665 -15.588  0.00  0.00     0.025 A 
ATOM     31  C2  G0G d           7.495 -16.534 -15.493  0.00  0.00     0.002 A 
ATOM     32  C6  G0G d           7.983 -15.359 -14.891  0.00  0.00     0.000 A 
ATOM     33  C5  G0G d           9.299 -15.337 -14.343  0.00  0.00     0.002 A 
ATOM     34  C20 G0G d          10.167 -16.459 -14.432  0.00  0.00     0.025 A 
ENDBRANCH  26  29
ENDBRANCH  25  26
BRANCH  25  35
ATOM     35  C33 G0G d          13.330 -18.599 -15.419  0.00  0.00     0.174 C 
BRANCH  35  36
ATOM     36  C34 G0G d          14.116 -19.916 -15.289  0.00  0.00    -0.040 C 
ATOM     37  C35 G0G d          13.465 -21.102 -14.865  0.00  0.00     0.009 C 
ATOM     38  C36 G0G d          14.247 -22.288 -14.755  0.00  0.00     0.001 C 
ATOM     39  C37 G0G d          15.625 -22.309 -15.109  0.00  0.00     0.000 C 
ATOM     40  C39 G0G d          16.303 -21.103 -15.474  0.00  0.00     0.001 C 
ATOM     41  C38 G0G d          15.504 -19.941 -15.625  0.00  0.00     0.009 C 
ENDBRANCH  35  36
ENDBRANCH  25  35
ENDBRANCH   5  25
TORSDOF 10
