REMARK  9 active torsions:
REMARK  status: ('A' for Active; 'I' for Inactive)
REMARK       I    between atoms: CAG_2  and  NAI_4 
REMARK    1  A    between atoms: NAI_4  and  CAB_5 
REMARK    2  A    between atoms: CAC_6  and  OAJ_7 
REMARK    3  A    between atoms: CAD_8  and  OAK_9 
REMARK    4  A    between atoms: CAE_10  and  CAF_11 
REMARK    5  A    between atoms: CAF_11  and  OAM_12 
REMARK    6  A    between atoms: CAA_14  and  NAY_15 
REMARK    7  A    between atoms: NAY_15  and  OAQ_16 
REMARK    8  A    between atoms: OAQ_16  and  CAP_17 
REMARK       I    between atoms: CAP_17  and  NAO_19 
REMARK    9  A    between atoms: NAO_19  and  CAS_20 
ROOT
ATOM      1  CAB OAN d          35.268 -18.241  17.046  0.00  0.00     0.175 C 
ATOM      2  CAC OAN d          34.612 -16.886  16.593  0.00  0.00     0.176 C 
ATOM      3  CAD OAN d          35.268 -16.399  15.292  0.00  0.00     0.180 C 
ATOM      4  CAE OAN d          35.059 -17.487  14.251  0.00  0.00     0.179 C 
ATOM      5  OAL OAN d          35.771 -18.702  14.659  0.00  0.00    -0.345 OA
ATOM      6  CAA OAN d          36.056 -18.841  16.006  0.00  0.00     0.381 C 
ENDROOT
BRANCH   6   7
ATOM      7  NAY OAN d          36.803 -19.932  16.137  0.00  0.00     0.077 N 
ATOM      8  H15 OAN d          36.384 -20.689  15.619  0.00  0.00     0.319 HD
ATOM      9  H16 OAN d          36.861 -20.183  17.111  0.00  0.00     0.319 HD
BRANCH   7  10
ATOM     10  OAQ OAN d          38.131 -19.679  15.627  0.00  0.00    -0.101 OA
BRANCH  10  11
ATOM     11  CAP OAN d          39.097 -20.549  15.276  0.00  0.00     0.392 C 
ATOM     12  OAR OAN d          39.315 -21.465  16.088  0.00  0.00    -0.236 OA
ATOM     13  NAO OAN d          39.995 -20.160  14.335  0.00  0.00    -0.301 N 
ATOM     14  H17 OAN d          39.772 -19.370  13.764  0.00  0.00     0.171 HD
BRANCH  13  15
ATOM     15  CAS OAN d          41.171 -20.784  14.131  0.00  0.00     0.036 A 
ATOM     16  CAT OAN d          41.380 -22.105  14.582  0.00  0.00     0.029 A 
ATOM     17  CAU OAN d          42.575 -22.789  14.305  0.00  0.00     0.002 A 
ATOM     18  CAV OAN d          43.544 -22.140  13.528  0.00  0.00     0.000 A 
ATOM     19  CAW OAN d          43.340 -20.842  13.034  0.00  0.00     0.002 A 
ATOM     20  CAX OAN d          42.148 -20.170  13.325  0.00  0.00     0.029 A 
ENDBRANCH  13  15
ENDBRANCH  10  11
ENDBRANCH   7  10
ENDBRANCH   6   7
BRANCH   1  21
ATOM     21  NAI OAN d          34.273 -19.090  17.712  0.00  0.00    -0.350 N 
ATOM     22  CAG OAN d          33.376 -19.810  17.046  0.00  0.00     0.214 C 
ATOM     23  CAH OAN d          32.422 -20.556  17.933  0.00  0.00     0.117 C 
ATOM     24  OAN OAN d          33.311 -19.890  15.824  0.00  0.00    -0.274 OA
ATOM     25  H4  OAN d          34.270 -19.128  18.711  0.00  0.00     0.163 HD
ENDBRANCH   1  21
BRANCH   2  26
ATOM     26  OAJ OAN d          34.715 -15.878  17.611  0.00  0.00    -0.391 OA
ATOM     27  H7  OAN d          34.309 -15.076  17.303  0.00  0.00     0.210 HD
ENDBRANCH   2  26
BRANCH   4  28
ATOM     28  CAF OAN d          35.536 -17.021  12.877  0.00  0.00     0.198 C 
BRANCH  28  29
ATOM     29  OAM OAN d          35.214 -18.065  11.961  0.00  0.00    -0.398 OA
ATOM     30  H13 OAN d          35.659 -18.863  12.223  0.00  0.00     0.209 HD
ENDBRANCH  28  29
ENDBRANCH   4  28
BRANCH   3  31
ATOM     31  OAK OAN d          34.649 -15.164  14.848  0.00  0.00    -0.390 OA
ATOM     32  H9  OAN d          34.756 -14.499  15.518  0.00  0.00     0.210 HD
ENDBRANCH   3  31
TORSDOF 9
