REMARK  5 active torsions:
REMARK  status: ('A' for Active; 'I' for Inactive)
REMARK    1  A    between atoms: O6_1  and  C5_2 
REMARK    2  A    between atoms: C4_3  and  O4_4 
REMARK    3  A    between atoms: C3_5  and  O3_6 
REMARK    4  A    between atoms: C1_7  and  N1_8 
REMARK    5  A    between atoms: C2_9  and  O2_10 
ROOT
ATOM      1  C5  YTB d          30.879  66.011   7.361  0.00  0.00     0.182 C 
ATOM      2  C4  YTB d          31.616  67.273   6.975  0.00  0.00     0.180 C 
ATOM      3  C3  YTB d          32.977  67.072   7.637  0.00  0.00     0.180 C 
ATOM      4  C1  YTB d          31.159  65.973   8.856  0.00  0.00     0.245 C 
ATOM      5  C2  YTB d          32.594  66.488   9.013  0.00  0.00     0.182 C 
ENDROOT
BRANCH   4   6
ATOM      6  N1  YTB d          31.003  64.633   9.425  0.00  0.00    -0.070 N 
ATOM      7  H8  YTB d          31.199  64.663  10.413  0.00  0.00     0.274 HD
ATOM      8  H9  YTB d          31.645  64.000   8.974  0.00  0.00     0.274 HD
ATOM      9  H10 YTB d          30.058  64.314   9.279  0.00  0.00     0.274 HD
ENDBRANCH   4   6
BRANCH   1  10
ATOM     10  O6  YTB d          29.490  66.108   7.004  0.00  0.00    -0.391 OA
ATOM     11  H1  YTB d          29.043  65.308   7.254  0.00  0.00     0.210 HD
ENDBRANCH   1  10
BRANCH   5  12
ATOM     12  O2  YTB d          33.496  65.458   9.472  0.00  0.00    -0.391 OA
ATOM     13  H12 YTB d          33.505  64.744   8.845  0.00  0.00     0.210 HD
ENDBRANCH   5  12
BRANCH   2  14
ATOM     14  O4  YTB d          31.671  67.546   5.568  0.00  0.00    -0.390 OA
ATOM     15  H4  YTB d          32.111  66.830   5.125  0.00  0.00     0.210 HD
ENDBRANCH   2  14
BRANCH   3  16
ATOM     16  O3  YTB d          33.727  66.102   6.888  0.00  0.00    -0.390 OA
ATOM     17  H6  YTB d          34.575  65.974   7.297  0.00  0.00     0.210 HD
ENDBRANCH   3  16
TORSDOF 5
