1toj_ligand

Created by X-TOOL on Fri Sep 26 17:34:25 2014
 20 20  0  0  0  0  0  0  0  0999 V2000
   31.2410   23.6960    4.7350  C 0  5  0  1  0  3
   30.1150   23.2230    4.8740  O 0  0  0  1  0  1
   31.3860   24.8830    4.1580  O 0  0  0  1  0  1
   32.4760   22.9440    5.1790  C 0  0  0  3  0  4
   32.3590   22.4020    6.6100  C 0  0  0  3  0  4
   32.6090   23.5050    7.6240  C 0  0  0  1  0  3
   33.8300   23.5640    8.3140  C 0  0  0  2  0  3
   34.0550   24.5930    9.2450  C 0  0  0  2  0  3
   33.0780   25.5660    9.4640  C 0  0  0  2  0  3
   31.8580   25.5130    8.7720  C 0  0  0  2  0  3
   31.6280   24.4870    7.8570  C 0  0  0  2  0  3
   33.3386   23.6248    5.1304  H 0  0  0  1  0  1
   32.6375   22.0980    4.4948  H 0  0  0  1  0  1
   33.1010   21.6030    6.7553  H 0  0  0  1  0  1
   31.3481   21.9955    6.7606  H 0  0  0  1  0  1
   34.5960   22.8194    8.1298  H 0  0  0  1  0  1
   34.9889   24.6311    9.7940  H 0  0  0  1  0  1
   33.2625   26.3661   10.1717  H 0  0  0  1  0  1
   31.0985   26.2661    8.9483  H 0  0  0  1  0  1
   30.6867   24.4451    7.3210  H 0  0  0  1  0  1
  1  2  2  0  0  2
  1  3  2  0  0  2
  1  4  1  0  0  2
  4  5  1  0  0  2
  5  6  1  0  0  2
  6  7  4  0  0  1
  6 11  4  0  0  1
  7  8  4  0  0  1
  8  9  4  0  0  1
  9 10  4  0  0  1
 10 11  4  0  0  1
  4 12  1  0  0  2
  4 13  1  0  0  2
  5 14  1  0  0  2
  5 15  1  0  0  2
  7 16  1  0  0  2
  8 17  1  0  0  2
  9 18  1  0  0  2
 10 19  1  0  0  2
 11 20  1  0  0  2
M  END
> <MOLECULAR_FORMULA>
C9H9O2

> <MOLECULAR_WEIGHT>
149.1

> <NUM_HB_ATOMS>
2  

> <NUM_ROTOR>
2  

> <XLOGP2>
1.38 

$$$$
