REMARK  14 active torsions:
REMARK  status: ('A' for Active; 'I' for Inactive)
REMARK    1  A    between atoms: C2_1  and  O39_38 
REMARK    2  A    between atoms: S8_7  and  C5_4 
REMARK    3  A    between atoms: N11_10  and  S8_7 
REMARK    4  A    between atoms: N11_10  and  C12_11 
REMARK    5  A    between atoms: C16_15  and  N11_10 
REMARK    6  A    between atoms: C12_11  and  C13_12 
REMARK    7  A    between atoms: C17_16  and  C16_15 
REMARK    8  A    between atoms: C17_16  and  O18_17 
REMARK    9  A    between atoms: C19_18  and  C17_16 
REMARK   10  A    between atoms: C19_18  and  N20_19 
REMARK   11  A    between atoms: C32_31  and  C19_18 
REMARK       I    between atoms: N20_19  and  C21_20 
REMARK   12  A    between atoms: C21_20  and  O23_22 
REMARK   13  A    between atoms: O23_22  and  C24_23 
REMARK   14  A    between atoms: C38_37  and  C32_31 
ROOT
ATOM      1  C19 G79 d          14.156  20.196  16.978  0.00  0.00     0.121 C 
ENDROOT
BRANCH   1   2
ATOM      2  C17 G79 d          13.808  19.093  17.984  0.00  0.00     0.160 C 
BRANCH   2   3
ATOM      3  C16 G79 d          12.681  18.171  17.491  0.00  0.00     0.169 C 
BRANCH   3   4
ATOM      4  N11 G79 d          11.399  18.858  17.408  0.00  0.00    -0.304 N 
BRANCH   4   5
ATOM      5  S8  G79 d          10.698  19.108  15.943  0.00  0.00     0.260 S 
ATOM      6  O9  G79 d          11.743  19.187  14.911  0.00  0.00    -0.200 OA
ATOM      7  O10 G79 d           9.785  20.274  16.128  0.00  0.00    -0.200 OA
BRANCH   5   8
ATOM      8  C5  G79 d           9.682  17.744  15.443  0.00  0.00     0.079 C 
ATOM      9  C4  G79 d          10.268  16.646  14.827  0.00  0.00     0.028 C 
ATOM     10  C3  G79 d           9.536  15.469  14.633  0.00  0.00     0.038 C 
ATOM     11  C2  G79 d           8.170  15.447  14.894  0.00  0.00     0.068 C 
ATOM     12  C7  G79 d           7.564  16.596  15.409  0.00  0.00     0.038 C 
ATOM     13  C6  G79 d           8.329  17.736  15.691  0.00  0.00     0.028 C 
BRANCH  11  14
ATOM     14  O39 G79 d           7.525  14.260  14.711  0.00  0.00    -0.356 OA
ATOM     15  C40 G79 d           6.136  14.349  14.920  0.00  0.00     0.210 C 
ENDBRANCH  11  14
ENDBRANCH   5   8
ENDBRANCH   4   5
BRANCH   4  16
ATOM     16  C12 G79 d          10.473  18.583  18.488  0.00  0.00     0.139 C 
BRANCH  16  17
ATOM     17  C13 G79 d          10.713  19.351  19.779  0.00  0.00    -0.004 C 
ATOM     18  C14 G79 d          10.710  20.865  19.604  0.00  0.00     0.011 C 
ATOM     19  C15 G79 d           9.687  18.981  20.852  0.00  0.00     0.011 C 
ENDBRANCH  16  17
ENDBRANCH   4  16
ENDBRANCH   3   4
ENDBRANCH   2   3
BRANCH   2  20
ATOM     20  O18 G79 d          14.963  18.307  18.314  0.00  0.00    -0.392 OA
ATOM     21  H17 G79 d          15.658  18.879  18.618  0.00  0.00     0.210 HD
ENDBRANCH   2  20
ENDBRANCH   1   2
BRANCH   1  22
ATOM     22  N20 G79 d          15.046  21.159  17.625  0.00  0.00    -0.329 N 
ATOM     23  C21 G79 d          14.700  22.439  17.701  0.00  0.00     0.361 C 
ATOM     24  O22 G79 d          13.629  22.977  17.424  0.00  0.00    -0.238 OA
ATOM     25  H19 G79 d          15.916  20.853  18.011  0.00  0.00     0.165 HD
BRANCH  23  26
ATOM     26  O23 G79 d          15.776  23.215  18.141  0.00  0.00    -0.298 OA
BRANCH  26  27
ATOM     27  C24 G79 d          15.528  24.610  18.157  0.00  0.00     0.140 C 
ATOM     28  C31 G79 d          16.716  25.342  17.542  0.00  0.00     0.053 C 
ATOM     29  C27 G79 d          17.879  25.388  18.498  0.00  0.00     0.131 C 
ATOM     30  C30 G79 d          17.308  24.549  16.369  0.00  0.00     0.052 C 
ATOM     31  C26 G79 d          17.600  25.742  19.920  0.00  0.00     0.032 C 
ATOM     32  O28 G79 d          18.529  24.150  18.335  0.00  0.00    -0.355 OA
ATOM     33  C25 G79 d          16.450  24.910  20.444  0.00  0.00     0.005 C 
ATOM     34  C44 G79 d          15.233  25.072  19.558  0.00  0.00     0.033 C 
ATOM     35  C29 G79 d          18.312  23.626  17.038  0.00  0.00     0.264 C 
ATOM     36  O41 G79 d          19.517  23.654  16.254  0.00  0.00    -0.361 OA
ATOM     37  C42 G79 d          19.595  24.982  15.744  0.00  0.00     0.171 C 
ATOM     38  C43 G79 d          18.171  25.424  15.500  0.00  0.00     0.036 C 
ENDBRANCH  26  27
ENDBRANCH  23  26
ENDBRANCH   1  22
BRANCH   1  39
ATOM     39  C32 G79 d          14.880  19.667  15.740  0.00  0.00     0.066 C 
BRANCH  39  40
ATOM     40  C38 G79 d          15.232  20.807  14.783  0.00  0.00    -0.056 A 
ATOM     41  C33 G79 d          16.564  21.169  14.549  0.00  0.00     0.007 A 
ATOM     42  C34 G79 d          16.854  22.229  13.691  0.00  0.00     0.001 A 
ATOM     43  C35 G79 d          15.831  22.882  13.013  0.00  0.00     0.000 A 
ATOM     44  C36 G79 d          14.527  22.517  13.268  0.00  0.00     0.001 A 
ATOM     45  C37 G79 d          14.220  21.484  14.127  0.00  0.00     0.007 A 
ENDBRANCH  39  40
ENDBRANCH   1  39
TORSDOF 14
