REMARK  8 active torsions:
REMARK  status: ('A' for Active; 'I' for Inactive)
REMARK    1  A    between atoms: C7_7  and  C35_9 
REMARK    2  A    between atoms: C35_9  and  N3_10 
REMARK    3  A    between atoms: C5_14  and  C5A_17 
REMARK    4  A    between atoms: C5A_17  and  C5B_18 
REMARK    5  A    between atoms: C5B_18  and  O5G_19 
REMARK    6  A    between atoms: O5G_19  and  P1_20 
REMARK    7  A    between atoms: P1_20  and  O11_21 
REMARK    8  A    between atoms: O11_21  and  P2_24 
ROOT
ATOM      1  N3  TZD d          26.929 -32.853  10.807  0.00  0.00    -0.307 N 
ATOM      2  C2  TZD d          27.639 -32.576  11.935  0.00  0.00     0.291 A 
ATOM      3  OC2 TZD d          28.874 -32.673  12.085  0.00  0.00    -0.259 OA
ATOM      4  S1  TZD d          26.546 -32.071  13.217  0.00  0.00    -0.032 SA
ATOM      5  C5  TZD d          25.153 -32.266  12.181  0.00  0.00     0.012 A 
ATOM      6  C4  TZD d          25.517 -32.681  10.929  0.00  0.00     0.025 A 
ATOM      7  C4A TZD d          24.598 -32.944   9.764  0.00  0.00     0.069 C 
ENDROOT
BRANCH   1   8
ATOM      8  C35 TZD d          27.583 -33.269   9.498  0.00  0.00     0.176 C 
BRANCH   8   9
ATOM      9  C7  TZD d          27.598 -34.766   9.270  0.00  0.00     0.023 A 
ATOM     10  C5  TZD d          28.357 -35.732  10.107  0.00  0.00     0.132 A 
ATOM     11  N4  TZD d          28.306 -37.101   9.814  0.00  0.00    -0.216 NA
ATOM     12  N6  TZD d          29.119 -35.385  11.121  0.00  0.00    -0.383 N 
ATOM     13  C2  TZD d          27.573 -37.510   8.776  0.00  0.00     0.124 A 
ATOM     14  N1  TZD d          26.855 -36.642   7.976  0.00  0.00    -0.245 NA
ATOM     15  C2A TZD d          27.525 -38.956   8.421  0.00  0.00     0.093 C 
ATOM     16  C8  TZD d          26.874 -35.286   8.226  0.00  0.00     0.131 A 
ATOM     17  H4  TZD d          29.200 -34.394  11.389  0.00  0.00     0.157 HD
ATOM     18  H5  TZD d          29.635 -36.105  11.648  0.00  0.00     0.157 HD
ENDBRANCH   8   9
ENDBRANCH   1   8
BRANCH   5  19
ATOM     19  C5A TZD d          23.766 -32.064  12.700  0.00  0.00     0.075 C 
BRANCH  19  20
ATOM     20  C5B TZD d          23.558 -32.759  14.012  0.00  0.00     0.186 C 
BRANCH  20  21
ATOM     21  O5G TZD d          22.143 -32.890  14.221  0.00  0.00    -0.289 OA
BRANCH  21  22
ATOM     22  P1  TZD d          21.572 -33.764  15.429  0.00  0.00     0.418 P 
ATOM     23  O12 TZD d          20.137 -33.440  15.584  0.00  0.00    -0.624 OA
ATOM     24  O13 TZD d          21.976 -35.185  15.224  0.00  0.00    -0.624 OA
BRANCH  22  25
ATOM     25  O11 TZD d          22.370 -33.202  16.696  0.00  0.00    -0.173 OA
BRANCH  25  26
ATOM     26  P2  TZD d          22.316 -31.867  17.575  0.00  0.00     0.431 P 
ATOM     27  O21 TZD d          22.332 -32.318  19.068  0.00  0.00    -0.616 OA
ATOM     28  O22 TZD d          23.554 -31.103  17.282  0.00  0.00    -0.616 OA
ATOM     29  O23 TZD d          21.024 -31.210  17.281  0.00  0.00    -0.616 OA
ENDBRANCH  25  26
ENDBRANCH  22  25
ENDBRANCH  21  22
ENDBRANCH  20  21
ENDBRANCH  19  20
ENDBRANCH   5  19
TORSDOF 8
