REMARK  9 active torsions:
REMARK  status: ('A' for Active; 'I' for Inactive)
REMARK    1  A    between atoms: C4_5  and  N4_6 
REMARK    2  A    between atoms: C5_7  and  C35_9 
REMARK    3  A    between atoms: C35_9  and  N3_10 
REMARK    4  A    between atoms: C5_13  and  C5A_16 
REMARK    5  A    between atoms: C5A_16  and  C5B_17 
REMARK    6  A    between atoms: C5B_17  and  O5G_18 
REMARK    7  A    between atoms: O5G_18  and  P1_19 
REMARK    8  A    between atoms: P1_19  and  O11_20 
REMARK    9  A    between atoms: O11_20  and  P2_23 
ROOT
ATOM      1  N3  TDP d          75.673   1.978   7.013  0.00  0.00    -0.349 N 
ATOM      2  C2  TDP d          75.796   3.246   6.345  0.00  0.00     0.141 A 
ATOM      3  S1  TDP d          74.063   3.627   5.909  0.00  0.00    -0.087 SA
ATOM      4  C5  TDP d          73.375   2.124   6.532  0.00  0.00     0.008 A 
ATOM      5  C4  TDP d          74.451   1.376   7.043  0.00  0.00     0.021 A 
ATOM      6  C4A TDP d          74.263   0.023   7.633  0.00  0.00     0.069 C 
ENDROOT
BRANCH   1   7
ATOM      7  C35 TDP d          76.964   1.418   7.470  0.00  0.00     0.172 C 
BRANCH   7   8
ATOM      8  C5  TDP d          77.103   1.588   8.995  0.00  0.00     0.023 A 
ATOM      9  C4  TDP d          77.334   2.857   9.615  0.00  0.00     0.132 A 
ATOM     10  N3  TDP d          77.446   2.896  10.971  0.00  0.00    -0.216 NA
ATOM     11  C2  TDP d          77.355   1.786  11.758  0.00  0.00     0.124 A 
ATOM     12  N1  TDP d          77.094   0.600  11.189  0.00  0.00    -0.245 NA
ATOM     13  C2A TDP d          77.460   1.974  13.260  0.00  0.00     0.093 C 
ATOM     14  C6  TDP d          76.946   0.497   9.849  0.00  0.00     0.131 A 
BRANCH   9  15
ATOM     15  N4  TDP d          77.539   4.035   8.939  0.00  0.00    -0.383 N 
ATOM     16  H4  TDP d          77.466   4.059   7.912  0.00  0.00     0.157 HD
ATOM     17  H5  TDP d          77.766   4.894   9.459  0.00  0.00     0.157 HD
ENDBRANCH   9  15
ENDBRANCH   7   8
ENDBRANCH   1   7
BRANCH   4  18
ATOM     18  C5A TDP d          71.908   1.866   6.420  0.00  0.00     0.075 C 
BRANCH  18  19
ATOM     19  C5B TDP d          71.119   2.886   7.248  0.00  0.00     0.186 C 
BRANCH  19  20
ATOM     20  O5G TDP d          69.773   2.677   7.132  0.00  0.00    -0.289 OA
BRANCH  20  21
ATOM     21  P1  TDP d          68.702   3.699   7.649  0.00  0.00     0.418 P 
ATOM     22  O12 TDP d          69.102   4.164   8.976  0.00  0.00    -0.624 OA
ATOM     23  O13 TDP d          67.323   3.036   7.542  0.00  0.00    -0.624 OA
BRANCH  21  24
ATOM     24  O11 TDP d          68.779   5.025   6.725  0.00  0.00    -0.173 OA
BRANCH  24  25
ATOM     25  P2  TDP d          68.508   5.173   5.126  0.00  0.00     0.431 P 
ATOM     26  O21 TDP d          69.836   4.843   4.420  0.00  0.00    -0.616 OA
ATOM     27  O22 TDP d          67.463   4.103   4.739  0.00  0.00    -0.616 OA
ATOM     28  O23 TDP d          68.089   6.598   4.869  0.00  0.00    -0.616 OA
ENDBRANCH  24  25
ENDBRANCH  21  24
ENDBRANCH  20  21
ENDBRANCH  19  20
ENDBRANCH  18  19
ENDBRANCH   4  18
TORSDOF 9
