REMARK  3 active torsions:
REMARK  status: ('A' for Active; 'I' for Inactive)
REMARK    1  A    between atoms: C5_5  and  N25_20 
REMARK    2  A    between atoms: C8_7  and  C11_10 
REMARK    3  A    between atoms: N10_9  and  C22_16 
ROOT
ATOM      1  C1  PP2 d         -21.312 -27.319 -17.907  0.00  0.00     0.164 A 
ATOM      2  N2  PP2 d         -21.463 -26.045 -18.303  0.00  0.00    -0.222 NA
ATOM      3  C3  PP2 d         -21.798 -25.775 -19.544  0.00  0.00     0.237 A 
ATOM      4  N4  PP2 d         -21.983 -26.739 -20.428  0.00  0.00    -0.224 NA
ATOM      5  C5  PP2 d         -21.841 -28.029 -20.112  0.00  0.00     0.139 A 
ATOM      6  C6  PP2 d         -21.490 -28.366 -18.803  0.00  0.00     0.088 A 
ATOM      7  C8  PP2 d         -21.248 -29.513 -18.028  0.00  0.00     0.105 A 
ATOM      8  N9  PP2 d         -20.950 -29.103 -16.796  0.00  0.00    -0.168 NA
ATOM      9  N10 PP2 d         -20.990 -27.870 -16.734  0.00  0.00    -0.242 N 
ENDROOT
BRANCH   7  10
ATOM     10  C11 PP2 d         -21.294 -30.856 -18.399  0.00  0.00    -0.004 A 
ATOM     11  C12 PP2 d         -21.608 -31.286 -19.679  0.00  0.00     0.015 A 
ATOM     12  C13 PP2 d         -21.652 -32.631 -20.001  0.00  0.00     0.024 A 
ATOM     13  C14 PP2 d         -21.382 -33.573 -19.021  0.00  0.00     0.034 A 
ATOM     14  C15 PP2 d         -21.071 -33.164 -17.729  0.00  0.00     0.024 A 
ATOM     15 CL   PP2 d         -21.432 -35.252 -19.422  0.00  0.00    -0.084 Cl
ATOM     16  C16 PP2 d         -21.032 -31.809 -17.420  0.00  0.00     0.015 A 
ENDBRANCH   7  10
BRANCH   5  17
ATOM     17  N25 PP2 d         -22.054 -28.911 -21.080  0.00  0.00    -0.383 N 
ATOM     18  H15 PP2 d         -21.958 -29.919 -20.889  0.00  0.00     0.157 HD
ATOM     19  H16 PP2 d         -22.316 -28.588 -22.023  0.00  0.00     0.157 HD
ENDBRANCH   5  17
BRANCH   9  20
ATOM     20  C22 PP2 d         -20.686 -27.114 -15.489  0.00  0.00     0.047 C 
ATOM     21  C23 PP2 d         -21.936 -26.373 -15.033  0.00  0.00     0.040 C 
ATOM     22  C24 PP2 d         -20.234 -28.132 -14.445  0.00  0.00     0.040 C 
ATOM     23  C25 PP2 d         -19.541 -26.124 -15.761  0.00  0.00     0.040 C 
ENDBRANCH   9  20
TORSDOF 3
