REMARK  6 active torsions:
REMARK  status: ('A' for Active; 'I' for Inactive)
REMARK    1  A    between atoms: C14_14  and  C07_7 
REMARK    2  A    between atoms: C16_16  and  C08_8 
REMARK    3  A    between atoms: C23_23  and  C09_9 
REMARK    4  A    between atoms: C11_11  and  N27_27 
REMARK    5  A    between atoms: C12_12  and  O31_31 
REMARK       I    between atoms: N25_25  and  C16_16 
REMARK       I    between atoms: N27_27  and  C17_17 
REMARK       I    between atoms: C18_18  and  N25_25 
REMARK       I    between atoms: C18_18  and  N26_26 
REMARK       I    between atoms: N28_28  and  C18_18 
REMARK    6  A    between atoms: C23_23  and  N28_28 
ROOT
ATOM      1  C16 MOL d          -5.854  16.639  33.410  0.00  0.00     0.207 C 
ATOM      2  C18 MOL d          -5.271  15.317  35.523  0.00  0.00     0.674 C 
ATOM      3  N25 MOL d          -5.364  16.579  34.798  0.00  0.00    -0.167 N 
ATOM      4  N26 MOL d          -4.828  15.134  36.922  0.00  0.00    -0.235 N 
ATOM      5  N28 MOL d          -5.716  14.137  34.763  0.00  0.00    -0.222 N 
ATOM      6  O29 MOL d          -6.225  15.495  32.640  0.00  0.00    -0.171 OA
ATOM      7  H21 MOL d          -5.088  17.425  35.255  0.00  0.00     0.186 HD
ATOM      8  H22 MOL d          -4.801  14.191  37.335  0.00  0.00     0.174 HD
ATOM      9  H23 MOL d          -4.546  15.950  37.484  0.00  0.00     0.174 HD
ATOM     10  H25 MOL d          -6.096  14.340  33.828  0.00  0.00     0.178 HD
ENDROOT
BRANCH   5  11
ATOM     11  C23 MOL d          -5.702  12.719  35.131  0.00  0.00     0.176 C 
BRANCH  11  12
ATOM     12  C09 MOL d          -4.644  11.799  34.593  0.00  0.00    -0.038 A 
ATOM     13  C05 MOL d          -3.226  11.400  34.998  0.00  0.00     0.018 A 
ATOM     14  C10 MOL d          -2.308  10.463  34.220  0.00  0.00    -0.033 A 
ATOM     15  C11 MOL d          -2.788   9.861  32.896  0.00  0.00     0.061 A 
ATOM     16  C19 MOL d          -0.939  10.168  34.827  0.00  0.00     0.050 C 
ATOM     17  C13 MOL d          -4.182  10.303  32.471  0.00  0.00     0.061 A 
ATOM     18  C06 MOL d          -5.091  11.234  33.252  0.00  0.00     0.035 A 
ATOM     19 CL1  MOL d          -5.027   9.794  31.002  0.00  0.00    -0.082 Cl
BRANCH  15  20
ATOM     20  N27 MOL d          -1.910   8.977  32.111  0.00  0.00    -0.337 N 
ATOM     21  C17 MOL d          -0.982   9.477  31.073  0.00  0.00     0.151 C 
ATOM     22  C21 MOL d          -0.005   8.723  30.170  0.00  0.00     0.100 C 
ATOM     23  O30 MOL d          -0.992  10.894  30.866  0.00  0.00    -0.177 OA
ATOM     24  H24 MOL d          -1.943   7.993  32.288  0.00  0.00     0.168 HD
ENDBRANCH  15  20
ENDBRANCH  11  12
ENDBRANCH   5  11
BRANCH   1  25
ATOM     25  C08 MOL d          -5.954  17.905  32.624  0.00  0.00     0.063 A 
ATOM     26  C14 MOL d          -5.335  18.281  31.323  0.00  0.00     0.091 A 
ATOM     27  N24 MOL d          -5.733  19.670  30.971  0.00  0.00    -0.210 NA
ATOM     28  S32 MOL d          -6.714  20.329  32.105  0.00  0.00     0.008 SA
ATOM     29  C15 MOL d          -6.810  18.973  33.251  0.00  0.00     0.014 A 
ATOM     30  C20 MOL d          -7.618  19.002  34.545  0.00  0.00     0.059 C 
BRANCH  26  31
ATOM     31  C07 MOL d          -4.420  17.659  30.292  0.00  0.00    -0.006 A 
ATOM     32  C01 MOL d          -4.772  17.734  28.806  0.00  0.00     0.016 A 
ATOM     33  C03 MOL d          -3.870  17.069  27.753  0.00  0.00     0.037 A 
ATOM     34  C12 MOL d          -2.608  16.283  28.132  0.00  0.00     0.068 A 
ATOM     35  C04 MOL d          -2.258  16.178  29.615  0.00  0.00     0.037 A 
ATOM     36  C02 MOL d          -3.175  16.845  30.626  0.00  0.00     0.016 A 
BRANCH  34  37
ATOM     37  O31 MOL d          -1.683  15.623  27.269  0.00  0.00    -0.356 OA
ATOM     38  C22 MOL d          -0.429  15.002  27.580  0.00  0.00     0.210 C 
ENDBRANCH  34  37
ENDBRANCH  26  31
ENDBRANCH   1  25
TORSDOF 6
