REMARK  6 active torsions:
REMARK  status: ('A' for Active; 'I' for Inactive)
REMARK    1  A    between atoms: C07_7  and  N03_3 
REMARK    2  A    between atoms: N03_3  and  C09_9 
REMARK    3  A    between atoms: C06_6  and  N04_4 
REMARK    4  A    between atoms: N04_4  and  C16_16 
REMARK    5  A    between atoms: C14_14  and  C15_15 
REMARK    6  A    between atoms: C19_19  and  C22_22 
ROOT
ATOM      1  N01 MOL d           3.985  31.804   9.184  0.00  0.00    -0.075 NA
ATOM      2  N02 MOL d           4.706  31.023   7.096  0.00  0.00    -0.045 NA
ATOM      3  C05 MOL d           4.511  30.734   9.824  0.00  0.00     0.140 A 
ATOM      4  C06 MOL d           4.078  31.939   7.848  0.00  0.00     0.728 A 
ATOM      5  C07 MOL d           5.239  29.935   7.690  0.00  0.00     0.148 A 
ATOM      6  C08 MOL d           5.157  29.754   9.068  0.00  0.00     0.071 A 
ENDROOT
BRANCH   5   7
ATOM      7  N03 MOL d           5.902  28.950   6.908  0.00  0.00    -0.340 N 
ATOM      8  H1  MOL d           6.113  28.029   7.318  0.00  0.00     0.167 HD
BRANCH   7   9
ATOM      9  C09 MOL d           6.277  29.226   5.562  0.00  0.00     0.048 A 
ATOM     10  C10 MOL d           5.280  29.212   4.585  0.00  0.00     0.030 A 
ATOM     11  C11 MOL d           5.601  29.461   3.258  0.00  0.00     0.002 A 
ATOM     12  C12 MOL d           6.922  29.726   2.922  0.00  0.00     0.001 A 
ATOM     13  C13 MOL d           7.922  29.739   3.897  0.00  0.00     0.018 A 
ATOM     14  C14 MOL d           7.614  29.487   5.231  0.00  0.00     0.074 A 
BRANCH  14  15
ATOM     15  C15 MOL d           8.730  29.506   6.252  0.00  0.00     0.419 C 
ATOM     16  F25 MOL d           8.280  29.367   7.507  0.00  0.00    -0.166 F 
ATOM     17  F26 MOL d           9.386  30.663   6.162  0.00  0.00    -0.166 F 
ATOM     18  F27 MOL d           9.577  28.496   6.001  0.00  0.00    -0.166 F 
ENDBRANCH  14  15
ENDBRANCH   7   9
ENDBRANCH   5   7
BRANCH   4  19
ATOM     19  N04 MOL d           3.493  33.110   7.258  0.00  0.00    -0.188 N 
ATOM     20  H2  MOL d           3.341  33.915   7.882  0.00  0.00     0.184 HD
BRANCH  19  21
ATOM     21  C16 MOL d           3.097  33.274   5.884  0.00  0.00     0.049 A 
ATOM     22  C17 MOL d           3.762  32.638   4.845  0.00  0.00     0.031 A 
ATOM     23  C18 MOL d           3.372  32.822   3.520  0.00  0.00     0.020 A 
ATOM     24  C19 MOL d           2.317  33.679   3.252  0.00  0.00     0.041 A 
ATOM     25  C20 MOL d           1.650  34.335   4.286  0.00  0.00     0.020 A 
ATOM     26  C21 MOL d           2.045  34.133   5.599  0.00  0.00     0.031 A 
BRANCH  24  27
ATOM     27  C22 MOL d           1.871  33.876   1.845  0.00  0.00     0.209 C 
ATOM     28  O23 MOL d           0.650  34.143   1.615  0.00  0.00    -0.644 OA
ATOM     29  O24 MOL d           2.697  33.749   0.907  0.00  0.00    -0.644 OA
ENDBRANCH  24  27
ENDBRANCH  19  21
ENDBRANCH   4  19
TORSDOF 6
