REMARK  22 active torsions:
REMARK  status: ('A' for Active; 'I' for Inactive)
REMARK    1  A    between atoms: C3'_1  and  C4'_2 
REMARK    2  A    between atoms: C2'_5  and  C3'_1 
REMARK    3  A    between atoms: C1'_4  and  C2'_5 
REMARK    4  A    between atoms: O1_16  and  C1'_4 
REMARK    5  A    between atoms: C2_6  and  O2_7 
REMARK    6  A    between atoms: C3_8  and  O3_9 
REMARK    7  A    between atoms: O3_9  and  C1_18 
REMARK    8  A    between atoms: C4_10  and  O4_11 
REMARK    9  A    between atoms: C5_12  and  C6_14 
REMARK   10  A    between atoms: C6_14  and  O6_15 
REMARK   11  A    between atoms: O1_16  and  C1_17 
REMARK   12  A    between atoms: C2_19  and  O2_24 
REMARK   13  A    between atoms: C3_20  and  O3_25 
REMARK   14  A    between atoms: C4_21  and  O4_26 
REMARK   15  A    between atoms: C5_22  and  C6_23 
REMARK   16  A    between atoms: C6_23  and  O6_28 
REMARK   17  A    between atoms: O2_24  and  C1_29 
REMARK   18  A    between atoms: C2_30  and  O2_35 
REMARK   19  A    between atoms: C3_31  and  O3_36 
REMARK   20  A    between atoms: C4_32  and  O4_37 
REMARK   21  A    between atoms: C5_33  and  C6_34 
REMARK   22  A    between atoms: C6_34  and  O6_39 
ROOT
ATOM      1  C1  OPM d          22.769  55.275 134.206  0.00  0.00     0.292 C 
ATOM      2  C2  OPM d          22.615  53.868 133.660  0.00  0.00     0.211 C 
ATOM      3  C3  OPM d          22.642  52.897 134.832  0.00  0.00     0.183 C 
ATOM      4  C4  OPM d          23.946  53.035 135.600  0.00  0.00     0.180 C 
ATOM      5  C5  OPM d          24.195  54.498 135.922  0.00  0.00     0.179 C 
ATOM      6  O5  OPM d          24.057  55.348 134.786  0.00  0.00    -0.348 OA
ENDROOT
BRANCH   1   7
ATOM      7  O3  OPM d          22.001  56.236 134.710  0.00  0.00    -0.348 OA
BRANCH   7   8
ATOM      8  C3  OPM d          21.881  57.614 135.104  0.00  0.00     0.189 C 
ATOM      9  C2  OPM d          21.764  57.763 136.624  0.00  0.00     0.205 C 
ATOM     10  C1  OPM d          21.465  59.214 137.033  0.00  0.00     0.291 C 
ATOM     11  O5  OPM d          21.307  60.094 135.907  0.00  0.00    -0.348 OA
ATOM     12  C5  OPM d          20.415  59.674 134.858  0.00  0.00     0.179 C 
ATOM     13  C4  OPM d          20.696  58.246 134.380  0.00  0.00     0.181 C 
BRANCH   9  14
ATOM     14  O2  OPM d          20.783  56.857 137.164  0.00  0.00    -0.388 OA
ATOM     15  H13 OPM d          20.732  56.971 138.106  0.00  0.00     0.210 HD
ENDBRANCH   9  14
BRANCH  10  16
ATOM     16  O1  OPM d          20.334  59.303 137.911  0.00  0.00    -0.359 OA
BRANCH  16  17
ATOM     17  C1' OPM d          20.662  58.837 139.238  0.00  0.00     0.171 C 
BRANCH  17  18
ATOM     18  C2' OPM d          20.863  60.013 140.200  0.00  0.00     0.026 C 
BRANCH  18  19
ATOM     19  C3' OPM d          22.295  60.566 140.200  0.00  0.00     0.002 C 
BRANCH  19  20
ATOM     20  C4' OPM d          22.372  61.947 140.872  0.00  0.00    -0.004 C 
ATOM     21  C5' OPM d          23.323  62.011 142.062  0.00  0.00     0.005 C 
ENDBRANCH  19  20
ENDBRANCH  18  19
ENDBRANCH  17  18
ENDBRANCH  16  17
ENDBRANCH  10  16
BRANCH  12  22
ATOM     22  C6  OPM d          18.955  59.841 135.273  0.00  0.00     0.198 C 
BRANCH  22  23
ATOM     23  O6  OPM d          18.221  60.359 134.152  0.00  0.00    -0.398 OA
ATOM     24  H20 OPM d          17.309  60.468 134.395  0.00  0.00     0.209 HD
ENDBRANCH  22  23
ENDBRANCH  12  22
BRANCH  13  25
ATOM     25  O4  OPM d          21.013  58.270 132.990  0.00  0.00    -0.390 OA
ATOM     26  H16 OPM d          21.157  57.382 132.684  0.00  0.00     0.210 HD
ENDBRANCH  13  25
ENDBRANCH   7   8
ENDBRANCH   1   7
BRANCH   2  27
ATOM     27  O2  OPM d          23.750  53.643 132.856  0.00  0.00    -0.346 OA
BRANCH  27  28
ATOM     28  C1  OPM d          23.622  54.214 131.537  0.00  0.00     0.292 C 
ATOM     29  C2  OPM d          24.283  53.308 130.511  0.00  0.00     0.204 C 
ATOM     30  C3  OPM d          25.800  53.336 130.613  0.00  0.00     0.183 C 
ATOM     31  C4  OPM d          26.313  54.740 130.323  0.00  0.00     0.180 C 
ATOM     32  C5  OPM d          25.495  55.774 131.100  0.00  0.00     0.179 C 
ATOM     33  O5  OPM d          24.112  55.539 131.367  0.00  0.00    -0.348 OA
BRANCH  29  34
ATOM     34  O2  OPM d          23.996  53.869 129.260  0.00  0.00    -0.388 OA
ATOM     35  H39 OPM d          24.335  54.756 129.227  0.00  0.00     0.210 HD
ENDBRANCH  29  34
BRANCH  30  36
ATOM     36  O3  OPM d          26.328  52.465 129.660  0.00  0.00    -0.390 OA
ATOM     37  H40 OPM d          26.051  52.739 128.794  0.00  0.00     0.210 HD
ENDBRANCH  30  36
BRANCH  31  38
ATOM     38  O4  OPM d          27.654  54.886 130.748  0.00  0.00    -0.390 OA
ATOM     39  H41 OPM d          28.201  54.260 130.288  0.00  0.00     0.210 HD
ENDBRANCH  31  38
BRANCH  32  40
ATOM     40  C6  OPM d          25.579  57.100 130.407  0.00  0.00     0.198 C 
BRANCH  40  41
ATOM     41  O6  OPM d          25.532  57.917 131.537  0.00  0.00    -0.398 OA
ATOM     42  H42 OPM d          24.720  57.762 132.005  0.00  0.00     0.209 HD
ENDBRANCH  40  41
ENDBRANCH  32  40
ENDBRANCH  27  28
ENDBRANCH   2  27
BRANCH   3  43
ATOM     43  O3  OPM d          22.552  51.561 134.432  0.00  0.00    -0.390 OA
ATOM     44  H29 OPM d          22.554  51.001 135.199  0.00  0.00     0.210 HD
ENDBRANCH   3  43
BRANCH   5  45
ATOM     45  C6  OPM d          25.590  54.650 136.503  0.00  0.00     0.198 C 
BRANCH  45  46
ATOM     46  O6  OPM d          25.849  56.038 136.549  0.00  0.00    -0.398 OA
ATOM     47  H31 OPM d          25.803  56.397 135.671  0.00  0.00     0.209 HD
ENDBRANCH  45  46
ENDBRANCH   5  45
BRANCH   4  48
ATOM     48  O4  OPM d          23.858  52.311 136.811  0.00  0.00    -0.390 OA
ATOM     49  H30 OPM d          23.702  51.394 136.620  0.00  0.00     0.210 HD
ENDBRANCH   4  48
TORSDOF 22
