3gxy_ligand

Created by X-TOOL on Fri Sep 26 17:34:45 2014
 81 83  0  0  0  0  0  0  0  0999 V2000
   22.2950   60.5660  140.2000  C 0  0  0  3  0  4
   22.3720   61.9470  140.8720  C 0  0  0  3  0  4
   23.3230   62.0110  142.0620  C 0  0  0  4  0  4
   20.6620   58.8370  139.2380  C 0  0  0  3  0  4
   20.8630   60.0130  140.2000  C 0  0  0  3  0  4
   21.7640   57.7630  136.6240  C 0  0  0  2  0  4
   20.7830   56.8570  137.1640  O 0  0  0  2  0  2
   21.8810   57.6140  135.1040  C 0  0  0  2  0  4
   22.0010   56.2360  134.7100  O 0  0  0  1  0  2
   20.6960   58.2460  134.3800  C 0  0  0  2  0  4
   21.0130   58.2700  132.9900  O 0  0  0  2  0  2
   20.4150   59.6740  134.8580  C 0  0  0  2  0  4
   21.3070   60.0940  135.9070  O 0  0  0  1  0  2
   18.9550   59.8410  135.2730  C 0  0  0  3  0  4
   18.2210   60.3590  134.1520  O 0  0  0  2  0  2
   20.3340   59.3030  137.9110  O 0  0  0  1  0  2
   21.4650   59.2140  137.0330  C 0  0  0  2  0  4
   22.7690   55.2750  134.2060  C 0  0  0  2  0  4
   22.6150   53.8680  133.6600  C 0  0  0  2  0  4
   22.6420   52.8970  134.8320  C 0  0  0  2  0  4
   23.9460   53.0350  135.6000  C 0  0  0  2  0  4
   24.1950   54.4980  135.9220  C 0  0  0  2  0  4
   25.5900   54.6500  136.5030  C 0  0  0  3  0  4
   23.7500   53.6430  132.8560  O 0  0  0  1  0  2
   22.5520   51.5610  134.4320  O 0  0  0  2  0  2
   23.8580   52.3110  136.8110  O 0  0  0  2  0  2
   24.0570   55.3480  134.7860  O 0  0  0  1  0  2
   25.8490   56.0380  136.5490  O 0  0  0  2  0  2
   23.6220   54.2140  131.5370  C 0  0  0  2  0  4
   24.2830   53.3080  130.5110  C 0  0  0  2  0  4
   25.8000   53.3360  130.6130  C 0  0  0  2  0  4
   26.3130   54.7400  130.3230  C 0  0  0  2  0  4
   25.4950   55.7740  131.1000  C 0  0  0  2  0  4
   25.5790   57.1000  130.4070  C 0  0  0  3  0  4
   23.9960   53.8690  129.2600  O 0  0  0  2  0  2
   26.3280   52.4650  129.6600  O 0  0  0  2  0  2
   27.6540   54.8860  130.7480  O 0  0  0  2  0  2
   24.1120   55.5390  131.3670  O 0  0  0  1  0  2
   25.5320   57.9170  131.5370  O 0  0  0  2  0  2
   22.9467   59.8675  140.7453  H 0  0  0  1  0  1
   22.6423   60.6558  139.1601  H 0  0  0  1  0  1
   21.3645   62.2176  141.2208  H 0  0  0  1  0  1
   22.7088   62.6774  140.1217  H 0  0  0  1  0  1
   23.3178   63.0280  142.4812  H 0  0  0  1  0  1
   24.3408   61.7556  141.7322  H 0  0  0  1  0  1
   22.9965   61.2957  142.8312  H 0  0  0  1  0  1
   19.8424   58.2044  139.6097  H 0  0  0  1  0  1
   21.5892   58.2469  139.1928  H 0  0  0  1  0  1
   20.1772   60.8222  139.9087  H 0  0  0  1  0  1
   20.6201   59.6752  141.2183  H 0  0  0  1  0  1
   22.7383   57.4928  137.0572  H 0  0  0  1  0  1
   20.7323   56.9715  138.1058  H 0  0  0  1  0  1
   22.7939   58.1399  134.7877  H 0  0  0  1  0  1
   19.7990   57.6319  134.5484  H 0  0  0  1  0  1
   21.1569   57.3823  132.6838  H 0  0  0  1  0  1
   20.5897   60.3407  134.0007  H 0  0  0  1  0  1
   18.8868   60.5423  136.1177  H 0  0  0  1  0  1
   18.5397   58.8669  135.5707  H 0  0  0  1  0  1
   17.3092   60.4685  134.3952  H 0  0  0  1  0  1
   22.3403   59.5696  137.5963  H 0  0  0  1  0  1
   22.9279   55.7622  133.2327  H 0  0  0  1  0  1
   21.6857   53.7591  133.0816  H 0  0  0  1  0  1
   21.7965   53.1311  135.4956  H 0  0  0  1  0  1
   24.7748   52.6428  134.9923  H 0  0  0  1  0  1
   23.4592   54.8135  136.6764  H 0  0  0  1  0  1
   26.3274   54.1457  135.8612  H 0  0  0  1  0  1
   25.6304   54.2209  137.5150  H 0  0  0  1  0  1
   22.5540   51.0010  135.1994  H 0  0  0  1  0  1
   23.7021   51.3936  136.6196  H 0  0  0  1  0  1
   25.8033   56.3968  135.6705  H 0  0  0  1  0  1
   22.5450   54.2464  131.3158  H 0  0  0  1  0  1
   23.9036   52.2794  130.6007  H 0  0  0  1  0  1
   26.1114   53.0259  131.6214  H 0  0  0  1  0  1
   26.2393   54.9354  129.2430  H 0  0  0  1  0  1
   25.9853   55.8643  132.0805  H 0  0  0  1  0  1
   24.7266   57.2722  129.7334  H 0  0  0  1  0  1
   26.5184   57.2181  129.8471  H 0  0  0  1  0  1
   24.3346   54.7559  129.2267  H 0  0  0  1  0  1
   26.0506   52.7392  128.7938  H 0  0  0  1  0  1
   28.2007   54.2596  130.2883  H 0  0  0  1  0  1
   24.7197   57.7622  132.0047  H 0  0  0  1  0  1
  1  2  1  0  0  2
  5  1  1  0  0  2
  2  3  1  0  0  2
  4  5  1  0  0  2
 16  4  1  0  0  2
  6  7  1  0  0  2
  6  8  1  0  0  1
 17  6  1  0  0  1
  8  9  1  0  0  2
  8 10  1  0  0  1
  9 18  1  0  0  2
 10 11  1  0  0  2
 12 10  1  0  0  1
 13 12  1  0  0  1
 12 14  1  0  0  2
 17 13  1  0  0  1
 14 15  1  0  0  2
 16 17  1  0  0  2
 18 19  1  0  0  1
 18 27  1  0  0  1
 19 20  1  0  0  1
 19 24  1  0  0  2
 20 21  1  0  0  1
 20 25  1  0  0  2
 21 22  1  0  0  1
 21 26  1  0  0  2
 22 23  1  0  0  2
 22 27  1  0  0  1
 23 28  1  0  0  2
 24 29  1  0  0  2
 29 30  1  0  0  1
 29 38  1  0  0  1
 30 31  1  0  0  1
 30 35  1  0  0  2
 31 32  1  0  0  1
 31 36  1  0  0  2
 32 33  1  0  0  1
 32 37  1  0  0  2
 33 34  1  0  0  2
 33 38  1  0  0  1
 34 39  1  0  0  2
  1 40  1  0  0  2
  1 41  1  0  0  2
  2 42  1  0  0  2
  2 43  1  0  0  2
  3 44  1  0  0  2
  3 45  1  0  0  2
  3 46  1  0  0  2
  4 47  1  0  0  2
  4 48  1  0  0  2
  5 49  1  0  0  2
  5 50  1  0  0  2
  6 51  1  0  0  2
  7 52  1  0  0  2
  8 53  1  0  0  2
 10 54  1  0  0  2
 11 55  1  0  0  2
 12 56  1  0  0  2
 14 57  1  0  0  2
 14 58  1  0  0  2
 15 59  1  0  0  2
 17 60  1  0  0  2
 18 61  1  0  0  2
 19 62  1  0  0  2
 20 63  1  0  0  2
 21 64  1  0  0  2
 22 65  1  0  0  2
 23 66  1  0  0  2
 23 67  1  0  0  2
 25 68  1  0  0  2
 26 69  1  0  0  2
 28 70  1  0  0  2
 29 71  1  0  0  2
 30 72  1  0  0  2
 31 73  1  0  0  2
 32 74  1  0  0  2
 33 75  1  0  0  2
 34 76  1  0  0  2
 34 77  1  0  0  2
 35 78  1  0  0  2
 36 79  1  0  0  2
 37 80  1  0  0  2
 39 81  1  0  0  2
M  END
> <MOLECULAR_FORMULA>
C23H42O16

> <MOLECULAR_WEIGHT>
574.2

> <NUM_HB_ATOMS>
16 

> <NUM_ROTOR>
12 

> <XLOGP2>
-3.94

$$$$
