REMARK  9 active torsions:
REMARK  status: ('A' for Active; 'I' for Inactive)
REMARK    1  A    between atoms: C12_20  and  C13_2 
REMARK    2  A    between atoms: C14_21  and  C15_3 
REMARK    3  A    between atoms: C16_22  and  C17_4 
REMARK    4  A    between atoms: C20_5  and  N21_25 
REMARK    5  A    between atoms: C05_14  and  C26_8 
REMARK    6  A    between atoms: C26_8  and  O27_28 
REMARK       I    between atoms: C02_11  and  N03_12 
REMARK    7  A    between atoms: C05_14  and  C02_11 
REMARK    8  A    between atoms: N06_15  and  C05_14 
REMARK       I    between atoms: C07_16  and  N06_15 
REMARK    9  A    between atoms: C09_18  and  C07_16 
ROOT
ATOM      1  C10 ZH2 d          31.180  -9.567 -10.737  0.00  0.00     0.018 A 
ATOM      2  C24 ZH2 d          32.625  -7.385 -11.738  0.00  0.00     0.022 A 
ATOM      3  C09 ZH2 d          32.234  -9.024 -10.001  0.00  0.00     0.032 A 
ATOM      4  C11 ZH2 d          30.845  -9.029 -11.984  0.00  0.00     0.022 A 
ATOM      5  C12 ZH2 d          31.588  -7.946 -12.485  0.00  0.00     0.018 A 
ATOM      6  C25 ZH2 d          32.965  -7.929 -10.491  0.00  0.00     0.018 A 
ENDROOT
BRANCH   3   7
ATOM      7  C07 ZH2 d          32.516  -9.575  -8.647  0.00  0.00     0.252 C 
ATOM      8  N06 ZH2 d          31.473 -10.324  -8.022  0.00  0.00    -0.341 N 
ATOM      9  H9  ZH2 d          30.620 -10.500  -8.513  0.00  0.00     0.163 HD
ATOM     10  O08 ZH2 d          33.456  -9.164  -7.995  0.00  0.00    -0.268 OA
BRANCH   8  11
ATOM     11  C05 ZH2 d          31.651 -10.828  -6.677  0.00  0.00     0.209 C 
BRANCH  11  12
ATOM     12  C26 ZH2 d          30.758 -10.102  -5.709  0.00  0.00     0.146 C 
ATOM     13  C28 ZH2 d          29.358 -10.074  -6.225  0.00  0.00     0.042 C 
BRANCH  12  14
ATOM     14  O27 ZH2 d          30.762 -10.731  -4.492  0.00  0.00    -0.393 OA
ATOM     15  H17 ZH2 d          30.194 -10.261  -3.892  0.00  0.00     0.210 HD
ENDBRANCH  12  14
ENDBRANCH  11  12
BRANCH  11  16
ATOM     16  C02 ZH2 d          31.369 -12.301  -6.713  0.00  0.00     0.294 C 
ATOM     17  O01 ZH2 d          30.371 -12.736  -7.258  0.00  0.00    -0.267 OA
ATOM     18  N03 ZH2 d          32.298 -13.228  -6.167  0.00  0.00    -0.057 NA
ATOM     19  O04 ZH2 d          31.998 -14.492  -6.237  0.00  0.00    -0.058 OA
ENDBRANCH  11  16
ENDBRANCH   8  11
ENDBRANCH   3   7
BRANCH   5  20
ATOM     20  C13 ZH2 d          31.229  -7.322 -13.803  0.00  0.00    -0.053 C 
ATOM     21  C14 ZH2 d          30.941  -6.791 -14.869  0.00  0.00    -0.009 C 
BRANCH  21  22
ATOM     22  C15 ZH2 d          30.571  -6.101 -16.155  0.00  0.00    -0.009 C 
ATOM     23  C16 ZH2 d          30.250  -5.524 -17.186  0.00  0.00    -0.053 C 
BRANCH  23  24
ATOM     24  C17 ZH2 d          29.866  -4.816 -18.450  0.00  0.00     0.018 A 
ATOM     25  C18 ZH2 d          28.519  -4.791 -18.836  0.00  0.00     0.023 A 
ATOM     26  C19 ZH2 d          28.151  -4.114 -19.999  0.00  0.00     0.030 A 
ATOM     27  C20 ZH2 d          29.124  -3.455 -20.763  0.00  0.00     0.025 A 
ATOM     28  C22 ZH2 d          30.469  -3.472 -20.365  0.00  0.00     0.030 A 
ATOM     29  C23 ZH2 d          30.840  -4.148 -19.203  0.00  0.00     0.023 A 
BRANCH  27  30
ATOM     30  N21 ZH2 d          28.743  -2.754 -21.946  0.00  0.00    -0.399 N 
ATOM     31  H13 ZH2 d          29.456  -2.269 -22.509  0.00  0.00     0.156 HD
ATOM     32  H14 ZH2 d          27.755  -2.733 -22.237  0.00  0.00     0.156 HD
ENDBRANCH  27  30
ENDBRANCH  23  24
ENDBRANCH  21  22
ENDBRANCH   5  20
TORSDOF 9
