REMARK  3 active torsions:
REMARK  status: ('A' for Active; 'I' for Inactive)
REMARK    1  A    between atoms: CAN_2  and  NAA_3 
REMARK    2  A    between atoms: CAP_7  and  CAQ_8 
REMARK    3  A    between atoms: CAR_12  and  CAO_13 
ROOT
ATOM      1  CAQ MOL d          24.271 -44.167  10.392  0.00  0.00     0.156 A 
ATOM      2  NAL MOL d          25.405 -44.835  10.125  0.00  0.00    -0.207 NA
ATOM      3  NAK MOL d          24.513 -43.208  11.373  0.00  0.00    -0.258 N 
ATOM      4  NAM MOL d          25.810 -43.319  11.675  0.00  0.00    -0.152 NA
ATOM      5  CAR MOL d          26.377 -44.317  10.945  0.00  0.00     0.181 A 
ATOM      6  H   MOL d          23.834 -42.550  11.781  0.00  0.00     0.191 HD
ENDROOT
BRANCH   1   7
ATOM      7  CAP MOL d          22.915 -44.389   9.760  0.00  0.00     0.013 A 
ATOM      8  CAJ MOL d          21.896 -43.525  10.135  0.00  0.00     0.044 A 
ATOM      9  CAN MOL d          20.630 -43.701   9.591  0.00  0.00     0.026 A 
ATOM     10  CAF MOL d          20.309 -44.714   8.630  0.00  0.00     0.029 A 
ATOM     11  CAE MOL d          21.327 -45.578   8.264  0.00  0.00     0.003 A 
ATOM     12  CAI MOL d          22.605 -45.397   8.820  0.00  0.00     0.015 A 
BRANCH   9  13
ATOM     13  NAA MOL d          19.711 -42.771  10.058  0.00  0.00    -0.399 N 
ATOM     14  H   MOL d          18.736 -42.799   9.727  0.00  0.00     0.156 HD
ATOM     15  H   MOL d          20.004 -42.053  10.736  0.00  0.00     0.156 HD
ENDBRANCH   9  13
ENDBRANCH   1   7
BRANCH   5  16
ATOM     16  CAO MOL d          27.852 -44.681  11.001  0.00  0.00     0.013 A 
ATOM     17  CAG MOL d          28.592 -44.411  12.148  0.00  0.00     0.015 A 
ATOM     18  CAC MOL d          29.949 -44.718  12.168  0.00  0.00     0.001 A 
ATOM     19  CAB MOL d          30.566 -45.270  11.052  0.00  0.00     0.000 A 
ATOM     20  CAD MOL d          29.826 -45.520   9.902  0.00  0.00     0.001 A 
ATOM     21  CAH MOL d          28.470 -45.215   9.871  0.00  0.00     0.015 A 
ENDBRANCH   5  16
TORSDOF 3
