REMARK  14 active torsions:
REMARK  status: ('A' for Active; 'I' for Inactive)
REMARK    1  A    between atoms: N6_6  and  C7_7 
REMARK    2  A    between atoms: C7_7  and  C11_11 
REMARK    3  A    between atoms: C7_7  and  C8_8 
REMARK       I    between atoms: C11_11  and  N13_13 
REMARK    4  A    between atoms: N13_13  and  C14_14 
REMARK    5  A    between atoms: C14_14  and  C22_22 
REMARK    6  A    between atoms: C14_14  and  C15_15 
REMARK    7  A    between atoms: C15_15  and  C16_16 
REMARK    8  A    between atoms: C21_21  and  O25_25 
REMARK    9  A    between atoms: C22_22  and  O24_24 
REMARK   10  A    between atoms: C22_22  and  C23_23 
REMARK   11  A    between atoms: C23_23  and  N26_26 
REMARK   12  A    between atoms: N26_26  and  C27_27 
REMARK   13  A    between atoms: C40_40  and  C43_43 
REMARK   14  A    between atoms: C43_43  and  C44_44 
ROOT
ATOM      1  C23 PI5 d           4.985  -0.289  15.106  0.00  0.00     0.266 C 
ENDROOT
BRANCH   1   2
ATOM      2  C22 PI5 d           6.173   0.620  14.824  0.00  0.00     0.166 C 
BRANCH   2   3
ATOM      3  C14 PI5 d           6.209   1.025  13.362  0.00  0.00     0.119 C 
BRANCH   3   4
ATOM      4  N13 PI5 d           4.993   1.739  12.965  0.00  0.00    -0.352 N 
ATOM      5  C11 PI5 d           4.108   1.214  12.123  0.00  0.00     0.241 C 
ATOM      6  O12 PI5 d           4.251   0.103  11.590  0.00  0.00    -0.271 OA
ATOM      7  H15 PI5 d           4.823   2.651  13.339  0.00  0.00     0.163 HD
BRANCH   5   8
ATOM      8  C7  PI5 d           2.904   2.093  11.806  0.00  0.00     0.182 C 
BRANCH   8   9
ATOM      9  N6  PI5 d           3.229   2.845  10.595  0.00  0.00    -0.338 N 
ATOM     10  C2  PI5 d           3.359   2.366   9.193  0.00  0.00     0.127 C 
ATOM     11  C1  PI5 d           3.951   3.591   8.449  0.00  0.00     0.029 C 
ATOM     12  C5  PI5 d           3.850   4.804   9.347  0.00  0.00     0.104 C 
ATOM     13  C3  PI5 d           3.531   4.151  10.659  0.00  0.00     0.220 C 
ATOM     14  O4  PI5 d           3.545   4.772  11.727  0.00  0.00    -0.273 OA
ENDBRANCH   8   9
BRANCH   8  15
ATOM     15  C8  PI5 d           1.614   1.264  11.573  0.00  0.00     0.009 C 
ATOM     16  C10 PI5 d           0.456   2.186  11.248  0.00  0.00     0.012 C 
ATOM     17  C9  PI5 d           1.272   0.458  12.812  0.00  0.00     0.012 C 
ENDBRANCH   8  15
ENDBRANCH   5   8
ENDBRANCH   3   4
BRANCH   3  18
ATOM     18  C15 PI5 d           7.437   1.897  13.106  0.00  0.00     0.066 C 
BRANCH  18  19
ATOM     19  C16 PI5 d           7.597   2.299  11.670  0.00  0.00    -0.056 A 
ATOM     20  C18 PI5 d           7.514   3.636  11.290  0.00  0.00     0.010 A 
ATOM     21  C20 PI5 d           7.633   4.009   9.964  0.00  0.00     0.037 A 
ATOM     22  C21 PI5 d           7.838   3.036   9.001  0.00  0.00     0.065 A 
ATOM     23  C19 PI5 d           7.927   1.703   9.354  0.00  0.00     0.037 A 
ATOM     24  C17 PI5 d           7.807   1.343  10.684  0.00  0.00     0.010 A 
BRANCH  22  25
ATOM     25  O25 PI5 d           7.946   3.390   7.675  0.00  0.00    -0.361 OA
ATOM     26  H27 PI5 d           7.865   4.333   7.593  0.00  0.00     0.217 HD
ENDBRANCH  22  25
ENDBRANCH  18  19
ENDBRANCH   3  18
ENDBRANCH   2   3
BRANCH   2  27
ATOM     27  O24 PI5 d           7.384  -0.073  15.137  0.00  0.00    -0.392 OA
ATOM     28  H26 PI5 d           7.372  -0.332  16.051  0.00  0.00     0.210 HD
ENDBRANCH   2  27
ENDBRANCH   1   2
BRANCH   1  29
ATOM     29  N26 PI5 d           5.022  -0.658  16.524  0.00  0.00    -0.060 N 
ATOM     30  H28 PI5 d           4.302  -0.138  17.001  0.00  0.00     0.278 HD
ATOM     31  H29 PI5 d           5.924  -0.397  16.891  0.00  0.00     0.278 HD
BRANCH  29  32
ATOM     32  C27 PI5 d           4.809  -2.109  16.808  0.00  0.00     0.281 C 
ATOM     33  C37 PI5 d           5.834  -3.104  16.261  0.00  0.00     0.249 C 
ATOM     34  N39 PI5 d           6.399  -3.897  17.167  0.00  0.00    -0.346 N 
ATOM     35  O38 PI5 d           6.091  -3.164  15.056  0.00  0.00    -0.271 OA
ATOM     36  C40 PI5 d           7.389  -4.931  16.830  0.00  0.00     0.180 C 
ATOM     37  H39 PI5 d           6.138  -3.784  18.126  0.00  0.00     0.163 HD
ATOM     38  C41 PI5 d           7.069  -6.010  17.867  0.00  0.00     0.240 C 
ATOM     39  N47 PI5 d           6.590  -7.161  17.402  0.00  0.00    -0.359 N 
ATOM     40  O42 PI5 d           7.213  -5.779  19.076  0.00  0.00    -0.271 OA
ATOM     41  C48 PI5 d           6.267  -8.247  18.315  0.00  0.00     0.125 C 
ATOM     42  H50 PI5 d           6.451  -7.280  16.419  0.00  0.00     0.162 HD
ATOM     43  C49 PI5 d           5.268  -9.271  17.781  0.00  0.00     0.046 C 
ATOM     44  C36 PI5 d           3.818  -8.846  17.992  0.00  0.00     0.177 C 
ATOM     45  O35 PI5 d           3.299  -8.190  16.851  0.00  0.00    -0.351 OA
ATOM     46  C34 PI5 d           3.255  -6.820  16.762  0.00  0.00     0.068 A 
ATOM     47  C31 PI5 d           3.209  -6.039  17.903  0.00  0.00     0.037 A 
ATOM     48  C33 PI5 d           3.287  -6.238  15.509  0.00  0.00     0.037 A 
ATOM     49  C30 PI5 d           3.209  -4.663  17.779  0.00  0.00     0.010 A 
ATOM     50  C29 PI5 d           3.256  -4.052  16.524  0.00  0.00    -0.056 A 
ATOM     51  C28 PI5 d           3.407  -2.561  16.399  0.00  0.00     0.081 C 
ATOM     52  C32 PI5 d           3.285  -4.864  15.395  0.00  0.00     0.010 A 
BRANCH  36  53
ATOM     53  C43 PI5 d           8.856  -4.457  17.051  0.00  0.00     0.013 C 
ATOM     54  C45 PI5 d           9.825  -5.617  16.852  0.00  0.00     0.012 C 
BRANCH  53  55
ATOM     55  C44 PI5 d           9.216  -3.331  16.084  0.00  0.00     0.002 C 
ATOM     56  C46 PI5 d           9.552  -3.793  14.695  0.00  0.00     0.005 C 
ENDBRANCH  53  55
ENDBRANCH  36  53
ENDBRANCH  29  32
ENDBRANCH   1  29
TORSDOF 14
