REMARK  8 active torsions:
REMARK  status: ('A' for Active; 'I' for Inactive)
REMARK    1  A    between atoms: C4_3  and  S7_4 
REMARK    2  A    between atoms: S7_4  and  N10_6 
REMARK    3  A    between atoms: C6_12  and  N19_20 
REMARK    4  A    between atoms: C1_13  and  S11_14 
REMARK    5  A    between atoms: S11_14  and  C15_17 
REMARK    6  A    between atoms: C15_17  and  C18_18 
REMARK    7  A    between atoms: C18_18  and  O21_19 
REMARK    8  A    between atoms: N19_20  and  C14_21 
ROOT
ATOM      1  F20 V14 d          -5.595   3.661  15.608  0.00  0.00    -0.202 F 
ATOM      2  C5  V14 d          -4.878   2.942  14.697  0.00  0.00     0.170 A 
ATOM      3  C4  V14 d          -4.605   1.595  14.936  0.00  0.00     0.161 A 
ATOM      4  C3  V14 d          -3.938   0.923  13.982  0.00  0.00     0.182 A 
ATOM      5  F12 V14 d          -3.644  -0.412  14.056  0.00  0.00    -0.201 F 
ATOM      6  C2  V14 d          -3.547   1.457  12.799  0.00  0.00     0.180 A 
ATOM      7  F13 V14 d          -2.864   0.759  11.899  0.00  0.00    -0.201 F 
ATOM      8  C6  V14 d          -4.483   3.593  13.508  0.00  0.00     0.094 A 
ATOM      9  C1  V14 d          -3.777   2.825  12.584  0.00  0.00     0.130 A 
ENDROOT
BRANCH   8  10
ATOM     10  N19 V14 d          -4.826   4.944  13.274  0.00  0.00    -0.382 N 
ATOM     11  H8  V14 d          -5.017   5.181  12.290  0.00  0.00     0.160 HD
BRANCH  10  12
ATOM     12  C14 V14 d          -4.952   6.064  14.222  0.00  0.00     0.082 C 
ATOM     13  C28 V14 d          -3.567   6.271  14.751  0.00  0.00     0.025 C 
ATOM     14  C27 V14 d          -2.629   7.058  13.873  0.00  0.00     0.002 C 
ATOM     15  C26 V14 d          -2.559   8.562  14.374  0.00  0.00     0.000 C 
ATOM     16  C25 V14 d          -3.784   9.541  14.120  0.00  0.00     0.000 C 
ATOM     17  C24 V14 d          -5.026   9.248  14.997  0.00  0.00     0.000 C 
ATOM     18  C23 V14 d          -6.161   8.368  14.384  0.00  0.00     0.002 C 
ATOM     19  C22 V14 d          -5.678   7.230  13.547  0.00  0.00     0.025 C 
ENDBRANCH  10  12
ENDBRANCH   8  10
BRANCH   9  20
ATOM     20  S11 V14 d          -3.016   3.489  11.086  0.00  0.00     0.182 S 
ATOM     21  O16 V14 d          -3.565   4.810  10.868  0.00  0.00    -0.222 OA
ATOM     22  O17 V14 d          -3.212   2.582   9.971  0.00  0.00    -0.222 OA
BRANCH  20  23
ATOM     23  C15 V14 d          -1.200   3.464  11.098  0.00  0.00     0.172 C 
BRANCH  23  24
ATOM     24  C18 V14 d          -0.532   4.314  12.159  0.00  0.00     0.179 C 
BRANCH  24  25
ATOM     25  O21 V14 d          -0.571   3.817  13.494  0.00  0.00    -0.400 OA
ATOM     26  H7  V14 d          -0.138   2.972  13.529  0.00  0.00     0.209 HD
ENDBRANCH  24  25
ENDBRANCH  23  24
ENDBRANCH  20  23
ENDBRANCH   9  20
BRANCH   3  27
ATOM     27  S7  V14 d          -5.261   0.887  16.470  0.00  0.00     0.263 S 
ATOM     28  O9  V14 d          -6.654   1.251  16.452  0.00  0.00    -0.201 OA
ATOM     29  O8  V14 d          -4.435   1.391  17.512  0.00  0.00    -0.201 OA
BRANCH  27  30
ATOM     30  N10 V14 d          -5.088  -0.599  16.324  0.00  0.00    -0.324 N 
ATOM     31  H1  V14 d          -5.382  -1.211  17.058  0.00  0.00     0.169 HD
ATOM     32  H2  V14 d          -4.678  -0.976  15.493  0.00  0.00     0.169 HD
ENDBRANCH  27  30
ENDBRANCH   3  27
TORSDOF 8
