REMARK  10 active torsions:
REMARK  status: ('A' for Active; 'I' for Inactive)
REMARK       I    between atoms: CAP_2  and  NAO_3 
REMARK    1  A    between atoms: CAP_2  and  OAQ_10 
REMARK    2  A    between atoms: NAO_3  and  CAS_4 
REMARK    3  A    between atoms: OAQ_10  and  NAY_11 
REMARK    4  A    between atoms: CAE_14  and  CAF_15 
REMARK    5  A    between atoms: CAF_15  and  OAM_16 
REMARK    6  A    between atoms: CAD_17  and  OAK_18 
REMARK    7  A    between atoms: CAC_19  and  OAJ_20 
REMARK    8  A    between atoms: CAB_21  and  NAI_22 
REMARK       I    between atoms: NAI_22  and  CAG_23 
REMARK    9  A    between atoms: CAG_23  and  CAH_25 
REMARK   10  A    between atoms: CAH_25  and  C1_26 
ROOT
ATOM      1  NAY BA4 d         -16.006 -10.610   3.651  0.00  0.00    -0.100 NA
ATOM      2  CAA BA4 d         -15.255 -10.488   4.672  0.00  0.00     0.194 C 
ATOM      3  OAL BA4 d         -14.055 -11.311   4.774  0.00  0.00    -0.324 OA
ATOM      4  CAE BA4 d         -13.164 -11.153   5.883  0.00  0.00     0.185 C 
ATOM      5  CAD BA4 d         -13.867 -10.579   7.120  0.00  0.00     0.180 C 
ATOM      6  CAC BA4 d         -14.587  -9.267   6.761  0.00  0.00     0.180 C 
ATOM      7  CAB BA4 d         -15.734  -9.590   5.787  0.00  0.00     0.195 C 
ENDROOT
BRANCH   1   8
ATOM      8  OAQ BA4 d         -15.688 -11.395   2.711  0.00  0.00    -0.153 OA
BRANCH   8   9
ATOM      9  CAP BA4 d         -16.437 -11.502   1.451  0.00  0.00     0.389 C 
ATOM     10  OAR BA4 d         -17.493 -10.888   1.323  0.00  0.00    -0.236 OA
ATOM     11  NAO BA4 d         -15.913 -12.291   0.499  0.00  0.00    -0.301 N 
ATOM     12  H1  BA4 d         -15.061 -12.765   0.719  0.00  0.00     0.171 HD
BRANCH  11  13
ATOM     13  CAS BA4 d         -16.457 -12.511  -0.784  0.00  0.00     0.036 A 
ATOM     14  CAT BA4 d         -15.877 -13.488  -1.608  0.00  0.00     0.029 A 
ATOM     15  CAU BA4 d         -16.376 -13.728  -2.890  0.00  0.00     0.002 A 
ATOM     16  CAV BA4 d         -17.454 -12.978  -3.361  0.00  0.00     0.000 A 
ATOM     17  CAW BA4 d         -18.028 -11.994  -2.544  0.00  0.00     0.002 A 
ATOM     18  CAX BA4 d         -17.533 -11.754  -1.260  0.00  0.00     0.029 A 
ENDBRANCH  11  13
ENDBRANCH   8   9
ENDBRANCH   1   8
BRANCH   7  19
ATOM     19  NAI BA4 d         -16.277  -8.327   5.310  0.00  0.00    -0.346 N 
ATOM     20  CAG BA4 d         -17.506  -7.937   5.647  0.00  0.00     0.218 C 
ATOM     21  OAN BA4 d         -18.241  -8.612   6.350  0.00  0.00    -0.274 OA
ATOM     22  H16 BA4 d         -15.719  -7.743   4.720  0.00  0.00     0.163 HD
BRANCH  20  23
ATOM     23  CAH BA4 d         -17.979  -6.600   5.110  0.00  0.00     0.102 C 
BRANCH  23  24
ATOM     24  C1  BA4 d         -19.426  -6.759   4.655  0.00  0.00     0.005 C 
ATOM     25  C2  BA4 d         -19.501  -7.678   3.440  0.00  0.00     0.005 C 
ENDBRANCH  23  24
ENDBRANCH  20  23
ENDBRANCH   7  19
BRANCH   4  26
ATOM     26  CAF BA4 d         -12.523 -12.504   6.141  0.00  0.00     0.199 C 
BRANCH  26  27
ATOM     27  OAM BA4 d         -13.226 -13.500   6.311  0.00  0.00    -0.398 OA
ATOM     28  H10 BA4 d         -13.761 -13.644   5.539  0.00  0.00     0.209 HD
ENDBRANCH  26  27
ENDBRANCH   4  26
BRANCH   6  29
ATOM     29  OAJ BA4 d         -15.111  -8.593   7.927  0.00  0.00    -0.390 OA
ATOM     30  H14 BA4 d         -14.397  -8.386   8.519  0.00  0.00     0.210 HD
ENDBRANCH   6  29
BRANCH   5  31
ATOM     31  OAK BA4 d         -12.926 -10.424   8.197  0.00  0.00    -0.390 OA
ATOM     32  H12 BA4 d         -13.372 -10.068   8.957  0.00  0.00     0.210 HD
ENDBRANCH   5  31
TORSDOF 10
