REMARK  4 active torsions:
REMARK  status: ('A' for Active; 'I' for Inactive)
REMARK    1  A    between atoms: C2_2  and  O5_5 
REMARK    2  A    between atoms: O5_5  and  C6_6 
REMARK       I    between atoms: C6_6  and  N8_8 
REMARK    3  A    between atoms: N8_8  and  C9_9 
REMARK    4  A    between atoms: C13_12  and  N16_14 
ROOT
ATOM      1  C9  MOL d           6.828  53.653   2.125  0.00  0.00     0.088 C 
ATOM      2  C11 MOL d           6.778  54.589   3.356  0.00  0.00     0.027 C 
ATOM      3  C12 MOL d           7.086  55.998   2.801  0.00  0.00     0.028 C 
ATOM      4  C13 MOL d           6.616  55.951   1.328  0.00  0.00     0.093 C 
ATOM      5  C15 MOL d           6.967  54.529   0.859  0.00  0.00     0.051 C 
ENDROOT
BRANCH   4   6
ATOM      6  N16 MOL d           7.340  57.057   0.678  0.00  0.00    -0.334 N 
ATOM      7  C17 MOL d           8.582  57.054   0.088  0.00  0.00     0.211 A 
ATOM      8  N18 MOL d           8.867  58.264  -0.334  0.00  0.00    -0.240 NA
ATOM      9  C19 MOL d           7.844  59.103  -0.024  0.00  0.00     0.103 A 
ATOM     10  C20 MOL d           6.857  58.333   0.636  0.00  0.00     0.080 A 
ATOM     11  C28 MOL d           7.606  60.475  -0.212  0.00  0.00     0.153 A 
ATOM     12  C21 MOL d           5.673  58.963   1.072  0.00  0.00     0.040 A 
ATOM     13  C22 MOL d           4.452  58.519   1.773  0.00  0.00     0.034 A 
ATOM     14  C26 MOL d           5.522  60.342   0.825  0.00  0.00     0.139 A 
ATOM     15  C23 MOL d           3.679  59.606   1.897  0.00  0.00     0.091 A 
ATOM     16  N24 MOL d           4.306  60.704   1.345  0.00  0.00    -0.350 N 
ATOM     17  H22 MOL d           3.917  61.657   1.326  0.00  0.00     0.166 HD
ATOM     18  N27 MOL d           6.492  61.038   0.203  0.00  0.00    -0.240 NA
ENDBRANCH   4   6
BRANCH   1  19
ATOM     19  N8  MOL d           5.614  52.824   2.164  0.00  0.00    -0.332 N 
ATOM     20  C6  MOL d           5.487  51.733   1.372  0.00  0.00     0.361 C 
ATOM     21  O7  MOL d           6.355  51.442   0.560  0.00  0.00    -0.238 OA
ATOM     22  H10 MOL d           4.870  53.070   2.785  0.00  0.00     0.165 HD
BRANCH  20  23
ATOM     23  O5  MOL d           4.351  51.022   1.517  0.00  0.00    -0.294 OA
BRANCH  23  24
ATOM     24  C2  MOL d           4.087  49.701   0.956  0.00  0.00     0.061 C 
ATOM     25  C1  MOL d           3.864  49.829  -0.544  0.00  0.00     0.046 C 
ATOM     26  C3  MOL d           2.779  49.197   1.566  0.00  0.00     0.046 C 
ATOM     27  C4  MOL d           5.205  48.700   1.278  0.00  0.00     0.046 C 
ENDBRANCH  23  24
ENDBRANCH  20  23
ENDBRANCH   1  19
TORSDOF 4
