REMARK  13 active torsions:
REMARK  status: ('A' for Active; 'I' for Inactive)
REMARK    1  A    between atoms: O3_14  and  C1_1 
REMARK    2  A    between atoms: C2_2  and  O2_3 
REMARK    3  A    between atoms: C3_4  and  O3_5 
REMARK    4  A    between atoms: C4_6  and  O4_7 
REMARK    5  A    between atoms: O3_31  and  C1_11 
REMARK    6  A    between atoms: C3_13  and  O3_14 
REMARK    7  A    between atoms: C4_15  and  O4_16 
REMARK    8  A    between atoms: C1_20  and  O1_30 
REMARK    9  A    between atoms: C2_21  and  N2_29 
REMARK   10  A    between atoms: O3_31  and  C3_22 
REMARK   11  A    between atoms: C4_23  and  O4_32 
REMARK   12  A    between atoms: C5_24  and  C6_25 
REMARK   13  A    between atoms: C6_25  and  O6_34 
REMARK       I    between atoms: N2_29  and  C7_26 
ROOT
ATOM      1  C1  MOL d          -6.326  21.885  32.477  0.00  0.00     0.263 C 
ATOM      2  C2  MOL d          -7.499  22.800  32.144  0.00  0.00     0.095 C 
ATOM      3  C3  MOL d          -7.675  23.868  33.226  0.00  0.00     0.160 C 
ATOM      4  C4  MOL d          -6.339  24.597  33.457  0.00  0.00     0.176 C 
ATOM      5  C5  MOL d          -5.249  23.600  33.806  0.00  0.00     0.151 C 
ATOM      6  O5  MOL d          -5.129  22.654  32.730  0.00  0.00    -0.354 OA
ATOM      7  C6  MOL d          -3.919  24.304  34.040  0.00  0.00     0.042 C 
ENDROOT
BRANCH   1   8
ATOM      8  O3  MOL d          -6.671  21.051  33.587  0.00  0.00    -0.351 OA
BRANCH   8   9
ATOM      9  C3  MOL d          -5.883  19.858  33.674  0.00  0.00     0.183 C 
ATOM     10  C2  MOL d          -6.782  18.640  33.438  0.00  0.00     0.171 C 
ATOM     11  C1  MOL d          -5.978  17.360  33.689  0.00  0.00     0.284 C 
ATOM     12  O5  MOL d          -5.418  17.391  35.014  0.00  0.00    -0.349 OA
ATOM     13  C5  MOL d          -4.470  18.451  35.198  0.00  0.00     0.179 C 
ATOM     14  C4  MOL d          -5.163  19.799  35.033  0.00  0.00     0.180 C 
BRANCH  10  15
ATOM     15  N2  MOL d          -7.276  18.661  32.069  0.00  0.00    -0.349 N 
ATOM     16  C7  MOL d          -8.492  19.123  31.765  0.00  0.00     0.214 C 
ATOM     17  C8  MOL d          -8.854  19.084  30.290  0.00  0.00     0.117 C 
ATOM     18  O7  MOL d          -9.283  19.551  32.602  0.00  0.00    -0.274 OA
ATOM     19  H35 MOL d          -6.688  18.320  31.335  0.00  0.00     0.163 HD
ENDBRANCH  10  15
BRANCH  11  20
ATOM     20  O1  MOL d          -6.782  16.204  33.469  0.00  0.00    -0.364 OA
ATOM     21  CM  MOL d          -6.073  14.977  33.626  0.00  0.00     0.204 C 
ENDBRANCH  11  20
BRANCH  13  22
ATOM     22  C6  MOL d          -3.794  18.319  36.552  0.00  0.00     0.198 C 
BRANCH  22  23
ATOM     23  O6  MOL d          -4.751  18.401  37.593  0.00  0.00    -0.398 OA
ATOM     24  H37 MOL d          -5.386  17.701  37.494  0.00  0.00     0.209 HD
ENDBRANCH  22  23
ENDBRANCH  13  22
BRANCH  14  25
ATOM     25  O4  MOL d          -4.195  20.830  35.095  0.00  0.00    -0.390 OA
ATOM     26  H36 MOL d          -4.623  21.672  34.992  0.00  0.00     0.210 HD
ENDBRANCH  14  25
ENDBRANCH   8   9
ENDBRANCH   1   8
BRANCH   3  27
ATOM     27  O3  MOL d          -8.678  24.816  32.798  0.00  0.00    -0.350 OA
BRANCH  27  28
ATOM     28  C1  MOL d          -9.923  24.793  33.539  0.00  0.00     0.292 C 
ATOM     29  C2  MOL d         -10.821  25.940  33.046  0.00  0.00     0.204 C 
ATOM     30  C3  MOL d         -11.265  25.657  31.606  0.00  0.00     0.183 C 
ATOM     31  C4  MOL d         -11.958  24.291  31.512  0.00  0.00     0.178 C 
ATOM     32  C5  MOL d         -11.037  23.197  32.061  0.00  0.00     0.152 C 
ATOM     33  O5  MOL d         -10.627  23.528  33.410  0.00  0.00    -0.351 OA
ATOM     34  C6  MOL d         -11.762  21.853  32.048  0.00  0.00     0.042 C 
BRANCH  29  35
ATOM     35  O2  MOL d         -11.954  26.101  33.890  0.00  0.00    -0.388 OA
ATOM     36  H3  MOL d         -12.491  26.814  33.565  0.00  0.00     0.210 HD
ENDBRANCH  29  35
BRANCH  30  37
ATOM     37  O3  MOL d         -12.146  26.679  31.177  0.00  0.00    -0.390 OA
ATOM     38  H5  MOL d         -12.906  26.700  31.746  0.00  0.00     0.210 HD
ENDBRANCH  30  37
BRANCH  31  39
ATOM     39  O4  MOL d         -12.300  24.005  30.162  0.00  0.00    -0.390 OA
ATOM     40  H7  MOL d         -12.889  24.676  29.837  0.00  0.00     0.210 HD
ENDBRANCH  31  39
ENDBRANCH  27  28
ENDBRANCH   3  27
BRANCH   4  41
ATOM     41  O4  MOL d          -6.466  25.561  34.483  0.00  0.00    -0.390 OA
ATOM     42  H17 MOL d          -7.126  26.199  34.237  0.00  0.00     0.210 HD
ENDBRANCH   4  41
TORSDOF 13
