REMARK  18 active torsions:
REMARK  status: ('A' for Active; 'I' for Inactive)
REMARK    1  A    between atoms: C1_1  and  C5'_10 
REMARK    2  A    between atoms: C1_1  and  C3_3 
REMARK    3  A    between atoms: C2'_7  and  C1_11 
REMARK    4  A    between atoms: C1_11  and  CA_26 
REMARK    5  A    between atoms: C1_11  and  C2_12 
REMARK    6  A    between atoms: C2_12  and  C3_13 
REMARK    7  A    between atoms: C3_13  and  C4_15 
REMARK    8  A    between atoms: C3_13  and  O3_14 
REMARK    9  A    between atoms: C4_15  and  CB_33 
REMARK   10  A    between atoms: C4_15  and  N5_16 
REMARK       I    between atoms: N5_16  and  C6_17 
REMARK   11  A    between atoms: C6_17  and  C7_19 
REMARK   12  A    between atoms: C7_19  and  C10_23 
REMARK   13  A    between atoms: C7_19  and  N8_20 
REMARK       I    between atoms: N8_20  and  C9_21 
REMARK   14  A    between atoms: C9_21  and  OC_40 
REMARK   15  A    between atoms: CA_26  and  C1A_27 
REMARK   16  A    between atoms: CB_33  and  C1B_34 
REMARK   17  A    between atoms: OC_40  and  CC_41 
REMARK   18  A    between atoms: CC_41  and  C1C_42 
ROOT
ATOM      1  C4  RUN d         -10.949  15.981  28.571  0.00  0.00     0.117 C 
ENDROOT
BRANCH   1   2
ATOM      2  C3  RUN d         -10.420  17.368  28.095  0.00  0.00     0.142 C 
BRANCH   2   3
ATOM      3  C2  RUN d          -8.909  17.425  28.199  0.00  0.00     0.046 C 
BRANCH   3   4
ATOM      4  C1  RUN d          -8.121  18.095  27.108  0.00  0.00     0.062 C 
BRANCH   4   5
ATOM      5  C2' RUN d          -8.028  17.232  25.834  0.00  0.00     0.108 A 
ATOM      6  N1' RUN d          -7.967  17.895  24.683  0.00  0.00    -0.340 N 
ATOM      7  C5' RUN d          -7.882  16.880  23.827  0.00  0.00     0.098 A 
ATOM      8  H8  RUN d          -7.981  18.909  24.504  0.00  0.00     0.167 HD
ATOM      9  C4' RUN d          -7.896  15.656  24.473  0.00  0.00     0.152 A 
ATOM     10  N3' RUN d          -7.988  15.903  25.766  0.00  0.00    -0.245 NA
BRANCH   7  11
ATOM     11  C1  RUN d          -7.793  17.189  22.477  0.00  0.00     0.180 C 
ATOM     12  O2  RUN d          -7.803  18.396  22.177  0.00  0.00    -0.290 OA
BRANCH  11  13
ATOM     13  C3  RUN d          -7.694  16.128  21.386  0.00  0.00     0.054 C 
ATOM     14  C5  RUN d          -9.040  16.141  20.669  0.00  0.00     0.018 C 
ATOM     15  C4  RUN d          -6.578  16.488  20.411  0.00  0.00     0.018 C 
ENDBRANCH  11  13
ENDBRANCH   7  11
ENDBRANCH   4   5
BRANCH   4  16
ATOM     16  CA  RUN d          -6.748  18.418  27.723  0.00  0.00     0.051 C 
BRANCH  16  17
ATOM     17  C1A RUN d          -5.640  18.642  26.708  0.00  0.00    -0.057 A 
ATOM     18  C6A RUN d          -5.678  19.748  25.853  0.00  0.00     0.007 A 
ATOM     19  C5A RUN d          -4.704  19.892  24.872  0.00  0.00     0.001 A 
ATOM     20  C4A RUN d          -3.693  18.933  24.751  0.00  0.00     0.000 A 
ATOM     21  C3A RUN d          -3.649  17.831  25.613  0.00  0.00     0.001 A 
ATOM     22  C2A RUN d          -4.623  17.681  26.598  0.00  0.00     0.007 A 
ENDBRANCH  16  17
ENDBRANCH   4  16
ENDBRANCH   3   4
ENDBRANCH   2   3
BRANCH   2  23
ATOM     23  O3  RUN d         -10.952  18.375  28.943  0.00  0.00    -0.393 OA
ATOM     24  H14 RUN d         -10.635  19.225  28.661  0.00  0.00     0.210 HD
ENDBRANCH   2  23
ENDBRANCH   1   2
BRANCH   1  25
ATOM     25  CB  RUN d         -12.335  15.650  28.004  0.00  0.00     0.066 C 
BRANCH  25  26
ATOM     26  C1B RUN d         -12.827  14.279  28.401  0.00  0.00    -0.056 A 
ATOM     27  C6B RUN d         -13.846  14.151  29.358  0.00  0.00     0.007 A 
ATOM     28  C5B RUN d         -14.275  12.877  29.734  0.00  0.00     0.001 A 
ATOM     29  C4B RUN d         -13.699  11.746  29.166  0.00  0.00     0.000 A 
ATOM     30  C3B RUN d         -12.687  11.878  28.214  0.00  0.00     0.001 A 
ATOM     31  C2B RUN d         -12.248  13.146  27.829  0.00  0.00     0.007 A 
ENDBRANCH  25  26
ENDBRANCH   1  25
BRANCH   1  32
ATOM     32  N5  RUN d         -11.034  16.007  30.019  0.00  0.00    -0.352 N 
ATOM     33  C6  RUN d         -10.211  15.273  30.750  0.00  0.00     0.241 C 
ATOM     34  O6  RUN d          -9.379  14.527  30.224  0.00  0.00    -0.271 OA
ATOM     35  H16 RUN d         -11.718  16.583  30.467  0.00  0.00     0.163 HD
BRANCH  33  36
ATOM     36  C7  RUN d         -10.423  15.443  32.253  0.00  0.00     0.182 C 
BRANCH  36  37
ATOM     37  C10 RUN d          -9.069  15.382  33.005  0.00  0.00     0.009 C 
ATOM     38  C12 RUN d          -8.285  16.630  32.638  0.00  0.00     0.012 C 
ATOM     39  C11 RUN d          -9.232  15.449  34.517  0.00  0.00     0.012 C 
ENDBRANCH  36  37
BRANCH  36  40
ATOM     40  N8  RUN d         -11.319  14.378  32.627  0.00  0.00    -0.323 N 
ATOM     41  C9  RUN d         -12.497  14.657  33.187  0.00  0.00     0.361 C 
ATOM     42  O9  RUN d         -12.794  15.834  33.385  0.00  0.00    -0.238 OA
ATOM     43  H18 RUN d         -11.057  13.427  32.466  0.00  0.00     0.165 HD
BRANCH  41  44
ATOM     44  OC  RUN d         -13.423  13.687  33.564  0.00  0.00    -0.299 OA
BRANCH  44  45
ATOM     45  CC  RUN d         -12.835  12.406  33.800  0.00  0.00     0.219 C 
BRANCH  45  46
ATOM     46  C1C RUN d         -13.767  11.230  33.845  0.00  0.00    -0.034 A 
ATOM     47  C6C RUN d         -13.606  10.186  32.938  0.00  0.00     0.009 A 
ATOM     48  C5C RUN d         -14.446   9.086  33.016  0.00  0.00     0.001 A 
ATOM     49  C4C RUN d         -15.431   9.033  33.991  0.00  0.00     0.000 A 
ATOM     50  C3C RUN d         -15.589  10.082  34.894  0.00  0.00     0.001 A 
ATOM     51  C2C RUN d         -14.755  11.189  34.822  0.00  0.00     0.009 A 
ENDBRANCH  45  46
ENDBRANCH  44  45
ENDBRANCH  41  44
ENDBRANCH  36  40
ENDBRANCH  33  36
ENDBRANCH   1  32
TORSDOF 18
