REMARK  4 active torsions:
REMARK  status: ('A' for Active; 'I' for Inactive)
REMARK    1  A    between atoms: C25_2  and  N3_31 
REMARK    2  A    between atoms: C23_4  and  N4_34 
REMARK    3  A    between atoms: C22_5  and  O6_32 
REMARK    4  A    between atoms: C21_6  and  N2_8 
ROOT
ATOM      1  O4  STU d         -37.999 -13.142 -11.283  0.00  0.00    -0.333 OA
ATOM      2  C25 STU d         -36.756 -13.027 -10.649  0.00  0.00     0.233 C 
ATOM      3  C24 STU d         -35.764 -12.090 -11.340  0.00  0.00     0.090 C 
ATOM      4  C23 STU d         -36.449 -11.471 -12.574  0.00  0.00     0.223 C 
ATOM      5  C22 STU d         -37.054 -12.574 -13.487  0.00  0.00     0.207 C 
ATOM      6  C21 STU d         -38.017 -13.441 -12.647  0.00  0.00     0.168 C 
ATOM      7  C26 STU d         -39.421 -12.960 -13.021  0.00  0.00     0.074 C 
ENDROOT
BRANCH   4   8
ATOM      8  N4  STU d         -35.510 -10.642 -13.346  0.00  0.00    -0.072 N 
ATOM      9  C28 STU d         -36.031  -9.683 -14.329  0.00  0.00     0.267 C 
ATOM     10  H23 STU d         -34.904 -11.274 -13.846  0.00  0.00     0.277 HD
ATOM     11  H24 STU d         -34.969 -10.114 -12.679  0.00  0.00     0.277 HD
ENDBRANCH   4   8
BRANCH   5  12
ATOM     12  O6  STU d         -36.015 -13.292 -14.207  0.00  0.00    -0.384 OA
ATOM     13  C27 STU d         -35.168 -14.132 -13.417  0.00  0.00     0.202 C 
ENDBRANCH   5  12
BRANCH   2  14
ATOM     14  N3  STU d         -36.265 -14.352 -10.261  0.00  0.00    -0.316 N 
ATOM     15  C19 STU d         -36.540 -15.527 -10.887  0.00  0.00     0.077 A 
ATOM     16  C18 STU d         -37.294 -15.770 -12.052  0.00  0.00     0.077 A 
ATOM     17  C6  STU d         -35.931 -16.589 -10.204  0.00  0.00     0.022 A 
ATOM     18  N2  STU d         -37.974 -14.892 -12.896  0.00  0.00    -0.308 N 
ATOM     19  C11 STU d         -37.427 -17.082 -12.534  0.00  0.00     0.015 A 
ATOM     20  C17 STU d         -38.558 -15.633 -13.920  0.00  0.00     0.049 A 
ATOM     21  C12 STU d         -38.243 -17.004 -13.732  0.00  0.00     0.004 A 
ATOM     22  C16 STU d         -39.345 -15.272 -15.024  0.00  0.00     0.030 A 
ATOM     23  C13 STU d         -38.681 -18.011 -14.598  0.00  0.00     0.014 A 
ATOM     24  C14 STU d         -39.455 -17.616 -15.676  0.00  0.00     0.001 A 
ATOM     25  C15 STU d         -39.777 -16.283 -15.878  0.00  0.00     0.002 A 
ATOM     26  C10 STU d         -36.830 -18.134 -11.869  0.00  0.00    -0.010 A 
ATOM     27  C7  STU d         -36.086 -17.911 -10.710  0.00  0.00     0.054 A 
ATOM     28  C9  STU d         -36.813 -19.612 -12.155  0.00  0.00     0.163 A 
ATOM     29  C8  STU d         -35.600 -19.217 -10.256  0.00  0.00     0.253 A 
ATOM     30  N1  STU d         -36.015 -20.196 -11.080  0.00  0.00    -0.353 N 
ATOM     31  O5  STU d         -34.914 -19.392  -9.277  0.00  0.00    -0.268 OA
ATOM     32  H15 STU d         -35.810 -21.169 -10.973  0.00  0.00     0.163 HD
ATOM     33  C5  STU d         -35.244 -15.979  -9.059  0.00  0.00     0.004 A 
ATOM     34  C20 STU d         -35.488 -14.581  -9.129  0.00  0.00     0.048 A 
ATOM     35  C4  STU d         -34.474 -16.513  -8.019  0.00  0.00     0.014 A 
ATOM     36  C1  STU d         -34.968 -13.707  -8.169  0.00  0.00     0.030 A 
ATOM     37  C2  STU d         -34.210 -14.262  -7.149  0.00  0.00     0.002 A 
ATOM     38  C3  STU d         -33.969 -15.626  -7.078  0.00  0.00     0.001 A 
ENDBRANCH   2  14
TORSDOF 4
