REMARK  14 active torsions:
REMARK  status: ('A' for Active; 'I' for Inactive)
REMARK    1  A    between atoms: C1_1  and  C2_4 
REMARK    2  A    between atoms: C2_4  and  C3_5 
REMARK    3  A    between atoms: C3_5  and  C4_6 
REMARK    4  A    between atoms: C4_6  and  C5_7 
REMARK    5  A    between atoms: C5_7  and  C6_8 
REMARK    6  A    between atoms: C6_8  and  C7_9 
REMARK    7  A    between atoms: C7_9  and  C8_10 
REMARK    8  A    between atoms: C8_10  and  C9_11 
REMARK    9  A    between atoms: C9_11  and  CA_12 
REMARK   10  A    between atoms: CA_12  and  CB_13 
REMARK   11  A    between atoms: CB_13  and  CC_14 
REMARK   12  A    between atoms: CC_14  and  CD_15 
REMARK   13  A    between atoms: CD_15  and  CE_16 
REMARK   14  A    between atoms: CE_16  and  CF_17 
ROOT
ATOM      1  C7  PLM d           5.487   0.471   5.941  0.00  0.00     0.000 C 
ENDROOT
BRANCH   1   2
ATOM      2  C6  PLM d           4.144  -0.149   6.362  0.00  0.00     0.000 C 
BRANCH   2   3
ATOM      3  C5  PLM d           3.724   0.308   7.754  0.00  0.00     0.000 C 
BRANCH   3   4
ATOM      4  C4  PLM d           3.083  -0.801   8.593  0.00  0.00     0.001 C 
BRANCH   4   5
ATOM      5  C3  PLM d           1.725  -0.412   9.167  0.00  0.00     0.010 C 
BRANCH   5   6
ATOM      6  C2  PLM d           1.732  -0.320  10.684  0.00  0.00     0.113 C 
BRANCH   6   7
ATOM      7  C1  PLM d           0.371  -0.445  11.350  0.00  0.00     0.172 C 
ATOM      8  O1  PLM d          -0.445  -1.276  10.913  0.00  0.00    -0.648 OA
ATOM      9  O2  PLM d           0.089   0.268  12.310  0.00  0.00    -0.648 OA
ENDBRANCH   6   7
ENDBRANCH   5   6
ENDBRANCH   4   5
ENDBRANCH   3   4
ENDBRANCH   2   3
ENDBRANCH   1   2
BRANCH   1  10
ATOM     10  C8  PLM d           5.896   0.005   4.531  0.00  0.00     0.000 C 
BRANCH  10  11
ATOM     11  C9  PLM d           7.281   0.488   4.139  0.00  0.00     0.000 C 
BRANCH  11  12
ATOM     12  CA  PLM d           7.728   0.059   2.754  0.00  0.00     0.000 C 
BRANCH  12  13
ATOM     13  CB  PLM d           8.986   0.766   2.269  0.00  0.00     0.000 C 
BRANCH  13  14
ATOM     14  CC  PLM d           9.175   0.527   0.766  0.00  0.00     0.000 C 
BRANCH  14  15
ATOM     15  CD  PLM d          10.641   0.237   0.462  0.00  0.00     0.000 C 
BRANCH  15  16
ATOM     16  CE  PLM d          11.153   1.026  -0.748  0.00  0.00    -0.000 C 
BRANCH  16  17
ATOM     17  CF  PLM d          12.306   0.297  -1.455  0.00  0.00    -0.005 C 
ATOM     18  CG  PLM d          12.846   1.113  -2.634  0.00  0.00     0.005 C 
ENDBRANCH  16  17
ENDBRANCH  15  16
ENDBRANCH  14  15
ENDBRANCH  13  14
ENDBRANCH  12  13
ENDBRANCH  11  12
ENDBRANCH  10  11
ENDBRANCH   1  10
TORSDOF 14
