REMARK  4 active torsions:
REMARK  status: ('A' for Active; 'I' for Inactive)
REMARK    1  A    between atoms: C2_2  and  O4_3 
REMARK    2  A    between atoms: C2_2  and  C5_4 
REMARK    3  A    between atoms: N6_5  and  C18_16 
REMARK    4  A    between atoms: C22_19  and  C26_22 
ROOT
ATOM      1  C26 1J6 d           5.325  52.307   2.409  0.00  0.00     0.128 C 
ATOM      2  C27 1J6 d           4.150  51.655   1.762  0.00  0.00     0.059 C 
ATOM      3  N28 1J6 d           3.254  51.255   1.162  0.00  0.00    -0.197 NA
ENDROOT
BRANCH   1   4
ATOM      4  C22 1J6 d           5.422  53.758   1.872  0.00  0.00    -0.001 C 
ATOM      5  C21 1J6 d           6.508  54.482   2.683  0.00  0.00     0.007 C 
ATOM      6  C20 1J6 d           6.828  55.888   2.163  0.00  0.00     0.026 C 
ATOM      7  C18 1J6 d           7.160  55.823   0.661  0.00  0.00     0.091 C 
ATOM      8  C25 1J6 d           5.997  55.207  -0.127  0.00  0.00     0.026 C 
ATOM      9  C24 1J6 d           5.700  53.781   0.347  0.00  0.00     0.007 C 
BRANCH   7  10
ATOM     10  N6  1J6 d           7.464  57.169   0.160  0.00  0.00    -0.325 N 
ATOM     11  C5  1J6 d           8.625  57.516  -0.467  0.00  0.00     0.136 A 
ATOM     12  N9  1J6 d           8.616  58.779  -0.788  0.00  0.00    -0.229 NA
ATOM     13  C8  1J6 d           7.445  59.340  -0.402  0.00  0.00     0.104 A 
ATOM     14  C7  1J6 d           6.691  58.323   0.224  0.00  0.00     0.081 A 
ATOM     15  C10 1J6 d           6.920  60.633  -0.509  0.00  0.00     0.153 A 
ATOM     16  C13 1J6 d           5.424  58.686   0.698  0.00  0.00     0.041 A 
ATOM     17  C12 1J6 d           4.974  60.014   0.536  0.00  0.00     0.139 A 
ATOM     18  C14 1J6 d           4.338  57.964   1.358  0.00  0.00     0.034 A 
ATOM     19  N11 1J6 d           5.730  60.943  -0.047  0.00  0.00    -0.240 NA
ATOM     20  N16 1J6 d           3.735  60.073   1.075  0.00  0.00    -0.350 N 
ATOM     21  C15 1J6 d           3.349  58.841   1.550  0.00  0.00     0.091 A 
ATOM     22  H9  1J6 d           3.158  60.925   1.123  0.00  0.00     0.166 HD
BRANCH  11  23
ATOM     23  C2  1J6 d           9.762  56.565  -0.729  0.00  0.00     0.183 C 
ATOM     24  C1  1J6 d          10.809  57.162  -1.682  0.00  0.00     0.047 C 
BRANCH  23  25
ATOM     25  O4  1J6 d          10.329  56.235   0.545  0.00  0.00    -0.388 OA
ATOM     26  H5  1J6 d           9.655  55.870   1.105  0.00  0.00     0.210 HD
ENDBRANCH  23  25
ENDBRANCH  11  23
ENDBRANCH   7  10
ENDBRANCH   1   4
TORSDOF 4
