REMARK  5 active torsions:
REMARK  status: ('A' for Active; 'I' for Inactive)
REMARK    1  A    between atoms: C15_3  and  N2_13 
REMARK    2  A    between atoms: C27_6  and  C28_7 
REMARK    3  A    between atoms: C12_16  and  N1_19 
REMARK    4  A    between atoms: N1_19  and  S1_20 
REMARK    5  A    between atoms: S1_20  and  C6_23 
ROOT
ATOM      1  N2  MOL d           6.158   4.893  21.816  0.00  0.00    -0.313 N 
ATOM      2  C50 MOL d           6.728   6.021  22.314  0.00  0.00     0.247 C 
ATOM      3  O3  MOL d           7.845   6.444  22.059  0.00  0.00    -0.271 OA
ATOM      4  C12 MOL d           5.737   6.693  23.273  0.00  0.00     0.187 C 
ATOM      5  C13 MOL d           4.410   6.084  22.852  0.00  0.00     0.056 C 
ATOM      6  C14 MOL d           4.775   4.734  22.247  0.00  0.00     0.135 C 
ENDROOT
BRANCH   4   7
ATOM      7  N1  MOL d           5.766   8.144  23.146  0.00  0.00    -0.301 N 
ATOM      8  H18 MOL d           5.471   8.558  22.285  0.00  0.00     0.173 HD
BRANCH   7   9
ATOM      9  S1  MOL d           6.257   9.112  24.347  0.00  0.00     0.259 S 
ATOM     10  O2  MOL d           6.237  10.390  23.721  0.00  0.00    -0.201 OA
ATOM     11  O1  MOL d           5.510   8.896  25.553  0.00  0.00    -0.201 OA
BRANCH   9  12
ATOM     12  C6  MOL d           7.956   8.783  24.706  0.00  0.00     0.080 A 
ATOM     13  C16 MOL d           8.889   9.238  23.759  0.00  0.00     0.026 A 
ATOM     14  C18 MOL d          10.246   9.028  23.997  0.00  0.00     0.014 A 
ATOM     15  C17 MOL d          10.647   8.369  25.176  0.00  0.00    -0.024 A 
ATOM     16  C4  MOL d           9.694   7.912  26.125  0.00  0.00    -0.024 A 
ATOM     17  C9  MOL d          12.004   8.152  25.412  0.00  0.00     0.036 A 
ATOM     18  C5  MOL d           8.318   8.139  25.867  0.00  0.00     0.037 A 
ATOM     19  C3  MOL d          10.123   7.256  27.309  0.00  0.00     0.014 A 
ATOM     20  C2  MOL d          11.461   7.052  27.533  0.00  0.00     0.024 A 
ATOM     21  C1  MOL d          12.395   7.509  26.581  0.00  0.00     0.034 A 
ATOM     22 CL1  MOL d          14.101   7.288  26.797  0.00  0.00    -0.084 Cl
ENDBRANCH   9  12
ENDBRANCH   7   9
ENDBRANCH   4   7
BRANCH   1  23
ATOM     23  C15 MOL d           6.836   3.947  20.978  0.00  0.00     0.076 A 
ATOM     24  C21 MOL d           7.602   4.308  19.865  0.00  0.00     0.143 A 
ATOM     25  F2  MOL d           7.736   5.587  19.521  0.00  0.00    -0.204 F 
ATOM     26  C24 MOL d           8.251   3.383  19.072  0.00  0.00     0.054 A 
ATOM     27  C27 MOL d           8.168   2.020  19.381  0.00  0.00    -0.025 A 
ATOM     28  C26 MOL d           7.411   1.637  20.487  0.00  0.00     0.012 A 
ATOM     29  C22 MOL d           6.757   2.579  21.281  0.00  0.00     0.033 A 
BRANCH  27  30
ATOM     30  C28 MOL d           8.843   0.975  18.522  0.00  0.00     0.218 C 
ATOM     31  C7  MOL d          10.100   1.486  17.806  0.00  0.00     0.039 C 
ATOM     32  C11 MOL d           9.621   1.867  16.402  0.00  0.00     0.030 C 
ATOM     33  C8  MOL d           8.187   1.329  16.286  0.00  0.00     0.233 C 
ATOM     34  N4  MOL d           7.963   0.472  17.455  0.00  0.00    -0.067 N 
ATOM     35  H10 MOL d           6.999   0.525  17.745  0.00  0.00     0.277 HD
ATOM     36  H11 MOL d           8.195  -0.484  17.235  0.00  0.00     0.277 HD
ENDBRANCH  27  30
ENDBRANCH   1  23
TORSDOF 5
