REMARK  4 active torsions:
REMARK  status: ('A' for Active; 'I' for Inactive)
REMARK    1  A    between atoms: O4_1  and  C4_2 
REMARK    2  A    between atoms: C3_3  and  O3_4 
REMARK    3  A    between atoms: C5_8  and  C6_9 
REMARK    4  A    between atoms: C6_9  and  O6_10 
ROOT
ATOM      1  C4  IFM d           9.083  11.262  11.210  0.00  0.00     0.156 C 
ATOM      2  C3  IFM d           8.923  10.307  12.408  0.00  0.00     0.172 C 
ATOM      3  C2  IFM d           8.152  10.921  13.585  0.00  0.00     0.266 C 
ATOM      4  N   IFM d           8.528  12.310  13.833  0.00  0.00    -0.072 N 
ATOM      5  C1  IFM d           8.707  13.256  12.725  0.00  0.00     0.241 C 
ATOM      6  C5  IFM d           9.615  12.644  11.643  0.00  0.00     0.066 C 
ATOM      7  H7  IFM d           9.403  12.285  14.332  0.00  0.00     0.277 HD
ATOM      8  H8  IFM d           7.813  12.698  14.428  0.00  0.00     0.277 HD
ENDROOT
BRANCH   6   9
ATOM      9  C6  IFM d           9.833  13.633  10.487  0.00  0.00     0.173 C 
BRANCH   9  10
ATOM     10  O6  IFM d           8.776  13.557   9.511  0.00  0.00    -0.400 OA
ATOM     11  H14 IFM d           8.742  12.679   9.150  0.00  0.00     0.209 HD
ENDBRANCH   9  10
ENDBRANCH   6   9
BRANCH   1  12
ATOM     12  O4  IFM d           9.928  10.665  10.212  0.00  0.00    -0.392 OA
ATOM     13  H1  IFM d          10.020  11.262   9.478  0.00  0.00     0.210 HD
ENDBRANCH   1  12
BRANCH   2  14
ATOM     14  O3  IFM d           8.259   9.118  11.973  0.00  0.00    -0.391 OA
ATOM     15  H4  IFM d           8.158   8.526  12.709  0.00  0.00     0.210 HD
ENDBRANCH   2  14
TORSDOF 4
