REMARK  13 active torsions:
REMARK  status: ('A' for Active; 'I' for Inactive)
REMARK    1  A    between atoms: C5'_2  and  O5'_1 
REMARK    2  A    between atoms: C4'_3  and  C5'_2 
REMARK    3  A    between atoms: C3'_5  and  O3'_6 
REMARK    4  A    between atoms: C2'_7  and  O2'_8 
REMARK    5  A    between atoms: O3B_16  and  C1'_9 
REMARK    6  A    between atoms: O4B_27  and  C1B_10 
REMARK    7  A    between atoms: C2B_11  and  O2B_15 
REMARK    8  A    between atoms: C3B_12  and  O3B_16 
REMARK    9  A    between atoms: C4B_13  and  O4B_17 
REMARK   10  A    between atoms: C1B_20  and  O4A_19 
REMARK   11  A    between atoms: C2B_21  and  O2B_25 
REMARK   12  A    between atoms: C3B_22  and  O3B_26 
REMARK   13  A    between atoms: C4B_23  and  O4B_27 
ROOT
ATOM      1  C1B AHR d         -16.898  20.685 -13.704  0.00  0.00     0.291 C 
ATOM      2  C2B AHR d         -17.197  19.565 -14.680  0.00  0.00     0.205 C 
ATOM      3  C3B AHR d         -18.495  19.817 -15.422  0.00  0.00     0.189 C 
ATOM      4  C4B AHR d         -19.572  20.158 -14.415  0.00  0.00     0.173 C 
ATOM      5  C5B AHR d         -19.089  21.249 -13.484  0.00  0.00     0.205 C 
ATOM      6  O5B AHR d         -17.951  20.811 -12.780  0.00  0.00    -0.356 OA
ENDROOT
BRANCH   1   7
ATOM      7  O4B AHR d         -15.627  20.401 -13.087  0.00  0.00    -0.348 OA
BRANCH   7   8
ATOM      8  C4B AHR d         -15.136  21.500 -12.351  0.00  0.00     0.180 C 
ATOM      9  C3B AHR d         -14.235  20.980 -11.251  0.00  0.00     0.182 C 
ATOM     10  C2B AHR d         -13.513  22.133 -10.586  0.00  0.00     0.204 C 
ATOM     11  C1B AHR d         -12.842  22.994 -11.633  0.00  0.00     0.288 C 
ATOM     12  O5B AHR d         -13.802  23.486 -12.534  0.00  0.00    -0.356 OA
ATOM     13  C5B AHR d         -14.324  22.396 -13.259  0.00  0.00     0.205 C 
BRANCH   9  14
ATOM     14  O3B AHR d         -14.994  20.279 -10.292  0.00  0.00    -0.390 OA
ATOM     15  H26 AHR d         -14.419  19.958  -9.608  0.00  0.00     0.210 HD
ENDBRANCH   9  14
BRANCH  10  16
ATOM     16  O2B AHR d         -12.530  21.632  -9.708  0.00  0.00    -0.388 OA
ATOM     17  H25 AHR d         -12.079  22.357  -9.292  0.00  0.00     0.210 HD
ENDBRANCH  10  16
BRANCH  11  18
ATOM     18  O4A AHR d         -12.202  24.074 -10.997  0.00  0.00    -0.369 OA
ATOM     19  H18 AHR d         -11.553  23.742 -10.388  0.00  0.00     0.212 HD
ENDBRANCH  11  18
ENDBRANCH   7   8
ENDBRANCH   1   7
BRANCH   2  20
ATOM     20  O2B AHR d         -16.129  19.453 -15.594  0.00  0.00    -0.388 OA
ATOM     21  H16 AHR d         -15.322  19.295 -15.118  0.00  0.00     0.210 HD
ENDBRANCH   2  20
BRANCH   3  22
ATOM     22  O3B AHR d         -18.885  18.637 -16.097  0.00  0.00    -0.348 OA
BRANCH  22  23
ATOM     23  C1' AHR d         -18.507  18.634 -17.455  0.00  0.00     0.292 C 
ATOM     24  O4' AHR d         -19.420  19.410 -18.192  0.00  0.00    -0.348 OA
ATOM     25  C4' AHR d         -20.445  18.554 -18.778  0.00  0.00     0.179 C 
ATOM     26  C3' AHR d         -20.122  17.143 -18.278  0.00  0.00     0.182 C 
ATOM     27  C2' AHR d         -18.631  17.208 -17.969  0.00  0.00     0.204 C 
BRANCH  25  28
ATOM     28  C5' AHR d         -20.496  18.745 -20.275  0.00  0.00     0.198 C 
BRANCH  28  29
ATOM     29  O5' AHR d         -19.307  18.295 -20.907  0.00  0.00    -0.398 OA
ATOM     30  H1  AHR d         -19.186  17.370 -20.729  0.00  0.00     0.209 HD
ENDBRANCH  28  29
ENDBRANCH  25  28
BRANCH  26  31
ATOM     31  O3' AHR d         -20.917  16.754 -17.170  0.00  0.00    -0.390 OA
ATOM     32  H6  AHR d         -20.772  17.357 -16.450  0.00  0.00     0.210 HD
ENDBRANCH  26  31
BRANCH  27  33
ATOM     33  O2' AHR d         -17.864  17.087 -19.159  0.00  0.00    -0.388 OA
ATOM     34  H8  AHR d         -18.086  17.796 -19.751  0.00  0.00     0.210 HD
ENDBRANCH  27  33
ENDBRANCH  22  23
ENDBRANCH   3  22
BRANCH   4  35
ATOM     35  O4B AHR d         -20.733  20.592 -15.086  0.00  0.00    -0.391 OA
ATOM     36  H17 AHR d         -21.035  19.906 -15.670  0.00  0.00     0.210 HD
ENDBRANCH   4  35
TORSDOF 13
