REMARK  6 active torsions:
REMARK  status: ('A' for Active; 'I' for Inactive)
REMARK    1  A    between atoms: C9_10  and  C8_11 
REMARK    2  A    between atoms: C5_17  and  C6_18 
REMARK    3  A    between atoms: C6_18  and  O6_19 
REMARK    4  A    between atoms: C4_20  and  O4_21 
REMARK    5  A    between atoms: C3_22  and  O3_23 
REMARK    6  A    between atoms: C2_24  and  O2_25 
ROOT
ATOM      1  C8  S06 d          34.217  23.895  29.403  0.00  0.00     0.077 C 
ATOM      2  C7  S06 d          34.814  23.202  28.181  0.00  0.00     0.136 C 
ATOM      3  N1  S06 d          32.908  24.023  29.204  0.00  0.00    -0.134 NA
ATOM      4  O7  S06 d          32.478  23.474  27.961  0.00  0.00    -0.213 OA
ATOM      5  C1  S06 d          33.579  22.729  27.413  0.00  0.00     0.226 C 
ATOM      6  O5  S06 d          33.386  21.318  27.642  0.00  0.00    -0.341 OA
ATOM      7  C5  S06 d          32.173  20.793  27.025  0.00  0.00     0.180 C 
ATOM      8  C4  S06 d          32.279  20.965  25.497  0.00  0.00     0.180 C 
ATOM      9  C3  S06 d          32.496  22.441  25.132  0.00  0.00     0.183 C 
ATOM     10  C2  S06 d          33.707  23.009  25.902  0.00  0.00     0.214 C 
ENDROOT
BRANCH  10  11
ATOM     11  O2  S06 d          33.847  24.417  25.664  0.00  0.00    -0.387 OA
ATOM     12  H19 S06 d          33.061  24.866  25.954  0.00  0.00     0.210 HD
ENDBRANCH  10  11
BRANCH   1  13
ATOM     13  C9  S06 d          34.897  24.369  30.530  0.00  0.00    -0.008 A 
ATOM     14  C10 S06 d          36.269  24.615  30.488  0.00  0.00     0.026 A 
ATOM     15  C11 S06 d          36.920  25.113  31.624  0.00  0.00    -0.025 A 
ATOM     16  C12 S06 d          38.291  25.355  31.581  0.00  0.00     0.012 A 
ATOM     17  C16 S06 d          36.198  25.373  32.799  0.00  0.00    -0.026 A 
ATOM     18  C13 S06 d          38.930  25.850  32.722  0.00  0.00     0.001 A 
ATOM     19  C14 S06 d          38.213  26.105  33.894  0.00  0.00     0.001 A 
ATOM     20  C15 S06 d          36.841  25.867  33.939  0.00  0.00     0.012 A 
ATOM     21  C17 S06 d          34.828  25.128  32.840  0.00  0.00     0.013 A 
ATOM     22  C18 S06 d          34.185  24.637  31.704  0.00  0.00     0.014 A 
ENDBRANCH   1  13
BRANCH   7  23
ATOM     23  C6  S06 d          32.014  19.337  27.459  0.00  0.00     0.198 C 
BRANCH  23  24
ATOM     24  O6  S06 d          33.063  18.551  26.878  0.00  0.00    -0.398 OA
ATOM     25  H13 S06 d          33.904  18.881  27.172  0.00  0.00     0.209 HD
ENDBRANCH  23  24
ENDBRANCH   7  23
BRANCH   9  26
ATOM     26  O3  S06 d          32.723  22.560  23.722  0.00  0.00    -0.390 OA
ATOM     27  H17 S06 d          31.968  22.226  23.252  0.00  0.00     0.210 HD
ENDBRANCH   9  26
BRANCH   8  28
ATOM     28  O4  S06 d          31.108  20.451  24.844  0.00  0.00    -0.390 OA
ATOM     29  H15 S06 d          31.194  20.567  23.905  0.00  0.00     0.210 HD
ENDBRANCH   8  28
TORSDOF 6
