REMARK  7 active torsions:
REMARK  status: ('A' for Active; 'I' for Inactive)
REMARK    1  A    between atoms: CA_2  and  N_1 
REMARK    2  A    between atoms: C_3  and  CA_2 
REMARK    3  A    between atoms: CA_2  and  CB_5 
REMARK       I    between atoms: C_3  and  N_9 
REMARK    4  A    between atoms: CB_5  and  CG1_6 
REMARK    5  A    between atoms: N_9  and  CA_10 
REMARK    6  A    between atoms: CA_10  and  C_11 
REMARK    7  A    between atoms: CA_10  and  CB_13 
ROOT
ATOM      1  C   ILE d          21.116  64.760  12.736  0.00  0.00     0.249 C 
ATOM      2  O   ILE d          21.207  64.283  11.575  0.00  0.00    -0.271 OA
ATOM      3  N   ILE d          22.157  65.244  13.402  0.00  0.00    -0.344 N 
ATOM      4  H14 ILE d          21.990  65.679  14.287  0.00  0.00     0.163 HD
ENDROOT
BRANCH   1   5
ATOM      5  CA  ILE d          19.755  64.792  13.438  0.00  0.00     0.278 C 
BRANCH   5   6
ATOM      6  CB  ILE d          19.267  63.318  13.602  0.00  0.00     0.021 C 
ATOM      7  CG2 ILE d          20.280  62.439  14.365  0.00  0.00     0.012 C 
BRANCH   6   8
ATOM      8  CG1 ILE d          17.873  63.128  14.214  0.00  0.00     0.002 C 
ATOM      9  CD1 ILE d          17.884  63.329  15.738  0.00  0.00     0.005 C 
ENDBRANCH   6   8
ENDBRANCH   5   6
BRANCH   5  10
ATOM     10  N   ILE d          18.807  65.586  12.650  0.00  0.00    -0.066 N 
ATOM     11  H1  ILE d          19.150  66.530  12.563  0.00  0.00     0.275 HD
ATOM     12  H2  ILE d          17.911  65.596  13.112  0.00  0.00     0.275 HD
ATOM     13  H3  ILE d          18.708  65.178  11.733  0.00  0.00     0.275 HD
ENDBRANCH   5  10
ENDBRANCH   1   5
BRANCH   3  14
ATOM     14  CA  ILE d          23.548  65.177  12.910  0.00  0.00     0.189 C 
BRANCH  14  15
ATOM     15  C   ILE d          24.356  64.089  13.603  0.00  0.00     0.197 C 
ATOM     16  OXT ILE d          24.824  63.169  12.886  0.00  0.00    -0.646 OA
ATOM     17  O   ILE d          24.136  63.829  14.818  0.00  0.00    -0.646 OA
ENDBRANCH  14  15
BRANCH  14  18
ATOM     18  CB  ILE d          24.272  66.524  13.036  0.00  0.00     0.010 C 
ATOM     19  CG1 ILE d          23.658  67.445  14.107  0.00  0.00     0.012 C 
ATOM     20  CG2 ILE d          25.768  66.341  13.240  0.00  0.00     0.012 C 
ENDBRANCH  14  18
ENDBRANCH   3  14
TORSDOF 7
