REMARK  8 active torsions:
REMARK  status: ('A' for Active; 'I' for Inactive)
REMARK    1  A    between atoms: P1_1  and  O2'_16 
REMARK    2  A    between atoms: O5'_9  and  P2_5 
REMARK    3  A    between atoms: C5'_10  and  O5'_9 
REMARK    4  A    between atoms: C4'_11  and  C5'_10 
REMARK    5  A    between atoms: C3'_13  and  O3'_14 
REMARK    6  A    between atoms: O2'_16  and  C2'_15 
REMARK    7  A    between atoms: C1'_17  and  N9_18 
REMARK    8  A    between atoms: C6_22  and  N6_23 
ROOT
ATOM      1  C4' A2P d          14.025  17.584   5.939  0.00  0.00     0.180 C 
ATOM      2  O4' A2P d          14.410  18.588   6.923  0.00  0.00    -0.353 OA
ATOM      3  C3' A2P d          14.640  16.288   6.447  0.00  0.00     0.183 C 
ATOM      4  C2' A2P d          14.539  16.470   7.958  0.00  0.00     0.216 C 
ATOM      5  C1' A2P d          14.898  17.951   8.096  0.00  0.00     0.263 C 
ENDROOT
BRANCH   5   6
ATOM      6  N9  A2P d          14.303  18.630   9.251  0.00  0.00    -0.294 N 
ATOM      7  C8  A2P d          13.107  18.371   9.887  0.00  0.00     0.214 A 
ATOM      8  N7  A2P d          12.847  19.193  10.877  0.00  0.00    -0.236 NA
ATOM      9  C5  A2P d          13.947  20.047  10.900  0.00  0.00     0.149 A 
ATOM     10  C4  A2P d          14.855  19.702   9.910  0.00  0.00     0.167 A 
ATOM     11  C6  A2P d          14.294  21.158  11.723  0.00  0.00     0.155 A 
ATOM     12  N3  A2P d          16.036  20.304   9.646  0.00  0.00    -0.222 NA
ATOM     13  C2  A2P d          16.256  21.325  10.482  0.00  0.00     0.237 A 
ATOM     14  N1  A2P d          15.477  21.783  11.479  0.00  0.00    -0.222 NA
BRANCH  11  15
ATOM     15  N6  A2P d          13.526  21.621  12.712  0.00  0.00    -0.382 N 
ATOM     16  H9  A2P d          13.836  22.429  13.270  0.00  0.00     0.157 HD
ATOM     17  H10 A2P d          12.623  21.170  12.917  0.00  0.00     0.157 HD
ENDBRANCH  11  15
ENDBRANCH   5   6
BRANCH   4  18
ATOM     18  O2' A2P d          15.398  15.580   8.661  0.00  0.00    -0.270 OA
BRANCH  18  19
ATOM     19  P1  A2P d          14.853  14.452   9.707  0.00  0.00     0.422 P 
ATOM     20  O3P A2P d          16.103  13.684  10.089  0.00  0.00    -0.617 OA
ATOM     21  O2P A2P d          13.843  13.610   8.945  0.00  0.00    -0.617 OA
ATOM     22  O1P A2P d          14.236  15.203  10.876  0.00  0.00    -0.617 OA
ENDBRANCH  18  19
ENDBRANCH   4  18
BRANCH   3  23
ATOM     23  O3' A2P d          15.997  16.255   6.024  0.00  0.00    -0.390 OA
ATOM     24  H5  A2P d          16.442  15.531   6.448  0.00  0.00     0.210 HD
ENDBRANCH   3  23
BRANCH   1  25
ATOM     25  C5' A2P d          12.515  17.556   5.824  0.00  0.00     0.217 C 
BRANCH  25  26
ATOM     26  O5' A2P d          11.931  17.267   7.112  0.00  0.00    -0.280 OA
BRANCH  26  27
ATOM     27  P2  A2P d          10.348  16.895   7.260  0.00  0.00     0.422 P 
ATOM     28  O6P A2P d          10.045  15.878   6.162  0.00  0.00    -0.617 OA
ATOM     29  O5P A2P d           9.610  18.218   7.080  0.00  0.00    -0.617 OA
ATOM     30  O4P A2P d          10.184  16.318   8.663  0.00  0.00    -0.617 OA
ENDBRANCH  26  27
ENDBRANCH  25  26
ENDBRANCH   1  25
TORSDOF 8
