REMARK  9 active torsions:
REMARK  status: ('A' for Active; 'I' for Inactive)
REMARK    1  A    between atoms: CAR_18  and  SAC_3 
REMARK    2  A    between atoms: CAK_11  and  CAJ_10 
REMARK    3  A    between atoms: CAJ_10  and  CAL_12 
REMARK    4  A    between atoms: NAN_14  and  CAK_11 
REMARK    5  A    between atoms: CAL_12  and  NAV_22 
REMARK    6  A    between atoms: NAO_15  and  CAR_18 
REMARK    7  A    between atoms: CAS_19  and  NAO_15 
REMARK    8  A    between atoms: CAT_20  and  OAP_16 
REMARK    9  A    between atoms: OAQ_17  and  CAU_21 
ROOT
ATOM      1  NAO PBD d         -22.821  22.258  -5.087  0.00  0.00    -0.336 N 
ATOM      2  H   PBD d         -23.651  22.861  -5.178  0.00  0.00     0.168 HD
ENDROOT
BRANCH   1   3
ATOM      3  CAR PBD d         -21.721  22.546  -5.822  0.00  0.00     0.159 C 
ATOM      4  NAN PBD d         -20.623  21.776  -5.688  0.00  0.00    -0.267 NA
BRANCH   3   5
ATOM      5  SAC PBD d         -21.751  23.931  -6.902  0.00  0.00    -0.105 SA
ATOM      6  H   PBD d         -22.657  24.370  -6.858  0.00  0.00     0.110 HD
ENDBRANCH   3   5
BRANCH   4   7
ATOM      7  CAK PBD d         -19.362  21.993  -6.427  0.00  0.00     0.153 C 
BRANCH   7   8
ATOM      8  CAJ PBD d         -18.477  20.757  -6.255  0.00  0.00     0.042 C 
BRANCH   8   9
ATOM      9  CAL PBD d         -17.087  20.981  -6.863  0.00  0.00     0.131 C 
BRANCH   9  10
ATOM     10  NAV PBD d         -16.241  19.829  -6.556  0.00  0.00    -0.350 N 
ATOM     11  CAG PBD d         -16.135  18.700  -7.261  0.00  0.00     0.111 A 
ATOM     12  CAD PBD d         -15.272  17.905  -6.626  0.00  0.00     0.135 A 
ATOM     13  NAM PBD d         -14.857  18.536  -5.522  0.00  0.00    -0.255 NA
ATOM     14  CAH PBD d         -15.456  19.732  -5.488  0.00  0.00     0.209 A 
ENDBRANCH   9  10
ENDBRANCH   8   9
ENDBRANCH   7   8
ENDBRANCH   4   7
ENDBRANCH   1   3
BRANCH   1  15
ATOM     15  CAS PBD d         -22.868  21.215  -4.244  0.00  0.00     0.036 A 
ATOM     16  CAE PBD d         -22.081  21.170  -3.085  0.00  0.00     0.032 A 
ATOM     17  CAF PBD d         -22.164  20.080  -2.216  0.00  0.00     0.042 A 
ATOM     18  CAT PBD d         -23.051  19.038  -2.510  0.00  0.00     0.101 A 
ATOM     19  CAU PBD d         -23.843  19.083  -3.657  0.00  0.00     0.103 A 
ATOM     20  CAI PBD d         -23.760  20.176  -4.524  0.00  0.00     0.069 A 
BRANCH  18  21
ATOM     21  OAP PBD d         -23.218  17.928  -1.734  0.00  0.00    -0.353 OA
ATOM     22  CAA PBD d         -22.359  17.823  -0.595  0.00  0.00     0.210 C 
ENDBRANCH  18  21
BRANCH  19  23
ATOM     23  OAQ PBD d         -24.678  18.014  -3.848  0.00  0.00    -0.353 OA
ATOM     24  CAB PBD d         -25.326  17.957  -5.125  0.00  0.00     0.210 C 
ENDBRANCH  19  23
ENDBRANCH   1  15
TORSDOF 9
