REMARK  14 active torsions:
REMARK  status: ('A' for Active; 'I' for Inactive)
REMARK       I    between atoms: C7_6  and  N1_1 
REMARK    1  A    between atoms: N1_1  and  C8_7 
REMARK    2  A    between atoms: C28_17  and  N3_2 
REMARK    3  A    between atoms: C4_3  and  O2_23 
REMARK    4  A    between atoms: C6_5  and  C7_6 
REMARK    5  A    between atoms: C15_10  and  C29_34 
REMARK    6  A    between atoms: C11_32  and  C17_11 
REMARK    7  A    between atoms: C20_12  and  C28_17 
REMARK    8  A    between atoms: C28_17  and  N2_26 
REMARK    9  A    between atoms: C25_20  and  N4_21 
REMARK   10  A    between atoms: O2_23  and  C9_24 
REMARK   11  A    between atoms: C9_24  and  C18_25 
REMARK   12  A    between atoms: O3_31  and  C2_29 
REMARK   13  A    between atoms: O3_31  and  C11_32 
REMARK   14  A    between atoms: C29_34  and  N5_35 
ROOT
ATOM      1  C4  NTX d          19.347   6.066  26.031  0.00  0.00     0.072 A 
ATOM      2  C5  NTX d          19.875   5.126  25.130  0.00  0.00     0.054 A 
ATOM      3  C6  NTX d          19.049   4.637  24.110  0.00  0.00     0.037 A 
ATOM      4  C3  NTX d          18.010   6.509  25.886  0.00  0.00     0.073 A 
ATOM      5  C2  NTX d          17.151   6.023  24.866  0.00  0.00     0.072 A 
ATOM      6  C1  NTX d          17.706   5.078  23.985  0.00  0.00     0.054 A 
ENDROOT
BRANCH   1   7
ATOM      7  O2  NTX d          20.096   6.590  27.063  0.00  0.00    -0.347 OA
BRANCH   7   8
ATOM      8  C9  NTX d          21.366   6.139  27.595  0.00  0.00     0.214 C 
BRANCH   8   9
ATOM      9  C18 NTX d          21.785   7.379  28.356  0.00  0.00    -0.033 A 
ATOM     10  C10 NTX d          22.602   8.308  27.714  0.00  0.00     0.009 A 
ATOM     11  C22 NTX d          22.971   9.477  28.382  0.00  0.00     0.002 A 
ATOM     12  C21 NTX d          22.518   9.717  29.676  0.00  0.00     0.015 A 
ATOM     13  C20 NTX d          21.676   8.805  30.319  0.00  0.00     0.007 A 
ATOM     14  C19 NTX d          21.299   7.629  29.669  0.00  0.00     0.024 A 
BRANCH  13  15
ATOM     15  C28 NTX d          21.223   9.208  31.691  0.00  0.00     0.102 C 
BRANCH  15  16
ATOM     16  N3  NTX d          20.187   8.694  32.364  0.00  0.00    -0.385 N 
ATOM     17  H   NTX d          19.960   9.044  33.306  0.00  0.00     0.157 HD
ATOM     18  H   NTX d          19.617   7.948  31.940  0.00  0.00     0.157 HD
ENDBRANCH  15  16
BRANCH  15  19
ATOM     19  N2  NTX d          21.906  10.200  32.241  0.00  0.00    -0.385 N 
ATOM     20  H   NTX d          22.707  10.612  31.742  0.00  0.00     0.157 HD
ATOM     21  H   NTX d          21.636  10.560  33.168  0.00  0.00     0.157 HD
ENDBRANCH  15  19
ENDBRANCH  13  15
ENDBRANCH   8   9
ENDBRANCH   7   8
ENDBRANCH   1   7
BRANCH   3  22
ATOM     22  C7  NTX d          19.585   3.654  23.107  0.00  0.00     0.252 C 
ATOM     23  N1  NTX d          20.568   2.773  23.355  0.00  0.00    -0.352 N 
ATOM     24  H   NTX d          20.990   2.719  24.260  0.00  0.00     0.163 HD
ATOM     25  O1  NTX d          19.095   3.731  21.998  0.00  0.00    -0.268 OA
BRANCH  23  26
ATOM     26  C8  NTX d          21.015   1.880  22.252  0.00  0.00     0.084 C 
ATOM     27  C23 NTX d          22.528   2.117  22.047  0.00  0.00     0.027 C 
ATOM     28  C24 NTX d          23.201   1.013  21.234  0.00  0.00     0.035 C 
ATOM     29  C25 NTX d          22.922  -0.315  21.927  0.00  0.00     0.183 C 
ATOM     30  C26 NTX d          21.436  -0.610  21.738  0.00  0.00     0.035 C 
ATOM     31  C27 NTX d          20.676   0.411  22.599  0.00  0.00     0.027 C 
BRANCH  29  32
ATOM     32  N4  NTX d          23.783  -1.372  21.437  0.00  0.00    -0.075 N 
ATOM     33  H   NTX d          24.747  -1.119  21.590  0.00  0.00     0.274 HD
ATOM     34  H   NTX d          23.623  -1.506  20.451  0.00  0.00     0.274 HD
ATOM     35  H   NTX d          23.578  -2.227  21.929  0.00  0.00     0.274 HD
ENDBRANCH  29  32
ENDBRANCH  23  26
ENDBRANCH   3  22
BRANCH   5  36
ATOM     36  O3  NTX d          15.809   6.444  24.716  0.00  0.00    -0.347 OA
BRANCH  36  37
ATOM     37  C11 NTX d          15.154   7.413  25.580  0.00  0.00     0.214 C 
BRANCH  37  38
ATOM     38  C17 NTX d          14.837   8.791  24.975  0.00  0.00    -0.033 A 
ATOM     39  C16 NTX d          14.279   9.804  25.784  0.00  0.00     0.024 A 
ATOM     40  C15 NTX d          13.978  11.069  25.232  0.00  0.00     0.007 A 
ATOM     41  C14 NTX d          14.247  11.322  23.866  0.00  0.00     0.015 A 
ATOM     42  C13 NTX d          14.791  10.320  23.052  0.00  0.00     0.002 A 
ATOM     43  C12 NTX d          15.088   9.064  23.616  0.00  0.00     0.009 A 
BRANCH  40  44
ATOM     44  C29 NTX d          13.397  12.192  26.077  0.00  0.00     0.102 C 
ATOM     45  N6  NTX d          13.564  13.459  25.679  0.00  0.00    -0.385 N 
ATOM     46  H   NTX d          14.076  13.662  24.809  0.00  0.00     0.157 HD
ATOM     47  H   NTX d          13.181  14.231  26.243  0.00  0.00     0.157 HD
BRANCH  44  48
ATOM     48  N5  NTX d          12.721  11.999  27.219  0.00  0.00    -0.385 N 
ATOM     49  H   NTX d          12.354  12.806  27.743  0.00  0.00     0.157 HD
ATOM     50  H   NTX d          12.569  11.043  27.572  0.00  0.00     0.157 HD
ENDBRANCH  44  48
ENDBRANCH  40  44
ENDBRANCH  37  38
ENDBRANCH  36  37
ENDBRANCH   5  36
TORSDOF 14
