REMARK  21 active torsions:
REMARK  status: ('A' for Active; 'I' for Inactive)
REMARK    1  A    between atoms: CA_2  and  C_3 
REMARK       I    between atoms: C_3  and  N_8 
REMARK    2  A    between atoms: N_8  and  CA_9 
REMARK    3  A    between atoms: CA_9  and  C_10 
REMARK       I    between atoms: C_10  and  N_13 
REMARK    4  A    between atoms: N_13  and  CA_14 
REMARK    5  A    between atoms: CA_14  and  C_15 
REMARK       I    between atoms: C_15  and  N_17 
REMARK    6  A    between atoms: N_17  and  CA_18 
REMARK    7  A    between atoms: CA_18  and  C_19 
REMARK    8  A    between atoms: CA_18  and  CB_21 
REMARK       I    between atoms: C_19  and  N_29 
REMARK    9  A    between atoms: CB_21  and  CG_22 
REMARK   10  A    between atoms: CZ_27  and  OH_28 
REMARK   11  A    between atoms: CA_30  and  C_31 
REMARK       I    between atoms: C_31  and  N_36 
REMARK   12  A    between atoms: N_36  and  CA_37 
REMARK   13  A    between atoms: CA_37  and  C_38 
REMARK       I    between atoms: C_38  and  N_40 
REMARK   14  A    between atoms: N_40  and  CA_41 
REMARK   15  A    between atoms: CA_41  and  C_42 
REMARK   16  A    between atoms: CA_41  and  CB_44 
REMARK       I    between atoms: C_42  and  N_49 
REMARK   17  A    between atoms: CB_44  and  CG_45 
REMARK   18  A    between atoms: CG_45  and  CD_46 
REMARK       I    between atoms: CD_46  and  NE2_48 
REMARK   19  A    between atoms: N_49  and  CA_50 
REMARK   20  A    between atoms: CA_50  and  C_51 
REMARK   21  A    between atoms: CA_50  and  CB_53 
ROOT
ATOM      1  C   PRO d           4.683 -16.059  47.376  0.00  0.00     0.243 C 
ATOM      2  O   PRO d           4.971 -17.031  46.670  0.00  0.00    -0.271 OA
ATOM      3  N   PRO d           3.702 -15.188  47.072  0.00  0.00    -0.337 N 
ATOM      4  CA  PRO d           2.825 -15.471  45.929  0.00  0.00     0.179 C 
ATOM      5  CB  PRO d           1.537 -14.709  46.273  0.00  0.00     0.037 C 
ATOM      6  CG  PRO d           1.987 -13.569  47.130  0.00  0.00     0.022 C 
ATOM      7  CD  PRO d           3.307 -13.953  47.779  0.00  0.00     0.127 C 
ENDROOT
BRANCH   1   8
ATOM      8  CA  PRO d           5.451 -15.836  48.662  0.00  0.00     0.181 C 
BRANCH   8   9
ATOM      9  N   PRO d           5.349 -17.063  49.460  0.00  0.00    -0.346 N 
ATOM     10  C   PRO d           4.426 -17.236  50.403  0.00  0.00     0.236 C 
ATOM     11  O   PRO d           3.628 -16.362  50.723  0.00  0.00    -0.272 OA
ATOM     12  H18 PRO d           6.001 -17.801  49.288  0.00  0.00     0.163 HD
BRANCH  10  13
ATOM     13  CA  PRO d           4.410 -18.594  51.084  0.00  0.00     0.225 C 
BRANCH  13  14
ATOM     14  N   PRO d           3.894 -18.614  52.451  0.00  0.00    -0.351 N 
ATOM     15  C   PRO d           4.446 -17.909  53.438  0.00  0.00     0.240 C 
ATOM     16  O   PRO d           5.305 -17.039  53.254  0.00  0.00    -0.271 OA
ATOM     17  H15 PRO d           3.095 -19.179  52.654  0.00  0.00     0.163 HD
BRANCH  15  18
ATOM     18  CA  PRO d           3.962 -18.219  54.854  0.00  0.00     0.172 C 
ATOM     19  CB  PRO d           3.021 -17.118  55.350  0.00  0.00     0.042 C 
BRANCH  18  20
ATOM     20  N   PRO d           5.127 -18.330  55.730  0.00  0.00    -0.346 N 
ATOM     21  C   PRO d           6.020 -19.313  55.613  0.00  0.00     0.249 C 
ATOM     22  O   PRO d           5.856 -20.300  54.886  0.00  0.00    -0.271 OA
ATOM     23  H10 PRO d           5.259 -17.642  56.444  0.00  0.00     0.163 HD
BRANCH  21  24
ATOM     24  CA  PRO d           7.304 -19.166  56.433  0.00  0.00     0.277 C 
ATOM     25  N   PRO d           8.043 -20.416  56.560  0.00  0.00    -0.062 N 
ATOM     26  CD  PRO d           9.170 -20.502  55.610  0.00  0.00     0.233 C 
ATOM     27  H1  PRO d           7.413 -21.184  56.386  0.00  0.00     0.278 HD
ATOM     28  H2  PRO d           8.405 -20.485  57.498  0.00  0.00     0.278 HD
ATOM     29  CG  PRO d           9.100 -19.204  54.837  0.00  0.00     0.030 C 
ATOM     30  CB  PRO d           8.290 -18.265  55.678  0.00  0.00     0.044 C 
ENDBRANCH  21  24
ENDBRANCH  18  20
ENDBRANCH  15  18
ENDBRANCH  13  14
ENDBRANCH  10  13
ENDBRANCH   8   9
BRANCH   8  31
ATOM     31  CB  PRO d           6.907 -15.578  48.295  0.00  0.00     0.073 C 
BRANCH  31  32
ATOM     32  CG  PRO d           7.119 -14.383  47.387  0.00  0.00    -0.056 A 
ATOM     33  CD1 PRO d           6.831 -13.087  47.825  0.00  0.00     0.010 A 
ATOM     34  CE1 PRO d           7.035 -11.989  46.997  0.00  0.00     0.037 A 
ATOM     35  CZ  PRO d           7.558 -12.187  45.713  0.00  0.00     0.065 A 
ATOM     36  CE2 PRO d           7.864 -13.461  45.260  0.00  0.00     0.037 A 
ATOM     37  CD2 PRO d           7.632 -14.554  46.092  0.00  0.00     0.010 A 
BRANCH  35  38
ATOM     38  OH  PRO d           7.781 -11.100  44.886  0.00  0.00    -0.361 OA
ATOM     39  H26 PRO d           7.523 -10.304  45.335  0.00  0.00     0.217 HD
ENDBRANCH  35  38
ENDBRANCH  31  32
ENDBRANCH   8  31
ENDBRANCH   1   8
BRANCH   4  40
ATOM     40  C   PRO d           3.367 -15.053  44.555  0.00  0.00     0.241 C 
ATOM     41  O   PRO d           2.656 -15.195  43.556  0.00  0.00    -0.271 OA
ATOM     42  N   PRO d           4.602 -14.557  44.511  0.00  0.00    -0.351 N 
ATOM     43  H34 PRO d           5.113 -14.470  45.366  0.00  0.00     0.163 HD
BRANCH  42  44
ATOM     44  CA  PRO d           5.242 -14.134  43.269  0.00  0.00     0.225 C 
BRANCH  44  45
ATOM     45  C   PRO d           5.795 -15.312  42.494  0.00  0.00     0.236 C 
ATOM     46  O   PRO d           5.800 -16.436  43.005  0.00  0.00    -0.272 OA
ATOM     47  N   PRO d           6.237 -15.067  41.258  0.00  0.00    -0.346 N 
ATOM     48  H37 PRO d           6.241 -14.126  40.920  0.00  0.00     0.163 HD
BRANCH  47  49
ATOM     49  CA  PRO d           6.717 -16.143  40.382  0.00  0.00     0.177 C 
BRANCH  49  50
ATOM     50  C   PRO d           8.214 -16.383  40.598  0.00  0.00     0.241 C 
ATOM     51  O   PRO d           9.068 -15.657  40.064  0.00  0.00    -0.271 OA
ATOM     52  N   PRO d           8.501 -17.400  41.414  0.00  0.00    -0.344 N 
ATOM     53  H45 PRO d           7.743 -17.928  41.798  0.00  0.00     0.163 HD
BRANCH  52  54
ATOM     54  CA  PRO d           9.866 -17.783  41.776  0.00  0.00     0.189 C 
BRANCH  54  55
ATOM     55  C   PRO d          10.056 -19.262  41.437  0.00  0.00     0.197 C 
ATOM     56  O   PRO d           9.085 -20.025  41.352  0.00  0.00    -0.646 OA
ATOM     57  OXT PRO d          11.176 -19.731  41.233  0.00  0.00    -0.646 OA
ENDBRANCH  54  55
BRANCH  54  58
ATOM     58  CB  PRO d          10.143 -17.518  43.296  0.00  0.00     0.010 C 
ATOM     59  CG1 PRO d          11.520 -18.013  43.721  0.00  0.00     0.012 C 
ATOM     60  CG2 PRO d          10.032 -16.046  43.610  0.00  0.00     0.012 C 
ENDBRANCH  54  58
ENDBRANCH  52  54
ENDBRANCH  49  50
BRANCH  49  61
ATOM     61  CB  PRO d           6.427 -15.839  38.905  0.00  0.00     0.044 C 
BRANCH  61  62
ATOM     62  CG  PRO d           6.904 -16.919  37.923  0.00  0.00     0.105 C 
BRANCH  62  63
ATOM     63  CD  PRO d           7.047 -16.391  36.498  0.00  0.00     0.215 C 
ATOM     64  OE1 PRO d           6.889 -15.192  36.251  0.00  0.00    -0.274 OA
ATOM     65  NE2 PRO d           7.391 -17.265  35.579  0.00  0.00    -0.370 N 
ATOM     66  H43 PRO d           7.499 -16.974  34.628  0.00  0.00     0.159 HD
ATOM     67  H44 PRO d           7.545 -18.221  35.830  0.00  0.00     0.159 HD
ENDBRANCH  62  63
ENDBRANCH  61  62
ENDBRANCH  49  61
ENDBRANCH  47  49
ENDBRANCH  44  45
ENDBRANCH  42  44
ENDBRANCH   4  40
TORSDOF 21
