2zpk_ligand

Created by X-TOOL on Fri Sep 26 17:34:39 2014
109111  0  0  0  0  0  0  0  0999 V2000
    8.0430  -20.4160   56.5600  N 0  3  0  3  0  4
    7.3040  -19.1660   56.4330  C 0  0  0  2  0  4
    6.0200  -19.3130   55.6130  C 0  0  0  1  0  3
    5.8560  -20.3000   54.8860  O 0  0  0  1  0  1
    8.2900  -18.2650   55.6780  C 0  0  0  3  0  4
    9.1000  -19.2040   54.8370  C 0  0  0  3  0  4
    9.1700  -20.5020   55.6100  C 0  0  0  3  0  4
    5.1270  -18.3300   55.7300  N 0  0  0  2  0  3
    3.9620  -18.2190   54.8540  C 0  0  0  2  0  4
    4.4460  -17.9090   53.4380  C 0  0  0  1  0  3
    5.3050  -17.0390   53.2540  O 0  0  0  1  0  1
    3.0210  -17.1180   55.3500  C 0  0  0  4  0  4
    3.8940  -18.6140   52.4510  N 0  0  0  2  0  3
    4.4100  -18.5940   51.0840  C 0  0  0  3  0  4
    4.4260  -17.2360   50.4030  C 0  0  0  1  0  3
    3.6280  -16.3620   50.7230  O 0  0  0  1  0  1
    5.3490  -17.0630   49.4600  N 0  0  0  2  0  3
    5.4510  -15.8360   48.6620  C 0  0  0  2  0  4
    4.6830  -16.0590   47.3760  C 0  0  0  1  0  3
    4.9710  -17.0310   46.6700  O 0  0  0  1  0  1
    6.9070  -15.5780   48.2950  C 0  0  0  3  0  4
    7.1190  -14.3830   47.3870  C 0  0  0  1  0  3
    6.8310  -13.0870   47.8250  C 0  0  0  2  0  3
    7.6320  -14.5540   46.0920  C 0  0  0  2  0  3
    7.0350  -11.9890   46.9970  C 0  0  0  2  0  3
    7.8640  -13.4610   45.2600  C 0  0  0  2  0  3
    7.5580  -12.1870   45.7130  C 0  0  0  1  0  3
    7.7810  -11.1000   44.8860  O 0  0  0  2  0  2
    3.7020  -15.1880   47.0720  N 0  0  0  1  0  3
    2.8250  -15.4710   45.9290  C 0  0  0  2  0  4
    3.3670  -15.0530   44.5550  C 0  0  0  1  0  3
    2.6560  -15.1950   43.5560  O 0  0  0  1  0  1
    1.5370  -14.7090   46.2730  C 0  0  0  3  0  4
    1.9870  -13.5690   47.1300  C 0  0  0  3  0  4
    3.3070  -13.9530   47.7790  C 0  0  0  3  0  4
    4.6020  -14.5570   44.5110  N 0  0  0  2  0  3
    5.2420  -14.1340   43.2690  C 0  0  0  3  0  4
    5.7950  -15.3120   42.4940  C 0  0  0  1  0  3
    5.8000  -16.4360   43.0050  O 0  0  0  1  0  1
    6.2370  -15.0670   41.2580  N 0  0  0  2  0  3
    6.7170  -16.1430   40.3820  C 0  0  0  2  0  4
    8.2140  -16.3830   40.5980  C 0  0  0  1  0  3
    9.0680  -15.6570   40.0640  O 0  0  0  1  0  1
    6.4270  -15.8390   38.9050  C 0  0  0  3  0  4
    6.9040  -16.9190   37.9230  C 0  0  0  3  0  4
    7.0470  -16.3910   36.4980  C 0  0  0  1  0  3
    6.8890  -15.1920   36.2510  O 0  0  0  1  0  1
    7.3910  -17.2650   35.5790  N 0  0  0  3  0  3
    8.5010  -17.4000   41.4140  N 0  0  0  2  0  3
    9.8660  -17.7830   41.7760  C 0  0  0  2  0  4
   10.0560  -19.2620   41.4370  C 0  5  0  1  0  3
    9.0850  -20.0250   41.3520  O 0  0  0  1  0  1
   10.1430  -17.5180   43.2960  C 0  0  0  2  0  4
   11.5200  -18.0130   43.7210  C 0  0  0  4  0  4
   10.0320  -16.0460   43.6100  C 0  0  0  4  0  4
   11.1760  -19.7310   41.2330  O 0  0  0  1  0  1
    7.4133  -21.1836   56.3857  H 0  0  0  1  0  1
    8.4046  -20.4845   57.4984  H 0  0  0  1  0  1
    7.0606  -18.7551   57.4239  H 0  0  0  1  0  1
    8.9358  -17.7212   56.3830  H 0  0  0  1  0  1
    7.7505  -17.5452   55.0449  H 0  0  0  1  0  1
   10.1103  -18.7994   54.6775  H 0  0  0  1  0  1
    8.6114  -19.3643   53.8646  H 0  0  0  1  0  1
    9.0491  -21.3640   54.9375  H 0  0  0  1  0  1
   10.1270  -20.5863   56.1458  H 0  0  0  1  0  1
    5.2591  -17.6425   56.4441  H 0  0  0  1  0  1
    3.4191  -19.1756   54.8503  H 0  0  0  1  0  1
    2.1516  -17.0492   54.6796  H 0  0  0  1  0  1
    3.5544  -16.1560   55.3585  H 0  0  0  1  0  1
    2.6807  -17.3576   56.3682  H 0  0  0  1  0  1
    3.0946  -19.1794   52.6540  H 0  0  0  1  0  1
    3.7867  -19.2680   50.4781  H 0  0  0  1  0  1
    5.4428  -18.9719   51.1075  H 0  0  0  1  0  1
    6.0012  -17.8012   49.2879  H 0  0  0  1  0  1
    5.0397  -14.9814   49.2192  H 0  0  0  1  0  1
    7.2974  -16.4713   47.7855  H 0  0  0  1  0  1
    7.4717  -15.4094   49.2238  H 0  0  0  1  0  1
    6.4426  -12.9359   48.8257  H 0  0  0  1  0  1
    7.8514  -15.5531   45.7332  H 0  0  0  1  0  1
    6.7919  -10.9904   47.3415  H 0  0  0  1  0  1
    8.2793  -13.6051   44.2691  H 0  0  0  1  0  1
    7.5234  -10.3036   45.3353  H 0  0  0  1  0  1
    2.6232  -16.5516   45.8908  H 0  0  0  1  0  1
    0.8388  -15.3563   46.8240  H 0  0  0  1  0  1
    1.0498  -14.3383   45.3591  H 0  0  0  1  0  1
    1.2349  -13.3681   47.9071  H 0  0  0  1  0  1
    2.1242  -12.6699   46.5113  H 0  0  0  1  0  1
    4.0583  -13.1624   47.6361  H 0  0  0  1  0  1
    3.1742  -14.1426   48.8544  H 0  0  0  1  0  1
    5.1133  -14.4705   45.3660  H 0  0  0  1  0  1
    6.0665  -13.4466   43.5090  H 0  0  0  1  0  1
    4.5005  -13.6135   42.6452  H 0  0  0  1  0  1
    6.2412  -14.1258   40.9201  H 0  0  0  1  0  1
    6.1797  -17.0645   40.6505  H 0  0  0  1  0  1
    6.9268  -14.8943   38.6448  H 0  0  0  1  0  1
    5.3396  -15.7235   38.7858  H 0  0  0  1  0  1
    6.1746  -17.7424   37.9226  H 0  0  0  1  0  1
    7.8814  -17.2950   38.2596  H 0  0  0  1  0  1
    7.4992  -16.9745   34.6283  H 0  0  0  1  0  1
    7.5446  -18.2206   35.8304  H 0  0  0  1  0  1
    7.7433  -17.9277   41.7979  H 0  0  0  1  0  1
   10.5743  -17.1854   41.1834  H 0  0  0  1  0  1
    9.3845  -18.0600   43.8798  H 0  0  0  1  0  1
   11.6696  -17.8066   44.7910  H 0  0  0  1  0  1
   12.2931  -17.4936   43.1358  H 0  0  0  1  0  1
   11.5913  -19.0962   43.5431  H 0  0  0  1  0  1
    9.0401  -15.6801   43.3062  H 0  0  0  1  0  1
   10.8100  -15.4944   43.0619  H 0  0  0  1  0  1
   10.1648  -15.8906   44.6908  H 0  0  0  1  0  1
  1  2  1  0  0  1
  1  7  1  0  0  1
  2  3  1  0  0  2
  2  5  1  0  0  1
  3  4  2  0  0  2
  3  8  1  0  0  2
  5  6  1  0  0  1
  6  7  1  0  0  1
  8  9  1  0  0  2
  9 10  1  0  0  2
  9 12  1  0  0  2
 10 11  2  0  0  2
 10 13  1  0  0  2
 13 14  1  0  0  2
 14 15  1  0  0  2
 15 16  2  0  0  2
 15 17  1  0  0  2
 17 18  1  0  0  2
 18 19  1  0  0  2
 18 21  1  0  0  2
 19 20  2  0  0  2
 19 29  1  0  0  2
 21 22  1  0  0  2
 22 23  4  0  0  1
 22 24  4  0  0  1
 23 25  4  0  0  1
 24 26  4  0  0  1
 25 27  4  0  0  1
 26 27  4  0  0  1
 27 28  1  0  0  2
 29 30  1  0  0  1
 29 35  1  0  0  1
 30 31  1  0  0  2
 30 33  1  0  0  1
 31 32  2  0  0  2
 31 36  1  0  0  2
 33 34  1  0  0  1
 34 35  1  0  0  1
 36 37  1  0  0  2
 37 38  1  0  0  2
 38 39  2  0  0  2
 38 40  1  0  0  2
 40 41  1  0  0  2
 41 42  1  0  0  2
 41 44  1  0  0  2
 42 43  2  0  0  2
 42 49  1  0  0  2
 44 45  1  0  0  2
 45 46  1  0  0  2
 46 47  2  0  0  2
 46 48  1  0  0  2
 49 50  1  0  0  2
 50 51  1  0  0  2
 50 53  1  0  0  2
 51 52  2  0  0  2
 51 56  2  0  0  2
 53 54  1  0  0  2
 53 55  1  0  0  2
  1 57  1  0  0  2
  1 58  1  0  0  2
  2 59  1  0  0  2
  5 60  1  0  0  2
  5 61  1  0  0  2
  6 62  1  0  0  2
  6 63  1  0  0  2
  7 64  1  0  0  2
  7 65  1  0  0  2
  8 66  1  0  0  2
  9 67  1  0  0  2
 12 68  1  0  0  2
 12 69  1  0  0  2
 12 70  1  0  0  2
 13 71  1  0  0  2
 14 72  1  0  0  2
 14 73  1  0  0  2
 17 74  1  0  0  2
 18 75  1  0  0  2
 21 76  1  0  0  2
 21 77  1  0  0  2
 23 78  1  0  0  2
 24 79  1  0  0  2
 25 80  1  0  0  2
 26 81  1  0  0  2
 28 82  1  0  0  2
 30 83  1  0  0  2
 33 84  1  0  0  2
 33 85  1  0  0  2
 34 86  1  0  0  2
 34 87  1  0  0  2
 35 88  1  0  0  2
 35 89  1  0  0  2
 36 90  1  0  0  2
 37 91  1  0  0  2
 37 92  1  0  0  2
 40 93  1  0  0  2
 41 94  1  0  0  2
 44 95  1  0  0  2
 44 96  1  0  0  2
 45 97  1  0  0  2
 45 98  1  0  0  2
 48 99  1  0  0  2
 48100  1  0  0  2
 49101  1  0  0  2
 50102  1  0  0  2
 53103  1  0  0  2
 54104  1  0  0  2
 54105  1  0  0  2
 54106  1  0  0  2
 55107  1  0  0  2
 55108  1  0  0  2
 55109  1  0  0  2
M  END
> <MOLECULAR_FORMULA>
C36H53N9O11

> <MOLECULAR_WEIGHT>
787.5

> <NUM_HB_ATOMS>
19 

> <NUM_ROTOR>
19 

> <XLOGP2>
-2.96

$$$$
