REMARK  11 active torsions:
REMARK  status: ('A' for Active; 'I' for Inactive)
REMARK    1  A    between atoms: C2_2  and  NA2_3 
REMARK    2  A    between atoms: N5_8  and  C5A_33 
REMARK    3  A    between atoms: C9_13  and  C6_9 
REMARK    4  A    between atoms: N10_14  and  C9_13 
REMARK    5  A    between atoms: C14_18  and  N10_14 
REMARK    6  A    between atoms: C11_15  and  C_21 
REMARK       I    between atoms: C_21  and  N_23 
REMARK    7  A    between atoms: N_23  and  CA_24 
REMARK    8  A    between atoms: CA_24  and  CB_25 
REMARK    9  A    between atoms: CA_24  and  CT_30 
REMARK   10  A    between atoms: CB_25  and  CG_26 
REMARK   11  A    between atoms: CG_26  and  CD_27 
ROOT
ATOM      1  N10 FFO d          12.957  83.205  47.550  0.00  0.00    -0.388 N 
ATOM      2  H8  FFO d          13.092  83.989  48.204  0.00  0.00     0.159 HD
ENDROOT
BRANCH   1   3
ATOM      3  C9  FFO d          12.937  83.539  46.079  0.00  0.00     0.151 C 
BRANCH   3   4
ATOM      4  C6  FFO d          12.614  85.035  45.911  0.00  0.00     0.151 C 
ATOM      5  N5  FFO d          11.294  85.397  46.367  0.00  0.00    -0.306 N 
ATOM      6  C4A FFO d          10.247  84.729  45.584  0.00  0.00     0.155 A 
ATOM      7  C4  FFO d           8.954  84.294  46.160  0.00  0.00     0.314 A 
ATOM      8  C8A FFO d          10.463  84.449  44.233  0.00  0.00     0.175 A 
ATOM      9  N3  FFO d           8.088  83.673  45.275  0.00  0.00    -0.021 NA
ATOM     10  O4  FFO d           8.649  84.485  47.381  0.00  0.00    -0.263 OA
ATOM     11  C2  FFO d           8.306  83.410  43.914  0.00  0.00     0.703 A 
ATOM     12  N1  FFO d           9.501  83.817  43.452  0.00  0.00    -0.171 N 
ATOM     13  H1  FFO d           9.717  83.651  42.459  0.00  0.00     0.186 HD
ATOM     14  N8  FFO d          11.727  84.620  43.649  0.00  0.00    -0.242 NA
ATOM     15  C7  FFO d          12.635  85.270  44.438  0.00  0.00     0.119 C 
BRANCH   5  16
ATOM     16  C5A FFO d          10.936  86.394  47.191  0.00  0.00     0.356 C 
ATOM     17  O5B FFO d          11.834  86.946  47.869  0.00  0.00    -0.283 OA
ENDBRANCH   5  16
BRANCH  11  18
ATOM     18  NA2 FFO d           7.300  82.809  43.320  0.00  0.00    -0.233 N 
ATOM     19  H2  FFO d           6.452  82.575  43.855  0.00  0.00     0.174 HD
ATOM     20  H3  FFO d           7.360  82.572  42.319  0.00  0.00     0.174 HD
ENDBRANCH  11  18
ENDBRANCH   3   4
ENDBRANCH   1   3
BRANCH   1  21
ATOM     21  C14 FFO d          12.810  81.933  48.109  0.00  0.00     0.028 A 
ATOM     22  C13 FFO d          13.615  81.763  49.301  0.00  0.00     0.030 A 
ATOM     23  C12 FFO d          13.526  80.535  49.922  0.00  0.00     0.019 A 
ATOM     24  C11 FFO d          12.667  79.526  49.369  0.00  0.00     0.032 A 
ATOM     25  C16 FFO d          11.931  79.782  48.221  0.00  0.00     0.019 A 
ATOM     26  C15 FFO d          11.978  81.022  47.540  0.00  0.00     0.030 A 
BRANCH  24  27
ATOM     27  C   FFO d          12.536  78.200  49.974  0.00  0.00     0.252 C 
ATOM     28  O   FFO d          11.459  77.616  49.851  0.00  0.00    -0.268 OA
ATOM     29  N   FFO d          13.538  77.637  50.634  0.00  0.00    -0.342 N 
ATOM     30  H13 FFO d          14.436  78.076  50.604  0.00  0.00     0.163 HD
BRANCH  29  31
ATOM     31  CA  FFO d          13.387  76.381  51.418  0.00  0.00     0.186 C 
BRANCH  31  32
ATOM     32  CB  FFO d          13.972  75.203  50.570  0.00  0.00     0.046 C 
BRANCH  32  33
ATOM     33  CG  FFO d          15.339  75.561  49.715  0.00  0.00     0.116 C 
BRANCH  33  34
ATOM     34  CD  FFO d          16.093  74.543  48.803  0.00  0.00     0.172 C 
ATOM     35  OE1 FFO d          15.643  74.450  47.662  0.00  0.00    -0.648 OA
ATOM     36  OE2 FFO d          17.121  73.855  49.288  0.00  0.00    -0.648 OA
ENDBRANCH  33  34
ENDBRANCH  32  33
ENDBRANCH  31  32
BRANCH  31  37
ATOM     37  CT  FFO d          14.205  76.483  52.659  0.00  0.00     0.196 C 
ATOM     38  O1  FFO d          14.953  77.444  52.843  0.00  0.00    -0.646 OA
ATOM     39  O2  FFO d          14.118  75.575  53.516  0.00  0.00    -0.646 OA
ENDBRANCH  31  37
ENDBRANCH  29  31
ENDBRANCH  24  27
ENDBRANCH   1  21
TORSDOF 11
