REMARK  4 active torsions:
REMARK  status: ('A' for Active; 'I' for Inactive)
REMARK    1  A    between atoms: C1_1  and  C2_2 
REMARK       I    between atoms: C1_1  and  N2_3 
REMARK    2  A    between atoms: C2_2  and  O1P_6 
REMARK    3  A    between atoms: N2_3  and  O2_4 
REMARK    4  A    between atoms: O1P_6  and  P_10 
ROOT
ATOM      1  C1  PGH d          23.511  30.218  18.480  0.00  0.00     0.265 C 
ATOM      2  N2  PGH d          23.111  30.147  17.226  0.00  0.00    -0.236 N 
ATOM      3  O1  PGH d          23.065  29.538  19.396  0.00  0.00    -0.269 OA
ATOM      4  H3  PGH d          23.568  30.693  16.524  0.00  0.00     0.197 HD
ENDROOT
BRANCH   1   5
ATOM      5  C2  PGH d          24.693  31.173  18.666  0.00  0.00     0.287 C 
BRANCH   5   6
ATOM      6  O1P PGH d          24.571  32.002  19.820  0.00  0.00    -0.273 OA
BRANCH   6   7
ATOM      7  P   PGH d          25.828  32.941  20.153  0.00  0.00     0.422 P 
ATOM      8  O4P PGH d          26.907  32.141  20.813  0.00  0.00    -0.617 OA
ATOM      9  O3P PGH d          26.222  33.585  18.823  0.00  0.00    -0.617 OA
ATOM     10  O2P PGH d          25.288  34.030  21.085  0.00  0.00    -0.617 OA
ENDBRANCH   6   7
ENDBRANCH   5   6
ENDBRANCH   1   5
BRANCH   2  11
ATOM     11  O2  PGH d          22.064  29.322  16.883  0.00  0.00    -0.287 OA
ATOM     12  H4  PGH d          21.904  29.387  15.949  0.00  0.00     0.244 HD
ENDBRANCH   2  11
TORSDOF 4
