REMARK  2 active torsions:
REMARK  status: ('A' for Active; 'I' for Inactive)
REMARK    1  A    between atoms: C15_15  and  C17_16 
REMARK    2  A    between atoms: C11_22  and  N_23 
ROOT
ATOM      1  O1  MOL d          -1.275 -10.917 -26.350  0.00  0.00    -0.268 OA
ATOM      2  C22 MOL d          -0.833 -11.324 -25.281  0.00  0.00     0.252 C 
ATOM      3  N1  MOL d          -1.572 -12.163 -24.525  0.00  0.00    -0.357 N 
ATOM      4  C23 MOL d          -1.112 -12.833 -23.294  0.00  0.00     0.127 C 
ATOM      5  C24 MOL d           0.337 -13.216 -23.509  0.00  0.00     0.059 C 
ATOM      6  C13 MOL d           1.146 -12.039 -24.002  0.00  0.00    -0.038 A 
ATOM      7  C12 MOL d           2.483 -11.936 -23.629  0.00  0.00     0.038 A 
ATOM      8  C14 MOL d           0.552 -11.014 -24.799  0.00  0.00     0.045 A 
ATOM      9  C15 MOL d           1.310  -9.857 -25.143  0.00  0.00    -0.035 A 
ATOM     10  C16 MOL d           2.658  -9.796 -24.764  0.00  0.00     0.038 A 
ATOM     11  C11 MOL d           3.239 -10.834 -24.032  0.00  0.00     0.040 A 
ATOM     12  H   MOL d          -2.509 -12.345 -24.824  0.00  0.00     0.162 HD
ENDROOT
BRANCH  11  13
ATOM     13  N   MOL d           4.652 -10.789 -23.733  0.00  0.00    -0.324 N 
ATOM     14  C2  MOL d           5.335  -9.657 -23.329  0.00  0.00     0.105 A 
ATOM     15  C1  MOL d           6.679  -9.874 -23.370  0.00  0.00    -0.030 A 
ATOM     16  C4  MOL d           6.866 -11.228 -23.817  0.00  0.00     0.040 A 
ATOM     17  C   MOL d           7.727  -8.846 -23.031  0.00  0.00     0.050 C 
ATOM     18  C3  MOL d           5.609 -11.756 -24.046  0.00  0.00     0.031 A 
ATOM     19  C5  MOL d           8.049 -12.092 -24.049  0.00  0.00     0.162 C 
ATOM     20  C8  MOL d           5.355 -13.129 -24.595  0.00  0.00     0.067 C 
ATOM     21  C7  MOL d           6.548 -13.757 -25.329  0.00  0.00    -0.036 C 
ATOM     22  C6  MOL d           7.819 -13.516 -24.500  0.00  0.00     0.093 C 
ATOM     23  C10 MOL d           6.311 -15.257 -25.487  0.00  0.00     0.015 C 
ATOM     24  C9  MOL d           6.700 -13.134 -26.721  0.00  0.00     0.015 C 
ATOM     25  O   MOL d           9.194 -11.680 -23.909  0.00  0.00    -0.292 OA
ENDBRANCH  11  13
BRANCH   9  26
ATOM     26  C17 MOL d           0.677  -8.659 -25.839  0.00  0.00     0.019 C 
ATOM     27  C21 MOL d           1.107  -8.397 -27.298  0.00  0.00     0.009 C 
ATOM     28  C20 MOL d           0.643  -6.967 -27.589  0.00  0.00     0.001 C 
ATOM     29  C19 MOL d           0.405  -6.293 -26.250  0.00  0.00     0.001 C 
ATOM     30  C18 MOL d           0.890  -7.263 -25.196  0.00  0.00     0.009 C 
ENDBRANCH   9  26
TORSDOF 2
