REMARK  5 active torsions:
REMARK  status: ('A' for Active; 'I' for Inactive)
REMARK    1  A    between atoms: C3_3  and  O3_10 
REMARK    2  A    between atoms: C4_4  and  O4_12 
REMARK    3  A    between atoms: C5_5  and  C6_6 
REMARK    4  A    between atoms: C6_6  and  O6_14 
REMARK    5  A    between atoms: C2_13  and  O2_11 
ROOT
ATOM      1  C1  MVL d          44.139  24.440 100.917  0.00  0.00     0.138 A 
ATOM      2  N10 MVL d          43.961  23.213 100.438  0.00  0.00    -0.332 N 
ATOM      3  C3  MVL d          44.942  23.590 103.126  0.00  0.00     0.185 C 
ATOM      4  C4  MVL d          44.301  22.260 102.643  0.00  0.00     0.175 C 
ATOM      5  C5  MVL d          44.446  21.995 101.134  0.00  0.00     0.145 C 
ATOM      6  C7  MVL d          42.897  24.614  99.141  0.00  0.00     0.136 A 
ATOM      7  C8  MVL d          43.167  23.284  99.362  0.00  0.00     0.112 A 
ATOM      8  N1  MVL d          43.510  25.317 100.118  0.00  0.00    -0.243 NA
ATOM      9  C2  MVL d          44.962  24.745 102.115  0.00  0.00     0.219 C 
ENDROOT
BRANCH   5  10
ATOM     10  C6  MVL d          43.628  20.763 100.708  0.00  0.00     0.192 C 
BRANCH  10  11
ATOM     11  O6  MVL d          42.272  20.824 101.189  0.00  0.00    -0.399 OA
ATOM     12  H12 MVL d          41.802  20.049 100.906  0.00  0.00     0.209 HD
ENDBRANCH  10  11
ENDBRANCH   5  10
BRANCH   4  13
ATOM     13  O4  MVL d          44.853  21.148 103.370  0.00  0.00    -0.391 OA
ATOM     14  H10 MVL d          44.766  21.306 104.303  0.00  0.00     0.210 HD
ENDBRANCH   4  13
BRANCH   3  15
ATOM     15  O3  MVL d          44.236  24.074 104.265  0.00  0.00    -0.390 OA
ATOM     16  H8  MVL d          44.630  24.887 104.558  0.00  0.00     0.210 HD
ENDBRANCH   3  15
BRANCH   9  17
ATOM     17  O2  MVL d          44.474  25.953 102.715  0.00  0.00    -0.385 OA
ATOM     18  H9  MVL d          43.581  25.820 103.012  0.00  0.00     0.210 HD
ENDBRANCH   9  17
TORSDOF 5
