REMARK  4 active torsions:
REMARK  status: ('A' for Active; 'I' for Inactive)
REMARK    1  A    between atoms: CA_1  and  P_7 
REMARK    2  A    between atoms: CA_1  and  N_6 
REMARK    3  A    between atoms: CA_1  and  CB_2 
REMARK    4  A    between atoms: CB_2  and  CG_3 
ROOT
ATOM      1  CA  PLU d          -1.791  58.983  45.225  0.00  0.00     0.312 C 
ENDROOT
BRANCH   1   2
ATOM      2  P   PLU d          -0.188  59.783  45.511  0.00  0.00     0.290 P 
ATOM      3  O3  PLU d           0.768  59.349  44.388  0.00  0.00    -0.638 OA
ATOM      4  O2  PLU d          -0.354  61.336  45.500  0.00  0.00    -0.638 OA
ATOM      5  O1  PLU d           0.277  59.325  46.912  0.00  0.00    -0.638 OA
ENDBRANCH   1   2
BRANCH   1   6
ATOM      6  N   PLU d          -2.647  59.293  46.366  0.00  0.00    -0.062 N 
ATOM      7  H11 PLU d          -3.549  58.861  46.237  0.00  0.00     0.275 HD
ATOM      8  H12 PLU d          -2.760  60.292  46.439  0.00  0.00     0.275 HD
ATOM      9  H13 PLU d          -2.223  58.940  47.210  0.00  0.00     0.275 HD
ENDBRANCH   1   6
BRANCH   1  10
ATOM     10  CB  PLU d          -2.433  59.542  43.946  0.00  0.00     0.051 C 
BRANCH  10  11
ATOM     11  CG  PLU d          -3.883  59.074  43.613  0.00  0.00    -0.020 C 
ATOM     12  CD2 PLU d          -4.396  59.690  42.299  0.00  0.00     0.009 C 
ATOM     13  CD1 PLU d          -4.027  57.557  43.548  0.00  0.00     0.009 C 
ENDBRANCH  10  11
ENDBRANCH   1  10
TORSDOF 4
