REMARK  4 active torsions:
REMARK  status: ('A' for Active; 'I' for Inactive)
REMARK    1  A    between atoms: C1_1  and  C7_7 
REMARK    2  A    between atoms: C7_7  and  N1_8 
REMARK    3  A    between atoms: C8_12  and  C1'_13 
REMARK    4  A    between atoms: C6'_19  and  O6'_20 
ROOT
ATOM      1  C1  MOL d          44.302  -2.861  26.663  0.00  0.00     0.009 A 
ATOM      2  C2  MOL d          44.786  -1.524  26.637  0.00  0.00     0.017 A 
ATOM      3  C3  MOL d          44.788  -0.741  27.796  0.00  0.00     0.033 A 
ATOM      4  C4  MOL d          44.312  -1.293  28.967  0.00  0.00     0.062 A 
ATOM      5  C5  MOL d          43.769  -2.526  29.009  0.00  0.00     0.086 A 
ATOM      6  C6  MOL d          43.758  -3.351  27.863  0.00  0.00     0.049 A 
ATOM      7  N3  MOL d          44.181  -0.783  30.153  0.00  0.00    -0.338 N 
ATOM      8  N4  MOL d          43.378  -2.840  30.231  0.00  0.00    -0.228 NA
ATOM      9  C8  MOL d          43.625  -1.709  30.887  0.00  0.00     0.142 A 
ATOM     10  H8  MOL d          44.459   0.162  30.455  0.00  0.00     0.167 HD
ENDROOT
BRANCH   9  11
ATOM     11  C1' MOL d          43.344  -1.526  32.239  0.00  0.00     0.046 A 
ATOM     12  C2' MOL d          42.984  -2.594  33.067  0.00  0.00     0.060 A 
ATOM     13  C3' MOL d          42.692  -2.363  34.407  0.00  0.00     0.117 A 
ATOM     14  F3' MOL d          42.325  -3.391  35.251  0.00  0.00    -0.206 F 
ATOM     15  C4' MOL d          42.742  -1.077  34.914  0.00  0.00     0.045 A 
ATOM     16  C5' MOL d          43.070  -0.001  34.086  0.00  0.00     0.040 A 
ATOM     17  C6' MOL d          43.378  -0.231  32.764  0.00  0.00     0.079 A 
BRANCH  17  18
ATOM     18  O6' MOL d          43.707   0.832  31.957  0.00  0.00    -0.360 OA
ATOM     19  H12 MOL d          43.892   0.517  31.080  0.00  0.00     0.217 HD
ENDBRANCH  17  18
ENDBRANCH   9  11
BRANCH   1  20
ATOM     20  C7  MOL d          44.311  -3.616  25.479  0.00  0.00     0.102 C 
ATOM     21  N2  MOL d          44.553  -3.078  24.305  0.00  0.00    -0.385 N 
ATOM     22  H6  MOL d          44.703  -2.062  24.225  0.00  0.00     0.157 HD
ATOM     23  H7  MOL d          44.593  -3.672  23.465  0.00  0.00     0.157 HD
BRANCH  20  24
ATOM     24  N1  MOL d          44.131  -4.904  25.511  0.00  0.00    -0.385 N 
ATOM     25  H4  MOL d          44.140  -5.447  24.636  0.00  0.00     0.157 HD
ATOM     26  H5  MOL d          43.980  -5.381  26.412  0.00  0.00     0.157 HD
ENDBRANCH  20  24
ENDBRANCH   1  20
TORSDOF 4
