REMARK  3 active torsions:
REMARK  status: ('A' for Active; 'I' for Inactive)
REMARK    1  A    between atoms: C7_9  and  S16_11 
REMARK    2  A    between atoms: S16_11  and  C8_12 
REMARK    3  A    between atoms: C8_12  and  C9_13 
ROOT
ATOM      1  O17 MOL d         -25.623 -15.088  11.403  0.00  0.00    -0.268 OA
ATOM      2  C6  MOL d         -24.832 -14.466  12.103  0.00  0.00     0.255 A 
ATOM      3  C5  MOL d         -25.172 -14.045  13.318  0.00  0.00     0.035 A 
ATOM      4  C4  MOL d         -24.295 -13.363  14.071  0.00  0.00     0.049 A 
ATOM      5  C2  MOL d         -24.870 -13.031  15.293  0.00  0.00     0.060 C 
ATOM      6  C3  MOL d         -26.374 -14.203  13.997  0.00  0.00     0.046 C 
ATOM      7  C1  MOL d         -26.341 -13.149  15.055  0.00  0.00     0.011 C 
ATOM      8  N19 MOL d         -23.565 -14.200  11.613  0.00  0.00    -0.302 N 
ATOM      9  C7  MOL d         -22.677 -13.491  12.401  0.00  0.00     0.169 A 
ATOM     10  N18 MOL d         -23.062 -13.092  13.613  0.00  0.00    -0.228 NA
ATOM     11  H   MOL d         -23.296 -14.516  10.703  0.00  0.00     0.171 HD
ENDROOT
BRANCH   9  12
ATOM     12  S16 MOL d         -21.090 -13.165  11.765  0.00  0.00    -0.087 SA
BRANCH  12  13
ATOM     13  C8  MOL d         -20.586 -11.577  12.518  0.00  0.00     0.121 C 
BRANCH  13  14
ATOM     14  C9  MOL d         -19.411 -11.071  11.949  0.00  0.00    -0.049 A 
ATOM     15  C11 MOL d         -19.469 -10.276  10.814  0.00  0.00     0.008 A 
ATOM     16  C13 MOL d         -18.307  -9.772  10.246  0.00  0.00     0.007 A 
ATOM     17  C14 MOL d         -17.076 -10.066  10.813  0.00  0.00    -0.062 A 
ATOM     18  C15 MOL d         -15.910  -9.565  10.250  0.00  0.00     0.048 C 
ATOM     19  C12 MOL d         -17.014 -10.864  11.948  0.00  0.00     0.007 A 
ATOM     20  C10 MOL d         -18.178 -11.364  12.514  0.00  0.00     0.008 A 
ENDBRANCH  13  14
ENDBRANCH  12  13
ENDBRANCH   9  12
TORSDOF 3
