REMARK  7 active torsions:
REMARK  status: ('A' for Active; 'I' for Inactive)
REMARK    1  A    between atoms: O2_1  and  C2_2 
REMARK    2  A    between atoms: C3_3  and  O3_4 
REMARK    3  A    between atoms: C4_5  and  O4_6 
REMARK    4  A    between atoms: C5_7  and  C7_8 
REMARK    5  A    between atoms: C7_8  and  O7_9 
REMARK    6  A    between atoms: C1_11  and  C6_12 
REMARK    7  A    between atoms: C6_12  and  O6_13 
ROOT
ATOM      1  C2  FHN d         -27.033   2.163  28.814  0.00  0.00     0.182 C 
ATOM      2  C3  FHN d         -25.663   1.741  28.299  0.00  0.00     0.179 C 
ATOM      3  C4  FHN d         -24.919   2.961  27.818  0.00  0.00     0.182 C 
ATOM      4  C5  FHN d         -25.737   3.609  26.715  0.00  0.00     0.240 C 
ATOM      5  N   FHN d         -27.120   3.978  27.127  0.00  0.00    -0.058 N 
ATOM      6  C1  FHN d         -27.845   2.827  27.729  0.00  0.00     0.240 C 
ATOM      7  H11 FHN d         -27.628   4.295  26.316  0.00  0.00     0.278 HD
ATOM      8  H12 FHN d         -27.070   4.722  27.805  0.00  0.00     0.278 HD
ENDROOT
BRANCH   4   9
ATOM      9  C7  FHN d         -25.064   4.900  26.262  0.00  0.00     0.199 C 
BRANCH   9  10
ATOM     10  O7  FHN d         -25.868   5.451  25.236  0.00  0.00    -0.399 OA
ATOM     11  H10 FHN d         -25.477   6.260  24.929  0.00  0.00     0.209 HD
ENDBRANCH   9  10
ENDBRANCH   4   9
BRANCH   3  12
ATOM     12  O4  FHN d         -24.717   3.899  28.896  0.00  0.00    -0.391 OA
ATOM     13  H6  FHN d         -24.211   3.484  29.585  0.00  0.00     0.210 HD
ENDBRANCH   3  12
BRANCH   2  14
ATOM     14  O3  FHN d         -24.966   1.129  29.378  0.00  0.00    -0.390 OA
ATOM     15  H4  FHN d         -25.454   0.372  29.680  0.00  0.00     0.210 HD
ENDBRANCH   2  14
BRANCH   6  16
ATOM     16  C6  FHN d         -28.296   1.811  26.653  0.00  0.00     0.199 C 
BRANCH  16  17
ATOM     17  O6  FHN d         -29.025   2.548  25.668  0.00  0.00    -0.399 OA
ATOM     18  H16 FHN d         -29.321   1.956  24.986  0.00  0.00     0.209 HD
ENDBRANCH  16  17
ENDBRANCH   6  16
BRANCH   1  19
ATOM     19  O2  FHN d         -27.729   0.992  29.309  0.00  0.00    -0.391 OA
ATOM     20  H1  FHN d         -27.227   0.601  30.014  0.00  0.00     0.210 HD
ENDBRANCH   1  19
TORSDOF 7
