REMARK  2 active torsions:
REMARK  status: ('A' for Active; 'I' for Inactive)
REMARK    1  A    between atoms: C6_6  and  N7_7 
REMARK    2  A    between atoms: C8_8  and  N9_9 
ROOT
ATOM      1  C1  MOL d           5.233 -30.328 -34.794  0.00  0.00     0.051 C 
ATOM      2  C2  MOL d           4.613 -28.948 -34.886  0.00  0.00    -0.024 A 
ATOM      3  C3  MOL d           4.458 -28.401 -36.157  0.00  0.00     0.028 A 
ATOM      4  C4  MOL d           3.893 -27.138 -36.293  0.00  0.00     0.119 A 
ATOM      5  N5  MOL d           3.492 -26.449 -35.197  0.00  0.00    -0.241 NA
ATOM      6  C6  MOL d           3.619 -26.948 -33.951  0.00  0.00     0.154 A 
ATOM      7  C8  MOL d           4.178 -28.224 -33.757  0.00  0.00     0.154 A 
ENDROOT
BRANCH   6   8
ATOM      8  N7  MOL d           3.176 -26.222 -32.909  0.00  0.00    -0.382 N 
ATOM      9  H   MOL d           3.265 -26.589 -31.951  0.00  0.00     0.157 HD
ATOM     10  H   MOL d           2.747 -25.299 -33.069  0.00  0.00     0.157 HD
ENDBRANCH   6   8
BRANCH   7  11
ATOM     11  N9  MOL d           4.317 -28.711 -32.500  0.00  0.00    -0.111 N 
ATOM     12  O10 MOL d           5.249 -29.471 -32.260  0.00  0.00    -0.532 OA
ATOM     13  O11 MOL d           3.582 -28.393 -31.570  0.00  0.00    -0.532 OA
ENDBRANCH   7  11
TORSDOF 2
