REMARK  32 active torsions:
REMARK  status: ('A' for Active; 'I' for Inactive)
REMARK    1  A    between atoms: N_1  and  CA_2 
REMARK    2  A    between atoms: CA_2  and  CB_3 
REMARK    3  A    between atoms: CA_2  and  C_6 
REMARK       I    between atoms: C_6  and  N_8 
REMARK    4  A    between atoms: CA_9  and  C_13 
REMARK       I    between atoms: C_13  and  N_15 
REMARK    5  A    between atoms: N_15  and  CA_16 
REMARK    6  A    between atoms: CA_16  and  C_17 
REMARK       I    between atoms: C_17  and  N_19 
REMARK    7  A    between atoms: N_19  and  CA_20 
REMARK    8  A    between atoms: CA_20  and  C_21 
REMARK    9  A    between atoms: CA_20  and  CB_23 
REMARK       I    between atoms: C_21  and  N_25 
REMARK   10  A    between atoms: CB_23  and  OG_24 
REMARK   11  A    between atoms: N_25  and  CA_26 
REMARK   12  A    between atoms: CA_26  and  C_27 
REMARK   13  A    between atoms: CA_26  and  CB_29 
REMARK       I    between atoms: C_27  and  N_34 
REMARK   14  A    between atoms: CB_29  and  CG_30 
REMARK   15  A    between atoms: CG_30  and  CD_31 
REMARK       I    between atoms: CD_31  and  NE2_33 
REMARK   16  A    between atoms: N_34  and  CA_35 
REMARK   17  A    between atoms: CA_35  and  C_36 
REMARK   18  A    between atoms: CA_35  and  CB_38 
REMARK       I    between atoms: C_36  and  N_44 
REMARK   19  A    between atoms: CB_38  and  CG_39 
REMARK   20  A    between atoms: N_44  and  CA_45 
REMARK   21  A    between atoms: CA_45  and  C_46 
REMARK   22  A    between atoms: CA_45  and  CB_48 
REMARK       I    between atoms: C_46  and  N_56 
REMARK   23  A    between atoms: CB_48  and  CG_49 
REMARK   24  A    between atoms: CZ_54  and  OH_55 
REMARK   25  A    between atoms: N_56  and  CA_57 
REMARK   26  A    between atoms: CA_57  and  C_58 
REMARK   27  A    between atoms: CA_57  and  CB_60 
REMARK       I    between atoms: C_58  and  N_64 
REMARK   28  A    between atoms: CB_60  and  CG_61 
REMARK   29  A    between atoms: N_64  and  CA_65 
REMARK   30  A    between atoms: CA_65  and  C_66 
REMARK   31  A    between atoms: CA_65  and  CB_69 
REMARK   32  A    between atoms: CB_69  and  OG_70 
ROOT
ATOM      1  C   DVA d          43.998  55.626  86.418  0.00  0.00     0.241 C 
ATOM      2  O   DVA d          44.803  56.402  85.894  0.00  0.00    -0.271 OA
ATOM      3  N   DVA d          43.840  54.363  86.019  0.00  0.00    -0.346 N 
ATOM      4  H35 DVA d          43.191  53.776  86.504  0.00  0.00     0.163 HD
ENDROOT
BRANCH   3   5
ATOM      5  CA  DVA d          44.600  53.808  84.878  0.00  0.00     0.182 C 
BRANCH   5   6
ATOM      6  C   DVA d          45.906  53.177  85.265  0.00  0.00     0.241 C 
ATOM      7  O   DVA d          46.834  53.117  84.446  0.00  0.00    -0.271 OA
ATOM      8  N   DVA d          45.964  52.678  86.495  0.00  0.00    -0.346 N 
ATOM      9  H42 DVA d          45.205  52.828  87.128  0.00  0.00     0.163 HD
BRANCH   8  10
ATOM     10  CA  DVA d          47.131  51.911  86.929  0.00  0.00     0.180 C 
BRANCH  10  11
ATOM     11  C   DVA d          47.815  52.409  88.196  0.00  0.00     0.241 C 
ATOM     12  O   DVA d          48.925  51.970  88.510  0.00  0.00    -0.271 OA
ATOM     13  N   DVA d          47.145  53.307  88.916  0.00  0.00    -0.345 N 
ATOM     14  H51 DVA d          46.242  53.602  88.604  0.00  0.00     0.163 HD
BRANCH  13  15
ATOM     15  CA  DVA d          47.691  53.878  90.155  0.00  0.00     0.186 C 
BRANCH  15  16
ATOM     16  C   DVA d          47.910  55.389  90.103  0.00  0.00     0.241 C 
ATOM     17  O   DVA d          47.612  56.051  89.100  0.00  0.00    -0.271 OA
ATOM     18  N   DVA d          48.420  55.898  91.226  0.00  0.00    -0.343 N 
ATOM     19  H55 DVA d          48.630  55.251  91.959  0.00  0.00     0.163 HD
BRANCH  18  20
ATOM     20  CA  DVA d          48.702  57.310  91.491  0.00  0.00     0.209 C 
BRANCH  20  21
ATOM     21  C   DVA d          50.160  57.695  91.285  0.00  0.00     0.198 C 
ATOM     22  O   DVA d          50.450  58.439  90.326  0.00  0.00    -0.646 OA
ATOM     23  OXT DVA d          50.993  57.242  92.104  0.00  0.00    -0.646 OA
ENDBRANCH  20  21
BRANCH  20  24
ATOM     24  CB  DVA d          47.791  58.230  90.669  0.00  0.00     0.200 C 
BRANCH  24  25
ATOM     25  OG  DVA d          47.955  59.589  91.056  0.00  0.00    -0.398 OA
ATOM     26  H59 DVA d          48.858  59.850  90.917  0.00  0.00     0.209 HD
ENDBRANCH  24  25
ENDBRANCH  20  24
ENDBRANCH  18  20
ENDBRANCH  15  16
BRANCH  15  27
ATOM     27  CB  DVA d          46.757  53.593  91.333  0.00  0.00     0.147 C 
BRANCH  27  28
ATOM     28  CG  DVA d          46.475  52.124  91.507  0.00  0.00     0.175 C 
ATOM     29  OD1 DVA d          47.416  51.314  91.358  0.00  0.00    -0.648 OA
ATOM     30  OD2 DVA d          45.321  51.777  91.808  0.00  0.00    -0.648 OA
ENDBRANCH  27  28
ENDBRANCH  15  27
ENDBRANCH  13  15
ENDBRANCH  10  11
BRANCH  10  31
ATOM     31  CB  DVA d          46.699  50.452  87.108  0.00  0.00     0.073 C 
BRANCH  31  32
ATOM     32  CG  DVA d          45.971  49.900  85.892  0.00  0.00    -0.056 A 
ATOM     33  CD1 DVA d          46.616  49.799  84.655  0.00  0.00     0.010 A 
ATOM     34  CE1 DVA d          45.953  49.324  83.511  0.00  0.00     0.037 A 
ATOM     35  CZ  DVA d          44.604  48.935  83.623  0.00  0.00     0.065 A 
ATOM     36  CE2 DVA d          43.947  49.029  84.841  0.00  0.00     0.037 A 
ATOM     37  CD2 DVA d          44.627  49.511  85.974  0.00  0.00     0.010 A 
BRANCH  35  38
ATOM     38  OH  DVA d          43.922  48.442  82.533  0.00  0.00    -0.361 OA
ATOM     39  H50 DVA d          44.497  48.437  81.777  0.00  0.00     0.217 HD
ENDBRANCH  35  38
ENDBRANCH  31  32
ENDBRANCH  10  31
ENDBRANCH   8  10
ENDBRANCH   5   6
BRANCH   5  40
ATOM     40  CB  DVA d          43.835  52.686  84.173  0.00  0.00     0.095 C 
BRANCH  40  41
ATOM     41  CG  DVA d          42.625  53.142  83.415  0.00  0.00     0.053 A 
ATOM     42  ND1 DVA d          42.695  53.683  82.146  0.00  0.00    -0.247 NA
ATOM     43  CE1 DVA d          41.471  53.965  81.723  0.00  0.00     0.207 A 
ATOM     44  NE2 DVA d          40.611  53.629  82.677  0.00  0.00    -0.359 N 
ATOM     45  CD2 DVA d          41.312  53.114  83.745  0.00  0.00     0.116 A 
ATOM     46  H41 DVA d          39.588  53.736  82.627  0.00  0.00     0.166 HD
ENDBRANCH  40  41
ENDBRANCH   5  40
ENDBRANCH   3   5
BRANCH   1  47
ATOM     47  CA  DVA d          43.120  56.086  87.579  0.00  0.00     0.177 C 
BRANCH  47  48
ATOM     48  N   DVA d          42.539  54.943  88.264  0.00  0.00    -0.346 N 
ATOM     49  C   DVA d          43.320  54.160  88.986  0.00  0.00     0.243 C 
ATOM     50  O   DVA d          44.516  54.368  89.114  0.00  0.00    -0.271 OA
ATOM     51  H27 DVA d          41.560  54.752  88.189  0.00  0.00     0.163 HD
BRANCH  49  52
ATOM     52  CA  DVA d          42.674  52.955  89.643  0.00  0.00     0.200 C 
BRANCH  52  53
ATOM     53  N   DVA d          43.220  52.837  90.976  0.00  0.00    -0.344 N 
ATOM     54  C   DVA d          42.444  52.741  92.044  0.00  0.00     0.236 C 
ATOM     55  O   DVA d          41.214  52.740  91.986  0.00  0.00    -0.272 OA
ATOM     56  H22 DVA d          44.213  52.828  91.095  0.00  0.00     0.163 HD
BRANCH  54  57
ATOM     57  CA  DVA d          43.150  52.627  93.370  0.00  0.00     0.225 C 
BRANCH  57  58
ATOM     58  N   DVA d          42.135  52.493  94.386  0.00  0.00    -0.351 N 
ATOM     59  C   DVA d          42.324  51.718  95.445  0.00  0.00     0.241 C 
ATOM     60  O   DVA d          43.363  51.081  95.643  0.00  0.00    -0.271 OA
ATOM     61  H19 DVA d          41.274  52.993  94.290  0.00  0.00     0.163 HD
BRANCH  59  62
ATOM     62  CA  DVA d          41.158  51.675  96.430  0.00  0.00     0.179 C 
ATOM     63  N   DVA d          40.446  52.962  96.440  0.00  0.00    -0.337 N 
ATOM     64  C   DVA d          39.557  53.559  95.604  0.00  0.00     0.251 C 
ATOM     65  CD  DVA d          40.810  53.725  97.650  0.00  0.00     0.127 C 
ATOM     66  O   DVA d          39.126  54.696  95.831  0.00  0.00    -0.271 OA
ATOM     67  CG  DVA d          41.998  52.951  98.190  0.00  0.00     0.022 C 
ATOM     68  CB  DVA d          41.639  51.543  97.868  0.00  0.00     0.037 C 
BRANCH  64  69
ATOM     69  CA  DVA d          39.106  52.825  94.319  0.00  0.00     0.278 C 
BRANCH  69  70
ATOM     70  N   DVA d          37.882  53.485  93.785  0.00  0.00    -0.066 N 
ATOM     71  H1  DVA d          37.583  53.011  92.947  0.00  0.00     0.275 HD
ATOM     72  H2  DVA d          38.086  54.449  93.571  0.00  0.00     0.275 HD
ATOM     73  H3  DVA d          37.149  53.442  94.475  0.00  0.00     0.275 HD
ENDBRANCH  69  70
BRANCH  69  74
ATOM     74  CB  DVA d          38.857  51.314  94.494  0.00  0.00     0.017 C 
ATOM     75  CG1 DVA d          37.802  51.073  95.562  0.00  0.00     0.012 C 
ATOM     76  CG2 DVA d          38.396  50.730  93.156  0.00  0.00     0.012 C 
ENDBRANCH  69  74
ENDBRANCH  64  69
ENDBRANCH  59  62
ENDBRANCH  57  58
ENDBRANCH  54  57
ENDBRANCH  52  53
BRANCH  52  77
ATOM     77  CB  DVA d          43.051  51.733  88.812  0.00  0.00     0.199 C 
BRANCH  77  78
ATOM     78  OG  DVA d          42.710  51.945  87.452  0.00  0.00    -0.398 OA
ATOM     79  H26 DVA d          42.949  51.179  86.944  0.00  0.00     0.209 HD
ENDBRANCH  77  78
ENDBRANCH  52  77
ENDBRANCH  49  52
ENDBRANCH  47  48
BRANCH  47  80
ATOM     80  CB  DVA d          42.001  57.004  87.071  0.00  0.00     0.044 C 
BRANCH  80  81
ATOM     81  CG  DVA d          41.214  57.627  88.250  0.00  0.00     0.105 C 
BRANCH  81  82
ATOM     82  CD  DVA d          39.977  58.438  87.825  0.00  0.00     0.215 C 
ATOM     83  OE1 DVA d          39.245  58.979  88.674  0.00  0.00    -0.274 OA
ATOM     84  NE2 DVA d          39.750  58.531  86.531  0.00  0.00    -0.370 N 
ATOM     85  H33 DVA d          38.960  59.046  86.198  0.00  0.00     0.159 HD
ATOM     86  H34 DVA d          40.367  58.087  85.882  0.00  0.00     0.159 HD
ENDBRANCH  81  82
ENDBRANCH  80  81
ENDBRANCH  47  80
ENDBRANCH   1  47
TORSDOF 32
