REMARK  5 active torsions:
REMARK  status: ('A' for Active; 'I' for Inactive)
REMARK    1  A    between atoms: N02_2  and  C03_3 
REMARK    2  A    between atoms: C07_7  and  C08_8 
REMARK    3  A    between atoms: C10_10  and  N11_11 
REMARK    4  A    between atoms: N11_11  and  C12_12 
REMARK    5  A    between atoms: C16_16  and  N17_17 
REMARK       I    between atoms: N21_21  and  C22_22 
ROOT
ATOM      1  C08 T6Q d          -8.072  21.429 -22.608  0.00  0.00     0.117 A 
ATOM      2  N09 T6Q d          -7.506  22.271 -23.506  0.00  0.00    -0.060 NA
ATOM      3  C10 T6Q d          -8.269  22.972 -24.397  0.00  0.00     0.727 A 
ATOM      4  N28 T6Q d          -9.607  22.866 -24.400  0.00  0.00    -0.073 NA
ATOM      5  C29 T6Q d         -10.238  22.053 -23.497  0.00  0.00     0.161 A 
ATOM      6  C30 T6Q d          -9.472  21.334 -22.578  0.00  0.00     0.093 A 
ATOM      7  C31 T6Q d         -10.154  20.478 -21.602  0.00  0.00     0.103 C 
ATOM      8  N32 T6Q d         -10.691  19.812 -20.848  0.00  0.00    -0.191 NA
ENDROOT
BRANCH   1   9
ATOM      9  C07 T6Q d          -7.257  20.751 -21.658  0.00  0.00     0.063 A 
ATOM     10  C05 T6Q d          -7.284  19.435 -21.127  0.00  0.00     0.053 A 
ATOM     11  N04 T6Q d          -6.358  19.169 -20.187  0.00  0.00    -0.228 NA
ATOM     12  C06 T6Q d          -8.244  18.337 -21.556  0.00  0.00     0.072 C 
ATOM     13  C03 T6Q d          -5.520  20.183 -19.855  0.00  0.00     0.167 A 
ATOM     14  S33 T6Q d          -5.966  21.540 -20.836  0.00  0.00    -0.048 SA
BRANCH  13  15
ATOM     15  N02 T6Q d          -4.479  20.142 -18.897  0.00  0.00    -0.373 N 
ATOM     16  C01 T6Q d          -3.826  21.386 -18.508  0.00  0.00     0.148 C 
ATOM     17  H4  T6Q d          -4.187  19.246 -18.481  0.00  0.00     0.161 HD
ENDBRANCH  13  15
ENDBRANCH   1   9
BRANCH   3  18
ATOM     18  N11 T6Q d          -7.626  23.851 -25.373  0.00  0.00    -0.188 N 
ATOM     19  H8  T6Q d          -8.074  23.990 -26.290  0.00  0.00     0.184 HD
BRANCH  18  20
ATOM     20  C12 T6Q d          -6.371  24.537 -25.089  0.00  0.00     0.051 A 
ATOM     21  C13 T6Q d          -5.778  24.475 -23.818  0.00  0.00     0.030 A 
ATOM     22  C14 T6Q d          -4.575  25.140 -23.576  0.00  0.00     0.004 A 
ATOM     23  C15 T6Q d          -3.946  25.886 -24.618  0.00  0.00     0.029 A 
ATOM     24  C16 T6Q d          -4.537  25.940 -25.881  0.00  0.00     0.032 A 
ATOM     25  C27 T6Q d          -5.744  25.276 -26.119  0.00  0.00     0.059 A 
BRANCH  24  26
ATOM     26  N17 T6Q d          -3.893  26.709 -26.964  0.00  0.00    -0.379 N 
ATOM     27  C18 T6Q d          -2.613  26.089 -27.204  0.00  0.00     0.124 C 
ATOM     28  C19 T6Q d          -2.359  25.690 -28.612  0.00  0.00     0.040 C 
ATOM     29  C20 T6Q d          -3.436  24.851 -29.212  0.00  0.00     0.127 C 
ATOM     30  N21 T6Q d          -4.533  25.620 -29.694  0.00  0.00    -0.351 N 
ATOM     31  C22 T6Q d          -4.913  25.417 -31.084  0.00  0.00     0.215 C 
ATOM     32  C25 T6Q d          -5.308  26.586 -28.971  0.00  0.00     0.145 C 
ATOM     33  C23 T6Q d          -6.063  26.199 -31.678  0.00  0.00     0.117 C 
ATOM     34  O24 T6Q d          -4.298  24.612 -31.780  0.00  0.00    -0.274 OA
ATOM     35  C26 T6Q d          -4.441  27.432 -28.079  0.00  0.00     0.143 C 
ENDBRANCH  24  26
ENDBRANCH  18  20
ENDBRANCH   3  18
TORSDOF 5
