REMARK  32 active torsions:
REMARK  status: ('A' for Active; 'I' for Inactive)
REMARK    1  A    between atoms: N_1  and  CA_2 
REMARK    2  A    between atoms: CA_2  and  C_3 
REMARK       I    between atoms: C_3  and  N_6 
REMARK    3  A    between atoms: N_6  and  CA_7 
REMARK    4  A    between atoms: CA_7  and  CB_8 
REMARK    5  A    between atoms: CA_7  and  C_17 
REMARK    6  A    between atoms: CB_8  and  CG_9 
REMARK    7  A    between atoms: CG_9  and  CD_10 
REMARK    8  A    between atoms: CD_10  and  NE_11 
REMARK       I    between atoms: NE_11  and  CZ_12 
REMARK       I    between atoms: CZ_12  and  NH2_15 
REMARK       I    between atoms: C_17  and  N_19 
REMARK    9  A    between atoms: N_19  and  CA_20 
REMARK   10  A    between atoms: CA_20  and  C_21 
REMARK   11  A    between atoms: CA_20  and  CB_23 
REMARK       I    between atoms: C_21  and  N_26 
REMARK   12  A    between atoms: CB_23  and  OG1_24 
REMARK   13  A    between atoms: N_26  and  CA_27 
REMARK   14  A    between atoms: CA_27  and  CB_28 
REMARK   15  A    between atoms: CA_27  and  C_35 
REMARK   16  A    between atoms: CB_28  and  CG_29 
REMARK   17  A    between atoms: CG_29  and  CD_30 
REMARK   18  A    between atoms: CD_30  and  CE_31 
REMARK   19  A    between atoms: CE_31  and  NZ_32 
REMARK       I    between atoms: C_35  and  N_37 
REMARK   20  A    between atoms: N_37  and  CA_38 
REMARK   21  A    between atoms: CA_38  and  C_39 
REMARK   22  A    between atoms: CA_38  and  CB_41 
REMARK       I    between atoms: C_39  and  N_46 
REMARK   23  A    between atoms: CB_41  and  CG_42 
REMARK   24  A    between atoms: CG_42  and  CD_43 
REMARK       I    between atoms: CD_43  and  NE2_45 
REMARK   25  A    between atoms: N_46  and  CA_47 
REMARK   26  A    between atoms: CA_47  and  C_48 
REMARK   27  A    between atoms: CA_47  and  CB_50 
REMARK       I    between atoms: C_48  and  N_53 
REMARK   28  A    between atoms: CB_50  and  OG1_51 
REMARK   29  A    between atoms: N_53  and  CA_54 
REMARK   30  A    between atoms: CA_54  and  C_55 
REMARK       I    between atoms: C_55  and  N_58 
REMARK   31  A    between atoms: N_58  and  CA_59 
REMARK   32  A    between atoms: CA_59  and  C_60 
ROOT
ATOM      1  CA  ALA d          -8.139 -11.716   5.211  0.00  0.00     0.176 C 
ENDROOT
BRANCH   1   2
ATOM      2  N   ALA d          -8.059 -10.270   5.037  0.00  0.00    -0.346 N 
ATOM      3  C   ALA d          -8.562  -9.401   5.910  0.00  0.00     0.243 C 
ATOM      4  O   ALA d          -9.156  -9.725   6.929  0.00  0.00    -0.271 OA
ATOM      5  H32 ALA d          -7.604  -9.914   4.221  0.00  0.00     0.163 HD
BRANCH   3   6
ATOM      6  CA  ALA d          -8.347  -7.935   5.564  0.00  0.00     0.205 C 
BRANCH   6   7
ATOM      7  N   ALA d          -9.109  -7.046   6.427  0.00  0.00    -0.344 N 
ATOM      8  C   ALA d          -9.572  -5.888   5.973  0.00  0.00     0.241 C 
ATOM      9  O   ALA d          -9.396  -5.509   4.825  0.00  0.00    -0.271 OA
ATOM     10  H25 ALA d          -9.286  -7.311   7.375  0.00  0.00     0.163 HD
BRANCH   8  11
ATOM     11  CA  ALA d         -10.347  -5.026   6.954  0.00  0.00     0.176 C 
BRANCH  11  12
ATOM     12  N   ALA d          -9.974  -3.632   6.746  0.00  0.00    -0.346 N 
ATOM     13  C   ALA d          -8.772  -3.178   7.095  0.00  0.00     0.248 C 
ATOM     14  O   ALA d          -7.921  -3.881   7.632  0.00  0.00    -0.271 OA
ATOM     15  H8  ALA d         -10.634  -3.004   6.333  0.00  0.00     0.163 HD
BRANCH  13  16
ATOM     16  CA  ALA d          -8.498  -1.712   6.801  0.00  0.00     0.270 C 
ATOM     17  CB  ALA d          -7.803  -1.577   5.448  0.00  0.00     0.050 C 
BRANCH  16  18
ATOM     18  N   ALA d          -7.658  -1.098   7.871  0.00  0.00    -0.067 N 
ATOM     19  H1  ALA d          -7.491  -0.128   7.652  0.00  0.00     0.275 HD
ATOM     20  H2  ALA d          -6.778  -1.585   7.928  0.00  0.00     0.275 HD
ATOM     21  H3  ALA d          -8.138  -1.165   8.755  0.00  0.00     0.275 HD
ENDBRANCH  16  18
ENDBRANCH  13  16
ENDBRANCH  11  12
BRANCH  11  22
ATOM     22  CB  ALA d         -11.848  -5.218   6.750  0.00  0.00     0.036 C 
BRANCH  22  23
ATOM     23  CG  ALA d         -12.693  -5.170   8.013  0.00  0.00     0.023 C 
BRANCH  23  24
ATOM     24  CD  ALA d         -14.010  -4.456   7.738  0.00  0.00     0.138 C 
BRANCH  24  25
ATOM     25  NE  ALA d         -14.935  -5.247   6.921  0.00  0.00    -0.227 N 
ATOM     26  CZ  ALA d         -16.064  -4.874   6.232  0.00  0.00     0.668 C 
ATOM     27  NH1 ALA d         -16.689  -5.854   5.575  0.00  0.00    -0.231 N 
ATOM     28  NH2 ALA d         -16.608  -3.605   6.153  0.00  0.00    -0.231 N 
ATOM     29  CQ1 ALA d         -17.927  -5.562   4.794  0.00  0.00     0.165 C 
ATOM     30  H17 ALA d         -16.316  -6.814   5.607  0.00  0.00     0.177 HD
ATOM     31  CQ2 ALA d         -16.109  -2.394   6.779  0.00  0.00     0.165 C 
ATOM     32  H21 ALA d         -17.463  -3.508   5.587  0.00  0.00     0.177 HD
ATOM     33  H16 ALA d         -14.700  -6.247   6.852  0.00  0.00     0.177 HD
ENDBRANCH  24  25
ENDBRANCH  23  24
ENDBRANCH  22  23
ENDBRANCH  11  22
ENDBRANCH   8  11
ENDBRANCH   6   7
BRANCH   6  34
ATOM     34  CB  ALA d          -6.829  -7.657   5.665  0.00  0.00     0.146 C 
ATOM     35  CG2 ALA d          -6.509  -6.218   5.252  0.00  0.00     0.042 C 
BRANCH  34  36
ATOM     36  OG1 ALA d          -6.396  -7.884   7.013  0.00  0.00    -0.393 OA
ATOM     37  H28 ALA d          -5.464  -7.714   7.078  0.00  0.00     0.210 HD
ENDBRANCH  34  36
ENDBRANCH   6  34
ENDBRANCH   3   6
ENDBRANCH   1   2
BRANCH   1  38
ATOM     38  CB  ALA d          -9.122 -12.315   4.216  0.00  0.00     0.035 C 
BRANCH  38  39
ATOM     39  CG  ALA d         -10.581 -11.944   4.430  0.00  0.00     0.004 C 
BRANCH  39  40
ATOM     40  CD  ALA d         -11.382 -12.362   3.208  0.00  0.00     0.028 C 
BRANCH  40  41
ATOM     41  CE  ALA d         -12.881 -12.328   3.444  0.00  0.00     0.234 C 
BRANCH  41  42
ATOM     42  NZ  ALA d         -13.673 -12.746   2.234  0.00  0.00    -0.079 N 
ATOM     43  CH1 ALA d         -13.760 -11.760   1.116  0.00  0.00     0.269 C 
ATOM     44  CH2 ALA d         -13.358 -14.105   1.673  0.00  0.00     0.269 C 
ATOM     45  H42 ALA d         -14.615 -12.822   2.584  0.00  0.00     0.278 HD
ENDBRANCH  41  42
ENDBRANCH  40  41
ENDBRANCH  39  40
ENDBRANCH  38  39
ENDBRANCH   1  38
BRANCH   1  46
ATOM     46  C   ALA d          -6.765 -12.342   4.970  0.00  0.00     0.241 C 
ATOM     47  O   ALA d          -6.028 -11.918   4.094  0.00  0.00    -0.271 OA
ATOM     48  N   ALA d          -6.443 -13.367   5.747  0.00  0.00    -0.346 N 
ATOM     49  H49 ALA d          -7.091 -13.668   6.446  0.00  0.00     0.163 HD
BRANCH  48  50
ATOM     50  CA  ALA d          -5.174 -14.068   5.613  0.00  0.00     0.177 C 
BRANCH  50  51
ATOM     51  C   ALA d          -3.963 -13.164   5.820  0.00  0.00     0.241 C 
ATOM     52  O   ALA d          -2.970 -13.287   5.115  0.00  0.00    -0.271 OA
ATOM     53  N   ALA d          -4.048 -12.252   6.781  0.00  0.00    -0.344 N 
ATOM     54  H57 ALA d          -4.891 -12.168   7.312  0.00  0.00     0.163 HD
BRANCH  53  55
ATOM     55  CA  ALA d          -2.923 -11.373   7.068  0.00  0.00     0.205 C 
BRANCH  55  56
ATOM     56  C   ALA d          -2.400 -11.652   8.472  0.00  0.00     0.243 C 
ATOM     57  O   ALA d          -1.535 -10.947   8.966  0.00  0.00    -0.271 OA
ATOM     58  N   ALA d          -2.936 -12.691   9.104  0.00  0.00    -0.346 N 
ATOM     59  H64 ALA d          -3.643 -13.229   8.645  0.00  0.00     0.163 HD
BRANCH  58  60
ATOM     60  CA  ALA d          -2.518 -13.067  10.452  0.00  0.00     0.172 C 
ATOM     61  CB  ALA d          -3.626 -13.844  11.142  0.00  0.00     0.042 C 
BRANCH  60  62
ATOM     62  C   ALA d          -1.256 -13.913  10.379  0.00  0.00     0.240 C 
ATOM     63  O   ALA d          -1.263 -14.989   9.802  0.00  0.00    -0.271 OA
ATOM     64  N   ALA d          -0.177 -13.418  10.976  0.00  0.00    -0.345 N 
ATOM     65  H69 ALA d          -0.243 -12.539  11.447  0.00  0.00     0.163 HD
BRANCH  64  66
ATOM     66  CA  ALA d           1.101 -14.122  10.963  0.00  0.00     0.181 C 
ATOM     67  CB  ALA d           2.018 -13.554  12.048  0.00  0.00     0.043 C 
BRANCH  66  68
ATOM     68  C   ALA d           0.931 -15.626  11.156  0.00  0.00     0.196 C 
ATOM     69  O   ALA d           0.033 -16.031  11.926  0.00  0.00    -0.646 OA
ATOM     70  OXT ALA d           1.709 -16.386  10.542  0.00  0.00    -0.646 OA
ENDBRANCH  66  68
ENDBRANCH  64  66
ENDBRANCH  60  62
ENDBRANCH  58  60
ENDBRANCH  55  56
BRANCH  55  71
ATOM     71  CB  ALA d          -3.309  -9.886   6.970  0.00  0.00     0.146 C 
ATOM     72  CG2 ALA d          -3.613  -9.504   5.532  0.00  0.00     0.042 C 
BRANCH  71  73
ATOM     73  OG1 ALA d          -4.455  -9.640   7.784  0.00  0.00    -0.393 OA
ATOM     74  H60 ALA d          -4.694  -8.722   7.724  0.00  0.00     0.210 HD
ENDBRANCH  71  73
ENDBRANCH  55  71
ENDBRANCH  53  55
ENDBRANCH  50  51
BRANCH  50  75
ATOM     75  CB  ALA d          -5.073 -14.732   4.234  0.00  0.00     0.044 C 
BRANCH  75  76
ATOM     76  CG  ALA d          -6.213 -15.687   3.910  0.00  0.00     0.105 C 
BRANCH  76  77
ATOM     77  CD  ALA d          -6.401 -16.743   4.982  0.00  0.00     0.215 C 
ATOM     78  OE1 ALA d          -5.437 -17.328   5.466  0.00  0.00    -0.274 OA
ATOM     79  NE2 ALA d          -7.652 -16.997   5.349  0.00  0.00    -0.370 N 
ATOM     80  H55 ALA d          -7.837 -17.684   6.052  0.00  0.00     0.159 HD
ATOM     81  H56 ALA d          -8.409 -16.502   4.922  0.00  0.00     0.159 HD
ENDBRANCH  76  77
ENDBRANCH  75  76
ENDBRANCH  50  75
ENDBRANCH  48  50
ENDBRANCH   1  46
TORSDOF 32
