REMARK  14 active torsions:
REMARK  status: ('A' for Active; 'I' for Inactive)
REMARK    1  A    between atoms: C5_8  and  O4_9 
REMARK    2  A    between atoms: O4_9  and  C4_10 
REMARK       I    between atoms: C4_10  and  N1_12 
REMARK    3  A    between atoms: N1_12  and  C6_13 
REMARK    4  A    between atoms: C6_13  and  C8_14 
REMARK    5  A    between atoms: C6_13  and  C7_21 
REMARK    6  A    between atoms: C8_14  and  C9_15 
REMARK    7  A    between atoms: C7_21  and  O6_22 
REMARK    8  A    between atoms: C7_21  and  C15_23 
REMARK    9  A    between atoms: C15_23  and  N2_24 
REMARK   10  A    between atoms: N2_24  and  S_25 
REMARK   11  A    between atoms: N2_24  and  C16_36 
REMARK   12  A    between atoms: S_25  and  C18_28 
REMARK   13  A    between atoms: C21_31  and  O1_32 
REMARK   14  A    between atoms: C16_36  and  C17_37 
ROOT
ATOM      1  C6  DJR d           5.684  -0.104  14.570  0.00  0.00     0.121 C 
ENDROOT
BRANCH   1   2
ATOM      2  N1  DJR d           4.594   0.735  14.029  0.00  0.00    -0.329 N 
ATOM      3  C4  DJR d           3.742   0.323  13.097  0.00  0.00     0.361 C 
ATOM      4  O5  DJR d           3.762  -0.787  12.542  0.00  0.00    -0.238 OA
ATOM      5  H10 DJR d           4.492   1.664  14.384  0.00  0.00     0.165 HD
BRANCH   3   6
ATOM      6  O4  DJR d           2.843   1.339  12.844  0.00  0.00    -0.296 OA
BRANCH   6   7
ATOM      7  C5  DJR d           1.898   1.246  11.735  0.00  0.00     0.166 C 
ATOM      8  C   DJR d           2.295   2.171  10.565  0.00  0.00     0.075 C 
ATOM      9  C27 DJR d           1.627   3.482  10.856  0.00  0.00     0.266 C 
ATOM     10  C1  DJR d           3.763   2.514  10.300  0.00  0.00     0.038 C 
ATOM     11  O   DJR d           0.682   3.260  11.923  0.00  0.00    -0.358 OA
ATOM     12  O9  DJR d           2.671   4.386  11.271  0.00  0.00    -0.361 OA
ATOM     13  C3  DJR d           0.555   1.845  12.148  0.00  0.00     0.204 C 
ATOM     14  C2  DJR d           3.971   3.797  11.103  0.00  0.00     0.171 C 
ENDBRANCH   6   7
ENDBRANCH   3   6
ENDBRANCH   1   2
BRANCH   1  15
ATOM     15  C8  DJR d           7.042   0.648  14.395  0.00  0.00     0.066 C 
BRANCH  15  16
ATOM     16  C9  DJR d           7.366   1.041  12.947  0.00  0.00    -0.056 A 
ATOM     17  C11 DJR d           7.799   0.054  12.016  0.00  0.00     0.007 A 
ATOM     18  C13 DJR d           8.089   0.415  10.680  0.00  0.00     0.001 A 
ATOM     19  C14 DJR d           7.952   1.769  10.260  0.00  0.00     0.000 A 
ATOM     20  C12 DJR d           7.523   2.757  11.174  0.00  0.00     0.001 A 
ATOM     21  C10 DJR d           7.227   2.398  12.518  0.00  0.00     0.007 A 
ENDBRANCH  15  16
ENDBRANCH   1  15
BRANCH   1  22
ATOM     22  C7  DJR d           5.300  -0.435  16.055  0.00  0.00     0.160 C 
BRANCH  22  23
ATOM     23  O6  DJR d           5.490   0.716  16.891  0.00  0.00    -0.392 OA
ATOM     24  H20 DJR d           5.253   0.499  17.785  0.00  0.00     0.210 HD
ENDBRANCH  22  23
BRANCH  22  25
ATOM     25  C15 DJR d           6.083  -1.629  16.649  0.00  0.00     0.169 C 
BRANCH  25  26
ATOM     26  N2  DJR d           5.866  -2.884  15.886  0.00  0.00    -0.304 N 
BRANCH  26  27
ATOM     27  S   DJR d           7.199  -3.563  14.983  0.00  0.00     0.260 S 
ATOM     28  O8  DJR d           6.492  -4.443  13.883  0.00  0.00    -0.200 OA
ATOM     29  O7  DJR d           8.021  -2.394  14.321  0.00  0.00    -0.200 OA
BRANCH  27  30
ATOM     30  C18 DJR d           8.194  -4.528  16.065  0.00  0.00     0.079 A 
ATOM     31  C23 DJR d           9.275  -3.934  16.776  0.00  0.00     0.028 A 
ATOM     32  C22 DJR d          10.045  -4.733  17.657  0.00  0.00     0.038 A 
ATOM     33  C21 DJR d           9.740  -6.120  17.832  0.00  0.00     0.068 A 
ATOM     34  C20 DJR d           8.651  -6.681  17.106  0.00  0.00     0.038 A 
ATOM     35  C19 DJR d           7.880  -5.892  16.228  0.00  0.00     0.028 A 
BRANCH  33  36
ATOM     36  O1  DJR d          10.564  -6.812  18.722  0.00  0.00    -0.356 OA
ATOM     37  C26 DJR d          10.433  -8.223  19.039  0.00  0.00     0.210 C 
ENDBRANCH  33  36
ENDBRANCH  27  30
ENDBRANCH  26  27
BRANCH  26  38
ATOM     38  C16 DJR d           4.524  -3.565  15.883  0.00  0.00     0.139 C 
BRANCH  38  39
ATOM     39  C17 DJR d           3.857  -3.808  17.269  0.00  0.00    -0.004 C 
ATOM     40  C25 DJR d           2.351  -4.096  17.184  0.00  0.00     0.011 C 
ATOM     41  C24 DJR d           4.508  -5.003  17.979  0.00  0.00     0.011 C 
ENDBRANCH  38  39
ENDBRANCH  26  38
ENDBRANCH  25  26
ENDBRANCH  22  25
ENDBRANCH   1  22
TORSDOF 14
