REMARK  2 active torsions:
REMARK  status: ('A' for Active; 'I' for Inactive)
REMARK    1  A    between atoms: C19_16  and  C22_10 
REMARK       I    between atoms: C22_10  and  N25_19 
REMARK    2  A    between atoms: C18_15  and  C12_12 
ROOT
ATOM      1  C4  B49 d          30.431  -1.087 -77.311  0.00  0.00     0.069 C 
ATOM      2  C13 B49 d          34.110  -1.046 -78.024  0.00  0.00    -0.018 A 
ATOM      3  C3  B49 d          35.480  -0.475 -78.240  0.00  0.00     0.052 C 
ATOM      4  C14 B49 d          31.884  -1.220 -77.605  0.00  0.00     0.022 A 
ATOM      5  C18 B49 d          33.764  -2.398 -78.089  0.00  0.00     0.040 A 
ATOM      6  C19 B49 d          32.910  -0.291 -77.718  0.00  0.00     0.062 A 
ATOM      7  N23 B49 d          32.417  -2.467 -77.828  0.00  0.00    -0.359 N 
ATOM      8  H11 B49 d          31.875  -3.343 -77.803  0.00  0.00     0.166 HD
ENDROOT
BRANCH   5   9
ATOM      9  C12 B49 d          34.576  -3.546 -78.371  0.00  0.00     0.048 C 
ATOM     10  C20 B49 d          34.296  -4.867 -78.442  0.00  0.00     0.047 A 
ATOM     11  C17 B49 d          35.342  -5.867 -78.784  0.00  0.00     0.009 A 
ATOM     12  C21 B49 d          33.015  -5.647 -78.233  0.00  0.00     0.257 A 
ATOM     13  C7  B49 d          36.729  -5.785 -79.092  0.00  0.00     0.057 A 
ATOM     14  C16 B49 d          34.692  -7.132 -78.770  0.00  0.00     0.046 A 
ATOM     15  C15 B49 d          37.416  -6.994 -79.379  0.00  0.00     0.117 A 
ATOM     16  C5  B49 d          36.749  -8.255 -79.361  0.00  0.00     0.044 A 
ATOM     17  F29 B49 d          38.725  -6.954 -79.672  0.00  0.00    -0.206 F 
ATOM     18  C6  B49 d          35.363  -8.333 -79.051  0.00  0.00     0.033 A 
ATOM     19  N24 B49 d          33.345  -6.985 -78.448  0.00  0.00    -0.322 N 
ATOM     20  H12 B49 d          32.696  -7.743 -78.380  0.00  0.00     0.169 HD
ATOM     21  O27 B49 d          31.923  -5.205 -77.941  0.00  0.00    -0.267 OA
ENDBRANCH   5   9
BRANCH   6  22
ATOM     22  C22 B49 d          32.804   1.174 -77.561  0.00  0.00     0.251 C 
ATOM     23  N25 B49 d          33.733   1.747 -76.710  0.00  0.00    -0.366 N 
ATOM     24  H13 B49 d          33.725   2.735 -76.553  0.00  0.00     0.159 HD
ATOM     25  H14 B49 d          34.413   1.173 -76.252  0.00  0.00     0.159 HD
ATOM     26  O28 B49 d          31.936   1.823 -78.153  0.00  0.00    -0.268 OA
ENDBRANCH   6  22
TORSDOF 2
