REMARK  10 active torsions:
REMARK  status: ('A' for Active; 'I' for Inactive)
REMARK    1  A    between atoms: C1_1  and  C7_7 
REMARK    2  A    between atoms: C3_3  and  O1_8 
REMARK    3  A    between atoms: C4_4  and  O2_9 
REMARK    4  A    between atoms: O3_10  and  C5_5 
REMARK    5  A    between atoms: O1_8  and  P1_13 
REMARK    6  A    between atoms: C8_17  and  O3_10 
REMARK    7  A    between atoms: C8_17  and  C9_18 
REMARK    8  A    between atoms: C8_17  and  C10_19 
REMARK    9  A    between atoms: O14_26  and  C8_17 
REMARK   10  A    between atoms: P2_22  and  O14_26 
ROOT
ATOM      1  C1  GG9 d        -127.784  32.021 127.775  0.00  0.00     0.020 C 
ATOM      2  C2  GG9 d        -127.418  32.369 126.404  0.00  0.00     0.022 C 
ATOM      3  C3  GG9 d        -128.504  32.327 125.313  0.00  0.00     0.190 C 
ATOM      4  C4  GG9 d        -129.996  32.354 125.879  0.00  0.00     0.180 C 
ATOM      5  C5  GG9 d        -130.189  31.270 126.971  0.00  0.00     0.162 C 
ATOM      6  C6  GG9 d        -129.194  31.643 128.163  0.00  0.00     0.080 C 
ENDROOT
BRANCH   5   7
ATOM      7  O3  GG9 d        -131.566  31.281 127.453  0.00  0.00    -0.334 OA
BRANCH   7   8
ATOM      8  C8  GG9 d        -132.512  30.167 127.298  0.00  0.00     0.326 C 
BRANCH   8   9
ATOM      9  C9  GG9 d        -132.689  29.628 125.830  0.00  0.00     0.427 C 
ATOM     10  F1  GG9 d        -131.549  29.199 125.362  0.00  0.00    -0.208 F 
ATOM     11  F2  GG9 d        -133.537  28.660 125.858  0.00  0.00    -0.208 F 
ENDBRANCH   8   9
BRANCH   8  12
ATOM     12  C10 GG9 d        -133.803  30.671 127.906  0.00  0.00     0.245 C 
ATOM     13  O9  GG9 d        -133.718  30.770 129.178  0.00  0.00    -0.644 OA
ATOM     14  O10 GG9 d        -134.803  30.936 127.261  0.00  0.00    -0.644 OA
ENDBRANCH   8  12
BRANCH   8  15
ATOM     15  O14 GG9 d        -131.578  29.354 128.087  0.00  0.00    -0.228 OA
BRANCH  15  16
ATOM     16  P2  GG9 d        -131.817  27.751 128.463  0.00  0.00     0.425 P 
ATOM     17  O11 GG9 d        -131.902  26.929 127.217  0.00  0.00    -0.617 OA
ATOM     18  O12 GG9 d        -133.122  27.638 129.228  0.00  0.00    -0.617 OA
ATOM     19  O13 GG9 d        -130.618  27.261 129.330  0.00  0.00    -0.617 OA
ENDBRANCH  15  16
ENDBRANCH   8  15
ENDBRANCH   7   8
ENDBRANCH   5   7
BRANCH   4  20
ATOM     20  O2  GG9 d        -130.835  32.205 124.719  0.00  0.00    -0.390 OA
ATOM     21  H7  GG9 d        -130.657  31.368 124.307  0.00  0.00     0.210 HD
ENDBRANCH   4  20
BRANCH   3  22
ATOM     22  O1  GG9 d        -128.358  31.114 124.381  0.00  0.00    -0.271 OA
BRANCH  22  23
ATOM     23  P1  GG9 d        -127.391  31.122 123.046  0.00  0.00     0.422 P 
ATOM     24  O6  GG9 d        -125.916  31.116 123.514  0.00  0.00    -0.617 OA
ATOM     25  O7  GG9 d        -127.823  32.430 122.304  0.00  0.00    -0.617 OA
ATOM     26  O8  GG9 d        -127.642  29.755 122.386  0.00  0.00    -0.617 OA
ENDBRANCH  22  23
ENDBRANCH   3  22
BRANCH   1  27
ATOM     27  C7  GG9 d        -126.695  32.035 128.828  0.00  0.00     0.205 C 
ATOM     28  O4  GG9 d        -125.554  31.858 128.428  0.00  0.00    -0.644 OA
ATOM     29  O5  GG9 d        -127.017  32.191 130.005  0.00  0.00    -0.644 OA
ENDBRANCH   1  27
TORSDOF 10
