REMARK  16 active torsions:
REMARK  status: ('A' for Active; 'I' for Inactive)
REMARK    1  A    between atoms: PAD_2  and  OAH_5 
REMARK    2  A    between atoms: OAH_5  and  CAN_6 
REMARK    3  A    between atoms: CAN_6  and  CAM_7 
REMARK    4  A    between atoms: CAN_6  and  CAO_10 
REMARK    5  A    between atoms: CAO_10  and  CAP_11 
REMARK    6  A    between atoms: CAP_11  and  OAW_12 
REMARK    7  A    between atoms: CAP_11  and  CAQ_13 
REMARK    8  A    between atoms: CAQ_13  and  NAI_14 
REMARK    9  A    between atoms: CAQ_13  and  CAR_18 
REMARK       I    between atoms: NAI_14  and  CAF_15 
REMARK   10  A    between atoms: CAR_18  and  OAX_19 
REMARK   11  A    between atoms: CAR_18  and  CAS_20 
REMARK   12  A    between atoms: CAS_20  and  OAJ_21 
REMARK   13  A    between atoms: CAS_20  and  CAT_22 
REMARK   14  A    between atoms: CAT_22  and  OAY_23 
REMARK   15  A    between atoms: CAT_22  and  CAU_24 
REMARK   16  A    between atoms: CAU_24  and  OAK_25 
ROOT
ATOM      1  CAQ WQP d          96.179 -23.348  51.177  0.00  0.00     0.144 C 
ENDROOT
BRANCH   1   2
ATOM      2  CAP WQP d          96.566 -21.873  51.425  0.00  0.00     0.146 C 
BRANCH   2   3
ATOM      3  CAO WQP d          97.259 -21.685  52.773  0.00  0.00     0.077 C 
BRANCH   3   4
ATOM      4  CAN WQP d          97.938 -20.320  52.792  0.00  0.00     0.238 C 
BRANCH   4   5
ATOM      5  OAH WQP d          97.628 -19.590  53.953  0.00  0.00    -0.266 OA
BRANCH   5   6
ATOM      6  PAD WQP d          96.222 -18.883  54.340  0.00  0.00     0.423 P 
ATOM      7  OAE WQP d          95.718 -19.739  55.462  0.00  0.00    -0.617 OA
ATOM      8  OAA WQP d          96.693 -17.482  54.737  0.00  0.00    -0.617 OA
ATOM      9  OAC WQP d          95.371 -19.011  53.095  0.00  0.00    -0.617 OA
ENDBRANCH   5   6
ENDBRANCH   4   5
BRANCH   4  10
ATOM     10  CAM WQP d          99.433 -20.459  52.746  0.00  0.00     0.203 C 
ATOM     11  OAV WQP d         100.102 -19.670  53.443  0.00  0.00    -0.646 OA
ATOM     12  OAL WQP d          99.940 -21.330  52.000  0.00  0.00    -0.646 OA
ENDBRANCH   4  10
ENDBRANCH   3   4
ENDBRANCH   2   3
BRANCH   2  13
ATOM     13  OAW WQP d          95.413 -21.013  51.428  0.00  0.00    -0.393 OA
ATOM     14  H5  WQP d          95.692 -20.112  51.542  0.00  0.00     0.210 HD
ENDBRANCH   2  13
ENDBRANCH   1   2
BRANCH   1  15
ATOM     15  NAI WQP d          95.239 -23.771  52.206  0.00  0.00    -0.352 N 
ATOM     16  CAF WQP d          95.559 -24.639  53.165  0.00  0.00     0.214 C 
ATOM     17  CAG WQP d          94.474 -24.983  54.133  0.00  0.00     0.117 C 
ATOM     18  OAB WQP d          96.661 -25.138  53.259  0.00  0.00    -0.274 OA
ATOM     19  H7  WQP d          94.313 -23.393  52.192  0.00  0.00     0.163 HD
ENDBRANCH   1  15
BRANCH   1  20
ATOM     20  CAR WQP d          95.557 -23.574  49.789  0.00  0.00     0.174 C 
BRANCH  20  21
ATOM     21  OAX WQP d          96.302 -22.930  48.741  0.00  0.00    -0.391 OA
ATOM     22  H12 WQP d          97.187 -23.275  48.725  0.00  0.00     0.210 HD
ENDBRANCH  20  21
BRANCH  20  23
ATOM     23  CAS WQP d          95.418 -25.054  49.447  0.00  0.00     0.179 C 
BRANCH  23  24
ATOM     24  OAJ WQP d          96.732 -25.630  49.275  0.00  0.00    -0.390 OA
ATOM     25  H14 WQP d          97.183 -25.181  48.570  0.00  0.00     0.210 HD
ENDBRANCH  23  24
BRANCH  23  26
ATOM     26  CAT WQP d          94.590 -25.284  48.171  0.00  0.00     0.173 C 
BRANCH  26  27
ATOM     27  OAY WQP d          93.360 -24.537  48.178  0.00  0.00    -0.391 OA
ATOM     28  H16 WQP d          92.882 -24.708  47.375  0.00  0.00     0.210 HD
ENDBRANCH  26  27
BRANCH  26  29
ATOM     29  CAU WQP d          94.263 -26.763  48.057  0.00  0.00     0.198 C 
BRANCH  29  30
ATOM     30  OAK WQP d          93.280 -26.975  47.041  0.00  0.00    -0.398 OA
ATOM     31  H19 WQP d          92.489 -26.497  47.263  0.00  0.00     0.209 HD
ENDBRANCH  29  30
ENDBRANCH  26  29
ENDBRANCH  23  26
ENDBRANCH  20  23
ENDBRANCH   1  20
TORSDOF 16
