REMARK  5 active torsions:
REMARK  status: ('A' for Active; 'I' for Inactive)
REMARK    1  A    between atoms: C2_2  and  O6_21 
REMARK    2  A    between atoms: C6_6  and  O5_20 
REMARK    3  A    between atoms: C8_8  and  O4_19 
REMARK    4  A    between atoms: C9_9  and  C10_10 
REMARK    5  A    between atoms: C13_13  and  O3_18 
ROOT
ATOM      1  C1  KMP d          20.259   0.885  -0.934  0.00  0.00     0.074 A 
ATOM      2  C2  KMP d          21.355   0.191  -1.357  0.00  0.00     0.085 A 
ATOM      3  C3  KMP d          21.575   0.029  -2.689  0.00  0.00     0.084 A 
ATOM      4  C4  KMP d          20.717   0.564  -3.584  0.00  0.00     0.096 A 
ATOM      5  C5  KMP d          19.611   1.241  -3.202  0.00  0.00     0.075 A 
ATOM      6  C6  KMP d          19.382   1.400  -1.878  0.00  0.00     0.071 A 
ATOM      7  C7  KMP d          22.668  -0.648  -3.096  0.00  0.00     0.223 A 
ATOM      8  C8  KMP d          22.852  -0.697  -4.432  0.00  0.00     0.152 A 
ATOM      9  C9  KMP d          21.918  -0.137  -5.294  0.00  0.00     0.123 A 
ATOM     10  O1  KMP d          20.842   0.448  -4.866  0.00  0.00    -0.306 OA
ATOM     11  O2  KMP d          23.496  -1.117  -2.315  0.00  0.00    -0.284 OA
ENDROOT
BRANCH   9  12
ATOM     12  C10 KMP d          21.884  -0.120  -6.662  0.00  0.00     0.001 A 
ATOM     13  C11 KMP d          21.421  -1.206  -7.366  0.00  0.00     0.017 A 
ATOM     14  C12 KMP d          21.353  -1.157  -8.713  0.00  0.00     0.037 A 
ATOM     15  C13 KMP d          21.676  -0.011  -9.352  0.00  0.00     0.065 A 
ATOM     16  C14 KMP d          22.072   1.090  -8.678  0.00  0.00     0.037 A 
ATOM     17  C15 KMP d          22.169   1.041  -7.331  0.00  0.00     0.017 A 
BRANCH  15  18
ATOM     18  O3  KMP d          21.601   0.030 -10.657  0.00  0.00    -0.361 OA
ATOM     19  H7  KMP d          21.310  -0.814 -10.983  0.00  0.00     0.217 HD
ENDBRANCH  15  18
ENDBRANCH   9  12
BRANCH   8  20
ATOM     20  O4  KMP d          23.936  -1.348  -4.807  0.00  0.00    -0.355 OA
ATOM     21  H8  KMP d          24.414  -1.634  -4.038  0.00  0.00     0.218 HD
ENDBRANCH   8  20
BRANCH   2  22
ATOM     22  O6  KMP d          22.228  -0.343  -0.553  0.00  0.00    -0.360 OA
ATOM     23  H10 KMP d          23.084   0.033  -0.722  0.00  0.00     0.217 HD
ENDBRANCH   2  22
BRANCH   6  24
ATOM     24  O5  KMP d          18.289   2.074  -1.551  0.00  0.00    -0.361 OA
ATOM     25  H9  KMP d          18.223   2.128  -0.605  0.00  0.00     0.217 HD
ENDBRANCH   6  24
TORSDOF 5
