REMARK  4 active torsions:
REMARK  status: ('A' for Active; 'I' for Inactive)
REMARK    1  A    between atoms: C3_3  and  O3_11 
REMARK    2  A    between atoms: C4_4  and  O4_12 
REMARK    3  A    between atoms: C5_5  and  C6_6 
REMARK    4  A    between atoms: C6_6  and  O6_14 
ROOT
ATOM      1  C1  NGT d          -5.806  65.559   9.960  0.00  0.00     0.216 C 
ATOM      2  C2  NGT d          -6.579  66.476   8.966  0.00  0.00     0.179 C 
ATOM      3  C3  NGT d          -5.602  67.266   8.030  0.00  0.00     0.177 C 
ATOM      4  C4  NGT d          -4.370  67.809   8.775  0.00  0.00     0.180 C 
ATOM      5  C5  NGT d          -3.663  66.668   9.538  0.00  0.00     0.178 C 
ATOM      6  C7  NGT d          -7.038  64.431   8.057  0.00  0.00     0.064 C 
ATOM      7  C8  NGT d          -7.695  63.335   7.251  0.00  0.00     0.078 C 
ATOM      8  N2  NGT d          -7.439  65.624   8.155  0.00  0.00    -0.276 NA
ATOM      9  S1  NGT d          -5.587  64.002   8.967  0.00  0.00    -0.081 SA
ATOM     10  O5  NGT d          -4.603  66.034  10.488  0.00  0.00    -0.363 OA
ENDROOT
BRANCH   5  11
ATOM     11  C6  NGT d          -2.440  67.120  10.332  0.00  0.00     0.198 C 
BRANCH  11  12
ATOM     12  O6  NGT d          -1.740  65.997  10.869  0.00  0.00    -0.398 OA
ATOM     13  H13 NGT d          -2.318  65.511  11.446  0.00  0.00     0.209 HD
ENDBRANCH  11  12
ENDBRANCH   5  11
BRANCH   4  14
ATOM     14  O4  NGT d          -3.483  68.394   7.838  0.00  0.00    -0.390 OA
ATOM     15  H12 NGT d          -3.929  69.094   7.375  0.00  0.00     0.210 HD
ENDBRANCH   4  14
BRANCH   3  16
ATOM     16  O3  NGT d          -6.301  68.324   7.392  0.00  0.00    -0.391 OA
ATOM     17  H11 NGT d          -5.726  68.752   6.769  0.00  0.00     0.210 HD
ENDBRANCH   3  16
TORSDOF 4
