REMARK  30 active torsions:
REMARK  status: ('A' for Active; 'I' for Inactive)
REMARK    1  A    between atoms: CA_2  and  N_1 
REMARK    2  A    between atoms: CA_2  and  CB_5 
REMARK    3  A    between atoms: C_3  and  CA_2 
REMARK       I    between atoms: N_9  and  C_3 
REMARK    4  A    between atoms: CB_5  and  CG_6 
REMARK    5  A    between atoms: CG_6  and  SD_7 
REMARK    6  A    between atoms: CA_10  and  N_9 
REMARK    7  A    between atoms: CA_10  and  CB_13 
REMARK    8  A    between atoms: C_11  and  CA_10 
REMARK       I    between atoms: N_17  and  C_11 
REMARK    9  A    between atoms: CB_13  and  CG_14 
REMARK   10  A    between atoms: CA_18  and  N_17 
REMARK   11  A    between atoms: CA_18  and  CB_21 
REMARK   12  A    between atoms: C_19  and  CA_18 
REMARK       I    between atoms: N_31  and  C_19 
REMARK   13  A    between atoms: CB_21  and  CG_22 
REMARK   14  A    between atoms: CA_32  and  N_31 
REMARK   15  A    between atoms: CA_32  and  CB_35 
REMARK   16  A    between atoms: C_33  and  CA_32 
REMARK       I    between atoms: N_39  and  C_33 
REMARK   17  A    between atoms: CB_35  and  CG_36 
REMARK       I    between atoms: CG_36  and  ND2_38 
REMARK   18  A    between atoms: CA_40  and  N_39 
REMARK   19  A    between atoms: CA_40  and  CB_43 
REMARK   20  A    between atoms: C_41  and  CA_40 
REMARK       I    between atoms: N_47  and  C_41 
REMARK   21  A    between atoms: CB_43  and  CG_44 
REMARK   22  A    between atoms: CG_44  and  SD_45 
REMARK   23  A    between atoms: CA_48  and  N_47 
REMARK   24  A    between atoms: CA_48  and  CB_51 
REMARK   25  A    between atoms: C_49  and  CA_48 
REMARK       I    between atoms: N_57  and  C_49 
REMARK   26  A    between atoms: CB_51  and  CG_52 
REMARK   27  A    between atoms: CA_58  and  N_57 
REMARK   28  A    between atoms: C_59  and  CA_58 
REMARK       I    between atoms: C_59  and  N_62 
REMARK   29  A    between atoms: N_62  and  CA_63 
REMARK   30  A    between atoms: CA_63  and  C_64 
ROOT
ATOM      1  CA  MOL d          -7.622  21.819  33.726  0.00  0.00     0.185 C 
ENDROOT
BRANCH   1   2
ATOM      2  N   MOL d          -7.667  20.372  33.884  0.00  0.00    -0.346 N 
ATOM      3  C   MOL d          -6.559  19.652  34.013  0.00  0.00     0.241 C 
ATOM      4  O   MOL d          -5.432  20.149  33.965  0.00  0.00    -0.271 OA
ATOM      5  H26 MOL d          -8.554  19.910  33.896  0.00  0.00     0.163 HD
BRANCH   3   6
ATOM      6  CA  MOL d          -6.735  18.152  34.227  0.00  0.00     0.181 C 
BRANCH   6   7
ATOM      7  N   MOL d          -7.957  17.523  33.742  0.00  0.00    -0.346 N 
ATOM      8  C   MOL d          -8.817  16.972  34.594  0.00  0.00     0.241 C 
ATOM      9  O   MOL d          -8.652  16.992  35.815  0.00  0.00    -0.271 OA
ATOM     10  H16 MOL d          -8.150  17.506  32.761  0.00  0.00     0.163 HD
BRANCH   8  11
ATOM     11  CA  MOL d         -10.046  16.303  33.993  0.00  0.00     0.186 C 
BRANCH  11  12
ATOM     12  N   MOL d         -10.374  15.098  34.746  0.00  0.00    -0.345 N 
ATOM     13  C   MOL d         -10.158  13.883  34.250  0.00  0.00     0.249 C 
ATOM     14  O   MOL d          -9.666  13.689  33.138  0.00  0.00    -0.271 OA
ATOM     15  H12 MOL d         -10.772  15.188  35.659  0.00  0.00     0.163 HD
BRANCH  13  16
ATOM     16  CA  MOL d         -10.556  12.710  35.139  0.00  0.00     0.275 C 
BRANCH  16  17
ATOM     17  N   MOL d          -9.915  11.437  34.703  0.00  0.00    -0.066 N 
ATOM     18  H1  MOL d         -10.203  10.689  35.315  0.00  0.00     0.275 HD
ATOM     19  H2  MOL d          -8.912  11.535  34.741  0.00  0.00     0.275 HD
ATOM     20  H3  MOL d         -10.196  11.226  33.758  0.00  0.00     0.275 HD
ENDBRANCH  16  17
BRANCH  16  21
ATOM     21  CB  MOL d         -10.179  13.016  36.588  0.00  0.00     0.053 C 
BRANCH  21  22
ATOM     22  CG  MOL d          -8.686  12.978  36.850  0.00  0.00     0.076 C 
BRANCH  22  23
ATOM     23  SD  MOL d          -8.286  13.527  38.513  0.00  0.00    -0.173 SA
ATOM     24  CE  MOL d          -9.345  12.436  39.501  0.00  0.00     0.089 C 
ENDBRANCH  22  23
ENDBRANCH  21  22
ENDBRANCH  16  21
ENDBRANCH  13  16
ENDBRANCH  11  12
BRANCH  11  25
ATOM     25  CB  MOL d         -11.235  17.264  34.005  0.00  0.00     0.147 C 
BRANCH  25  26
ATOM     26  CG  MOL d         -12.485  16.642  33.411  0.00  0.00     0.175 C 
ATOM     27  OD1 MOL d         -12.431  16.194  32.248  0.00  0.00    -0.648 OA
ATOM     28  OD2 MOL d         -13.524  16.602  34.104  0.00  0.00    -0.648 OA
ENDBRANCH  25  26
ENDBRANCH  11  25
ENDBRANCH   8  11
ENDBRANCH   6   7
BRANCH   6  29
ATOM     29  CB  MOL d          -5.518  17.411  33.670  0.00  0.00     0.075 C 
BRANCH  29  30
ATOM     30  CG  MOL d          -5.433  15.998  34.160  0.00  0.00    -0.028 A 
ATOM     31  CD1 MOL d          -5.902  14.878  33.536  0.00  0.00     0.096 A 
ATOM     32  NE1 MOL d          -5.669  13.768  34.315  0.00  0.00    -0.365 N 
ATOM     33  CE2 MOL d          -5.040  14.161  35.468  0.00  0.00     0.042 A 
ATOM     34  H21 MOL d          -5.925  12.800  34.072  0.00  0.00     0.165 HD
ATOM     35  CD2 MOL d          -4.876  15.562  35.404  0.00  0.00    -0.002 A 
ATOM     36  CZ2 MOL d          -4.602  13.406  36.559  0.00  0.00     0.030 A 
ATOM     37  CE3 MOL d          -4.254  16.220  36.473  0.00  0.00     0.014 A 
ATOM     38  CZ3 MOL d          -3.819  15.467  37.557  0.00  0.00     0.001 A 
ATOM     39  CH2 MOL d          -3.995  14.076  37.590  0.00  0.00     0.002 A 
ENDBRANCH  29  30
ENDBRANCH   6  29
ENDBRANCH   3   6
ENDBRANCH   1   2
BRANCH   1  40
ATOM     40  CB  MOL d          -7.194  22.208  32.301  0.00  0.00     0.137 C 
BRANCH  40  41
ATOM     41  CG  MOL d          -8.238  21.887  31.262  0.00  0.00     0.217 C 
ATOM     42  ND2 MOL d          -7.964  20.880  30.441  0.00  0.00    -0.370 N 
ATOM     43  H30 MOL d          -8.619  20.621  29.731  0.00  0.00     0.159 HD
ATOM     44  H31 MOL d          -7.103  20.381  30.532  0.00  0.00     0.159 HD
ATOM     45  OD1 MOL d          -9.283  22.532  31.199  0.00  0.00    -0.274 OA
ENDBRANCH  40  41
ENDBRANCH   1  40
BRANCH   1  46
ATOM     46  C   MOL d          -9.007  22.354  34.070  0.00  0.00     0.241 C 
ATOM     47  O   MOL d         -10.000  21.641  33.946  0.00  0.00    -0.271 OA
ATOM     48  N   MOL d          -9.068  23.603  34.520  0.00  0.00    -0.346 N 
ATOM     49  H32 MOL d          -8.228  24.142  34.580  0.00  0.00     0.163 HD
BRANCH  48  50
ATOM     50  CA  MOL d         -10.329  24.205  34.928  0.00  0.00     0.177 C 
BRANCH  50  51
ATOM     51  CB  MOL d         -10.097  25.607  35.496  0.00  0.00     0.045 C 
BRANCH  51  52
ATOM     52  CG  MOL d          -9.166  25.649  36.688  0.00  0.00     0.076 C 
BRANCH  52  53
ATOM     53  SD  MOL d          -9.395  27.172  37.632  0.00  0.00    -0.173 SA
ATOM     54  CE  MOL d         -11.067  26.897  38.306  0.00  0.00     0.089 C 
ENDBRANCH  52  53
ENDBRANCH  51  52
ENDBRANCH  50  51
BRANCH  50  55
ATOM     55  C   MOL d         -11.408  24.290  33.863  0.00  0.00     0.241 C 
ATOM     56  O   MOL d         -12.596  24.259  34.190  0.00  0.00    -0.271 OA
ATOM     57  N   MOL d         -11.014  24.411  32.601  0.00  0.00    -0.346 N 
ATOM     58  H41 MOL d         -10.038  24.431  32.383  0.00  0.00     0.163 HD
BRANCH  57  59
ATOM     59  CA  MOL d         -12.000  24.514  31.534  0.00  0.00     0.182 C 
BRANCH  59  60
ATOM     60  CB  MOL d         -11.329  24.917  30.214  0.00  0.00     0.093 C 
BRANCH  60  61
ATOM     61  CG  MOL d         -12.289  25.067  29.074  0.00  0.00     0.030 A 
ATOM     62  ND1 MOL d         -12.769  23.991  28.357  0.00  0.00    -0.353 N 
ATOM     63  CE1 MOL d         -13.644  24.415  27.464  0.00  0.00     0.207 A 
ATOM     64  H45 MOL d         -12.489  23.010  28.497  0.00  0.00     0.166 HD
ATOM     65  NE2 MOL d         -13.750  25.727  27.573  0.00  0.00    -0.254 NA
ATOM     66  CD2 MOL d         -12.912  26.160  28.571  0.00  0.00     0.143 A 
ENDBRANCH  60  61
ENDBRANCH  59  60
BRANCH  59  67
ATOM     67  C   MOL d         -12.773  23.211  31.372  0.00  0.00     0.241 C 
ATOM     68  O   MOL d         -14.000  23.217  31.222  0.00  0.00    -0.271 OA
ATOM     69  N   MOL d         -12.053  22.095  31.422  0.00  0.00    -0.346 N 
ATOM     70  H48 MOL d         -11.064  22.160  31.554  0.00  0.00     0.163 HD
BRANCH  69  71
ATOM     71  CA  MOL d         -12.665  20.781  31.290  0.00  0.00     0.172 C 
ATOM     72  CB  MOL d         -11.602  19.740  30.986  0.00  0.00     0.042 C 
BRANCH  71  73
ATOM     73  C   MOL d         -13.397  20.417  32.580  0.00  0.00     0.240 C 
ATOM     74  O   MOL d         -14.412  19.720  32.550  0.00  0.00    -0.271 OA
ATOM     75  N   MOL d         -12.869  20.891  33.706  0.00  0.00    -0.345 N 
ATOM     76  H53 MOL d         -12.043  21.452  33.651  0.00  0.00     0.163 HD
BRANCH  75  77
ATOM     77  CA  MOL d         -13.449  20.623  35.020  0.00  0.00     0.181 C 
ATOM     78  CB  MOL d         -12.576  21.235  36.110  0.00  0.00     0.043 C 
BRANCH  77  79
ATOM     79  C   MOL d         -14.872  21.155  35.133  0.00  0.00     0.196 C 
ATOM     80  O   MOL d         -15.754  20.380  35.557  0.00  0.00    -0.646 OA
ATOM     81  OXT MOL d         -15.087  22.341  34.813  0.00  0.00    -0.646 OA
ENDBRANCH  77  79
ENDBRANCH  75  77
ENDBRANCH  71  73
ENDBRANCH  69  71
ENDBRANCH  59  67
ENDBRANCH  57  59
ENDBRANCH  50  55
ENDBRANCH  48  50
ENDBRANCH   1  46
TORSDOF 30
