REMARK  4 active torsions:
REMARK  status: ('A' for Active; 'I' for Inactive)
REMARK    1  A    between atoms: C3_3  and  C7_7 
REMARK    2  A    between atoms: C7_7  and  N8_8 
REMARK    3  A    between atoms: C14_14  and  C21_20 
REMARK    4  A    between atoms: C16_16  and  C18_17 
ROOT
ATOM      1  N8  HTJ d         -25.066  -5.858  11.155  0.00  0.00    -0.247 N 
ATOM      2  C9  HTJ d         -24.036  -6.494  10.596  0.00  0.00     0.159 A 
ATOM      3  C10 HTJ d         -23.242  -5.484  10.076  0.00  0.00     0.048 A 
ATOM      4  C11 HTJ d         -23.816  -4.191  10.352  0.00  0.00     0.155 A 
ATOM      5  N12 HTJ d         -24.956  -4.456  11.039  0.00  0.00    -0.182 NA
ATOM      6  N13 HTJ d         -23.734  -7.790  10.482  0.00  0.00    -0.228 NA
ATOM      7  C14 HTJ d         -22.623  -8.192   9.848  0.00  0.00     0.070 A 
ATOM      8  C15 HTJ d         -21.767  -7.237   9.281  0.00  0.00     0.052 A 
ATOM      9  C16 HTJ d         -22.076  -5.872   9.391  0.00  0.00     0.058 A 
ENDROOT
BRANCH   1  10
ATOM     10  C7  HTJ d         -26.186  -6.384  11.939  0.00  0.00     0.191 C 
BRANCH  10  11
ATOM     11  C3  HTJ d         -25.657  -6.487  13.384  0.00  0.00    -0.036 A 
ATOM     12  C2  HTJ d         -26.526  -6.618  14.470  0.00  0.00     0.028 A 
ATOM     13  C1  HTJ d         -26.013  -6.711  15.770  0.00  0.00     0.116 A 
ATOM     14  N6  HTJ d         -24.687  -6.663  15.997  0.00  0.00    -0.273 NA
ATOM     15  C5  HTJ d         -23.810  -6.547  14.980  0.00  0.00     0.116 A 
ATOM     16  C4  HTJ d         -24.282  -6.454  13.665  0.00  0.00     0.028 A 
ENDBRANCH  10  11
ENDBRANCH   1  10
BRANCH   9  17
ATOM     17  C18 HTJ d         -21.161  -4.839   8.788  0.00  0.00     0.210 C 
ATOM     18  O19 HTJ d         -20.333  -5.193   7.931  0.00  0.00    -0.644 OA
ATOM     19  O20 HTJ d         -21.220  -3.642   9.153  0.00  0.00    -0.644 OA
ENDBRANCH   9  17
BRANCH   7  20
ATOM     20  C21 HTJ d         -22.366  -9.656   9.773  0.00  0.00    -0.007 A 
ATOM     21  C22 HTJ d         -23.151 -10.525  10.545  0.00  0.00     0.014 A 
ATOM     22  C23 HTJ d         -22.935 -11.905  10.488  0.00  0.00     0.001 A 
ATOM     23  C24 HTJ d         -21.941 -12.424   9.656  0.00  0.00     0.000 A 
ATOM     24  C25 HTJ d         -21.148 -11.567   8.888  0.00  0.00     0.001 A 
ATOM     25  C26 HTJ d         -21.368 -10.179   8.939  0.00  0.00     0.014 A 
ENDBRANCH   7  20
TORSDOF 4
