REMARK  7 active torsions:
REMARK  status: ('A' for Active; 'I' for Inactive)
REMARK    1  A    between atoms: CA1_1  and  CA_2 
REMARK    2  A    between atoms: CA1_1  and  S_13 
REMARK    3  A    between atoms: CA_2  and  C_3 
REMARK    4  A    between atoms: CA_2  and  CB_5 
REMARK    5  A    between atoms: CB_5  and  CG_6 
REMARK    6  A    between atoms: S_13  and  N1_14 
REMARK    7  A    between atoms: S_13  and  N2_15 
ROOT
ATOM      1  CA  CPM d          -2.592  29.898  -7.910  0.00  0.00     0.102 C 
ENDROOT
BRANCH   1   2
ATOM      2  CA1 CPM d          -2.768  30.804  -6.553  0.00  0.00     0.112 C 
BRANCH   2   3
ATOM      3  S   CPM d          -2.841  29.717  -5.196  0.00  0.00    -0.074 SA
ATOM      4  CM  CPM d          -3.631  30.562  -3.885  0.00  0.00     0.115 C 
BRANCH   3   5
ATOM      5  N1  CPM d          -3.814  28.509  -5.664  0.00  0.00    -0.270 NA
ATOM      6  H11 CPM d          -4.010  27.747  -5.034  0.00  0.00     0.196 HD
ENDBRANCH   3   5
BRANCH   3   7
ATOM      7  N2  CPM d          -1.402  29.294  -4.727  0.00  0.00    -0.270 NA
ATOM      8  H12 CPM d          -1.291  28.665  -3.947  0.00  0.00     0.196 HD
ENDBRANCH   3   7
ENDBRANCH   2   3
ENDBRANCH   1   2
BRANCH   1   9
ATOM      9  C   CPM d          -0.919  29.777  -8.051  0.00  0.00     0.178 C 
ATOM     10  O   CPM d          -0.140  30.864  -7.676  0.00  0.00    -0.648 OA
ATOM     11  OXT CPM d          -0.600  28.569  -8.519  0.00  0.00    -0.648 OA
ENDBRANCH   1   9
BRANCH   1  12
ATOM     12  CB  CPM d          -2.975  31.166  -8.940  0.00  0.00     0.054 C 
BRANCH  12  13
ATOM     13  CG  CPM d          -2.580  30.442 -10.391  0.00  0.00    -0.057 A 
ATOM     14  CD1 CPM d          -3.827  29.838 -11.140  0.00  0.00     0.007 A 
ATOM     15  CE1 CPM d          -3.237  29.173 -12.497  0.00  0.00     0.001 A 
ATOM     16  CZ  CPM d          -2.108  29.173 -12.825  0.00  0.00     0.000 A 
ATOM     17  CE2 CPM d          -0.740  29.717 -12.217  0.00  0.00     0.001 A 
ATOM     18  CD2 CPM d          -1.129  30.442 -10.812  0.00  0.00     0.007 A 
ENDBRANCH  12  13
ENDBRANCH   1  12
TORSDOF 7
