REMARK  15 active torsions:
REMARK  status: ('A' for Active; 'I' for Inactive)
REMARK    1  A    between atoms: P_2  and  C19_5 
REMARK    2  A    between atoms: C19_5  and  C18_8 
REMARK    3  A    between atoms: C18_8  and  C17_9 
REMARK    4  A    between atoms: C17_9  and  C16_10 
REMARK    5  A    between atoms: C16_10  and  C15_11 
REMARK    6  A    between atoms: C15_11  and  N5_12 
REMARK    7  A    between atoms: N7_19  and  C10_24 
REMARK    8  A    between atoms: C10_24  and  C11_25 
REMARK    9  A    between atoms: C11_25  and  O19_26 
REMARK   10  A    between atoms: C11_25  and  C12_27 
REMARK   11  A    between atoms: C12_27  and  O21_28 
REMARK   12  A    between atoms: C12_27  and  C13_29 
REMARK   13  A    between atoms: C13_29  and  O23_30 
REMARK   14  A    between atoms: C13_29  and  C14_31 
REMARK   15  A    between atoms: C14_31  and  O26_32 
ROOT
ATOM      1  N5  TSF d          43.090   0.418   4.426  0.00  0.00    -0.291 N 
ATOM      2  C9  TSF d          42.607  -0.746   4.874  0.00  0.00     0.152 A 
ATOM      3  C4  TSF d          42.866  -2.143   4.459  0.00  0.00     0.280 A 
ATOM      4  O2  TSF d          43.658  -2.428   3.531  0.00  0.00    -0.265 OA
ATOM      5  N3  TSF d          42.190  -3.089   5.132  0.00  0.00    -0.273 N 
ATOM      6  C6  TSF d          42.479   1.316   5.204  0.00  0.00     0.331 A 
ATOM      7  O4  TSF d          42.665   2.585   5.087  0.00  0.00    -0.246 OA
ATOM      8  N7  TSF d          41.632   0.843   6.119  0.00  0.00    -0.280 N 
ATOM      9  C8  TSF d          41.655  -0.491   5.970  0.00  0.00     0.148 A 
ATOM     10  N1  TSF d          41.070  -1.542   6.547  0.00  0.00    -0.292 N 
ATOM     11  C2  TSF d          41.331  -2.795   6.143  0.00  0.00     0.328 A 
ATOM     12  O1  TSF d          40.738  -3.718   6.732  0.00  0.00    -0.247 OA
ATOM     13  H9  TSF d          42.324  -4.047   4.879  0.00  0.00     0.173 HD
ATOM     14  H10 TSF d          40.424  -1.393   7.296  0.00  0.00     0.172 HD
ENDROOT
BRANCH   8  15
ATOM     15  C10 TSF d          40.893   1.706   7.031  0.00  0.00     0.170 C 
BRANCH  15  16
ATOM     16  C11 TSF d          40.227   1.025   8.213  0.00  0.00     0.168 C 
BRANCH  16  17
ATOM     17  O19 TSF d          41.072   0.098   8.914  0.00  0.00    -0.391 OA
ATOM     18  H14 TSF d          40.589  -0.286   9.636  0.00  0.00     0.210 HD
ENDBRANCH  16  17
BRANCH  16  19
ATOM     19  C12 TSF d          39.555   2.012   9.162  0.00  0.00     0.179 C 
BRANCH  19  20
ATOM     20  O21 TSF d          38.171   1.702   8.969  0.00  0.00    -0.390 OA
ATOM     21  H16 TSF d          37.642   2.266   9.521  0.00  0.00     0.210 HD
ENDBRANCH  19  20
BRANCH  19  22
ATOM     22  C13 TSF d          39.763   3.519   8.913  0.00  0.00     0.173 C 
BRANCH  22  23
ATOM     23  O23 TSF d          41.123   3.919   9.140  0.00  0.00    -0.391 OA
ATOM     24  H18 TSF d          41.361   3.731  10.040  0.00  0.00     0.210 HD
ENDBRANCH  22  23
BRANCH  22  25
ATOM     25  C14 TSF d          38.872   4.365   9.823  0.00  0.00     0.198 C 
BRANCH  25  26
ATOM     26  O26 TSF d          39.054   3.924  11.180  0.00  0.00    -0.398 OA
ATOM     27  H21 TSF d          39.965   4.031  11.427  0.00  0.00     0.209 HD
ENDBRANCH  25  26
ENDBRANCH  22  25
ENDBRANCH  19  22
ENDBRANCH  16  19
ENDBRANCH  15  16
ENDBRANCH   8  15
BRANCH   1  28
ATOM     28  C15 TSF d          44.043   0.677   3.351  0.00  0.00     0.134 C 
BRANCH  28  29
ATOM     29  C16 TSF d          45.459   0.534   3.887  0.00  0.00     0.020 C 
BRANCH  29  30
ATOM     30  C17 TSF d          46.438   0.685   2.728  0.00  0.00     0.008 C 
BRANCH  30  31
ATOM     31  C18 TSF d          46.430   2.116   2.190  0.00  0.00     0.095 C 
BRANCH  31  32
ATOM     32  C19 TSF d          46.441   2.160   0.665  0.00  0.00     0.353 C 
ATOM     33  F1  TSF d          45.198   2.108   0.225  0.00  0.00    -0.191 F 
ATOM     34  F2  TSF d          47.128   1.139   0.186  0.00  0.00    -0.191 F 
BRANCH  32  35
ATOM     35  P   TSF d          47.225   3.684   0.073  0.00  0.00     0.334 P 
ATOM     36  O2P TSF d          47.276   3.522  -1.421  0.00  0.00    -0.636 OA
ATOM     37  O3P TSF d          48.593   3.669   0.720  0.00  0.00    -0.636 OA
ATOM     38  O1P TSF d          46.321   4.801   0.549  0.00  0.00    -0.636 OA
ENDBRANCH  32  35
ENDBRANCH  31  32
ENDBRANCH  30  31
ENDBRANCH  29  30
ENDBRANCH  28  29
ENDBRANCH   1  28
TORSDOF 15
