REMARK  2 active torsions:
REMARK  status: ('A' for Active; 'I' for Inactive)
REMARK    1  A    between atoms: S_1  and  C2_4 
REMARK    2  A    between atoms: S_1  and  NH_9 
ROOT
ATOM      1  S   EVJ d          15.189   1.086  16.746  0.00  0.00     0.263 S 
ATOM      2  O1  EVJ d          13.722   1.204  16.709  0.00  0.00    -0.200 OA
ATOM      3  O2  EVJ d          15.709   1.149  18.109  0.00  0.00    -0.200 OA
ENDROOT
BRANCH   1   4
ATOM      4  C2  EVJ d          15.735   2.435  15.907  0.00  0.00     0.119 A 
ATOM      5  S1  EVJ d          14.741   3.754  15.516  0.00  0.00    -0.088 SA
ATOM      6  C5  EVJ d          15.937   4.710  14.742  0.00  0.00     0.051 A 
ATOM      7  C4  EVJ d          17.131   3.974  14.795  0.00  0.00     0.009 A 
ATOM      8  C3  EVJ d          17.018   2.715  15.441  0.00  0.00     0.033 A 
ENDBRANCH   1   4
BRANCH   1   9
ATOM      9  NH  EVJ d          15.657  -0.220  16.009  0.00  0.00    -0.324 N 
ATOM     10  H4  EVJ d          16.631  -0.439  15.950  0.00  0.00     0.169 HD
ATOM     11  H5  EVJ d          14.981  -0.832  15.598  0.00  0.00     0.169 HD
ENDBRANCH   1   9
TORSDOF 2
