REMARK  7 active torsions:
REMARK  status: ('A' for Active; 'I' for Inactive)
REMARK    1  A    between atoms: N1_2  and  C1_1 
REMARK    2  A    between atoms: C2_3  and  O2_5 
REMARK    3  A    between atoms: C9_17  and  N3_8 
REMARK       I    between atoms: N3_8  and  C11_20 
REMARK    4  A    between atoms: C4_9  and  O4_10 
REMARK    5  A    between atoms: C5_11  and  C6_13 
REMARK    6  A    between atoms: C6_13  and  O6_14 
REMARK    7  A    between atoms: C11_20  and  C12_22 
ROOT
ATOM      1  N1  DKY d          34.398  23.619  28.829  0.00  0.00    -0.278 N 
ATOM      2  N2  DKY d          34.588  24.695  30.950  0.00  0.00    -0.176 NA
ATOM      3  C7  DKY d          35.799  23.664  28.680  0.00  0.00     0.102 A 
ATOM      4  C8  DKY d          36.568  24.239  29.695  0.00  0.00     0.068 A 
ATOM      5  C9  DKY d          35.928  24.769  30.831  0.00  0.00     0.137 A 
ATOM      6  C10 DKY d          33.812  24.143  29.998  0.00  0.00     0.352 A 
ATOM      7  O10 DKY d          32.589  24.113  30.151  0.00  0.00    -0.244 OA
ENDROOT
BRANCH   1   8
ATOM      8  C1  DKY d          33.505  23.012  27.813  0.00  0.00     0.264 C 
ATOM      9  C2  DKY d          33.908  23.172  26.334  0.00  0.00     0.204 C 
ATOM     10  C3  DKY d          32.900  22.448  25.412  0.00  0.00     0.234 C 
ATOM     11  F3  DKY d          33.389  22.389  24.118  0.00  0.00    -0.244 F 
ATOM     12  C4  DKY d          32.558  21.027  25.922  0.00  0.00     0.185 C 
ATOM     13  C5  DKY d          32.366  20.955  27.462  0.00  0.00     0.179 C 
ATOM     14  O5  DKY d          33.462  21.593  28.144  0.00  0.00    -0.353 OA
BRANCH   9  15
ATOM     15  O2  DKY d          34.005  24.564  25.992  0.00  0.00    -0.388 OA
ATOM     16  H3  DKY d          34.254  24.648  25.079  0.00  0.00     0.210 HD
ENDBRANCH   9  15
BRANCH  12  17
ATOM     17  O4  DKY d          31.381  20.543  25.273  0.00  0.00    -0.390 OA
ATOM     18  H7  DKY d          31.180  19.671  25.593  0.00  0.00     0.210 HD
ENDBRANCH  12  17
BRANCH  13  19
ATOM     19  C6  DKY d          32.318  19.500  27.933  0.00  0.00     0.198 C 
BRANCH  19  20
ATOM     20  O6  DKY d          33.438  18.802  27.363  0.00  0.00    -0.398 OA
ATOM     21  H11 DKY d          34.245  19.211  27.652  0.00  0.00     0.209 HD
ENDBRANCH  19  20
ENDBRANCH  13  19
ENDBRANCH   1   8
BRANCH   5  22
ATOM     22  N3  DKY d          36.604  25.324  31.853  0.00  0.00    -0.307 N 
ATOM     23  C11 DKY d          37.859  25.797  31.785  0.00  0.00     0.257 C 
ATOM     24  O11 DKY d          38.548  25.801  30.762  0.00  0.00    -0.267 OA
ATOM     25  H5  DKY d          36.135  25.390  32.733  0.00  0.00     0.170 HD
BRANCH  23  26
ATOM     26  C12 DKY d          38.421  26.366  33.104  0.00  0.00     0.032 A 
ATOM     27  C13 DKY d          39.785  26.667  33.204  0.00  0.00     0.017 A 
ATOM     28  C14 DKY d          40.319  27.173  34.392  0.00  0.00     0.001 A 
ATOM     29  C15 DKY d          39.477  27.378  35.488  0.00  0.00     0.000 A 
ATOM     30  C16 DKY d          38.119  27.076  35.397  0.00  0.00     0.001 A 
ATOM     31  C17 DKY d          37.593  26.570  34.207  0.00  0.00     0.017 A 
ENDBRANCH  23  26
ENDBRANCH   5  22
TORSDOF 7
