REMARK  8 active torsions:
REMARK  status: ('A' for Active; 'I' for Inactive)
REMARK    1  A    between atoms: C1_1  and  C7_7 
REMARK    2  A    between atoms: C7_7  and  N1_8 
REMARK    3  A    between atoms: C8_12  and  C1'_13 
REMARK    4  A    between atoms: C3'_15  and  C31'_16 
REMARK    5  A    between atoms: C31'_16  and  C32'_17 
REMARK    6  A    between atoms: C32'_17  and  N33'_18 
REMARK    7  A    between atoms: C5'_20  and  C1''_23 
REMARK    8  A    between atoms: C6'_21  and  O6'_22 
ROOT
ATOM      1  C1' MOL d          43.009  -1.840  31.818  0.00  0.00     0.044 A 
ATOM      2  C2' MOL d          42.656  -2.971  32.593  0.00  0.00     0.025 A 
ATOM      3  C3' MOL d          42.406  -2.887  33.964  0.00  0.00    -0.055 A 
ATOM      4  C4' MOL d          42.506  -1.643  34.575  0.00  0.00     0.022 A 
ATOM      5  C5' MOL d          42.849  -0.484  33.872  0.00  0.00     0.009 A 
ATOM      6  C6' MOL d          43.094  -0.605  32.498  0.00  0.00     0.090 A 
ENDROOT
BRANCH   1   7
ATOM      7  C8  MOL d          43.256  -1.952  30.426  0.00  0.00     0.142 A 
ATOM      8  N3  MOL d          43.652  -0.951  29.699  0.00  0.00    -0.338 N 
ATOM      9  C4  MOL d          43.817  -1.434  28.514  0.00  0.00     0.062 A 
ATOM     10  H8  MOL d          43.802   0.021  30.004  0.00  0.00     0.167 HD
ATOM     11  C3  MOL d          44.231  -0.821  27.373  0.00  0.00     0.033 A 
ATOM     12  C5  MOL d          43.517  -2.750  28.575  0.00  0.00     0.086 A 
ATOM     13  C2  MOL d          44.333  -1.625  26.242  0.00  0.00     0.017 A 
ATOM     14  C1  MOL d          44.022  -3.031  26.234  0.00  0.00     0.009 A 
ATOM     15  C6  MOL d          43.591  -3.604  27.467  0.00  0.00     0.049 A 
ATOM     16  N4  MOL d          43.150  -3.116  29.790  0.00  0.00    -0.228 NA
BRANCH  14  17
ATOM     17  C7  MOL d          44.153  -3.791  25.043  0.00  0.00     0.102 C 
ATOM     18  N2  MOL d          44.495  -3.164  23.927  0.00  0.00    -0.385 N 
ATOM     19  H6  MOL d          44.664  -2.148  23.938  0.00  0.00     0.157 HD
ATOM     20  H7  MOL d          44.592  -3.693  23.048  0.00  0.00     0.157 HD
BRANCH  17  21
ATOM     21  N1  MOL d          43.929  -5.095  25.062  0.00  0.00    -0.385 N 
ATOM     22  H4  MOL d          44.024  -5.646  24.197  0.00  0.00     0.157 HD
ATOM     23  H5  MOL d          43.660  -5.559  25.942  0.00  0.00     0.157 HD
ENDBRANCH  17  21
ENDBRANCH  14  17
ENDBRANCH   1   7
BRANCH   6  24
ATOM     24  O6' MOL d          43.433   0.529  31.809  0.00  0.00    -0.359 OA
ATOM     25  H18 MOL d          43.572   0.313  30.894  0.00  0.00     0.217 HD
ENDBRANCH   6  24
BRANCH   3  26
ATOM     26  C31 MOL d          42.043  -4.149  34.816  0.00  0.00     0.066 C 
BRANCH  26  27
ATOM     27  C32 MOL d          40.537  -4.558  34.655  0.00  0.00     0.234 C 
BRANCH  27  28
ATOM     28  N33 MOL d          40.338  -5.959  35.203  0.00  0.00    -0.079 N 
ATOM     29  H14 MOL d          39.371  -6.225  35.101  0.00  0.00     0.274 HD
ATOM     30  H15 MOL d          40.591  -5.977  36.179  0.00  0.00     0.274 HD
ATOM     31  H16 MOL d          40.920  -6.605  34.693  0.00  0.00     0.274 HD
ENDBRANCH  27  28
ENDBRANCH  26  27
ENDBRANCH   3  26
BRANCH   5  32
ATOM     32  C1' MOL d          42.928   0.728  34.573  0.00  0.00    -0.023 A 
ATOM     33  C2' MOL d          44.121   1.467  34.685  0.00  0.00     0.012 A 
ATOM     34  C3' MOL d          44.173   2.663  35.421  0.00  0.00     0.001 A 
ATOM     35  C4' MOL d          43.042   3.158  36.062  0.00  0.00     0.000 A 
ATOM     36  C5' MOL d          41.845   2.445  35.966  0.00  0.00     0.001 A 
ATOM     37  C6' MOL d          41.792   1.251  35.228  0.00  0.00     0.012 A 
ENDBRANCH   5  32
TORSDOF 8
