REMARK  6 active torsions:
REMARK  status: ('A' for Active; 'I' for Inactive)
REMARK    1  A    between atoms: OAU_2  and  CAT_3 
REMARK    2  A    between atoms: CAT_3  and  CAS_5 
REMARK    3  A    between atoms: CAS_5  and  CBD_6 
REMARK    4  A    between atoms: CAS_5  and  CAI_8 
REMARK    5  A    between atoms: CAB_19  and  OAL_20 
REMARK    6  A    between atoms: CAG_24  and  CAQ_25 
ROOT
ATOM      1  CAI MOL d          69.750  -6.894  71.713  0.00  0.00     0.194 C 
ATOM      2  NAH MOL d          69.612  -6.375  73.111  0.00  0.00    -0.274 NA
ATOM      3  CAJ MOL d          68.783  -6.188  70.960  0.00  0.00     0.161 A 
ATOM      4  NAN MOL d          67.625  -6.656  70.456  0.00  0.00    -0.132 NA
ATOM      5  NAO MOL d          67.053  -5.684  69.856  0.00  0.00    -0.135 NA
ATOM      6  CAP MOL d          67.835  -4.593  69.964  0.00  0.00     0.131 A 
ATOM      7  CAR MOL d          67.519  -3.229  69.370  0.00  0.00     0.093 C 
ATOM      8  NAK MOL d          68.928  -4.890  70.665  0.00  0.00    -0.282 N 
ATOM      9  CAE MOL d          70.021  -4.216  71.089  0.00  0.00     0.055 A 
ATOM     10  CAF MOL d          70.650  -3.380  70.159  0.00  0.00     0.034 A 
ATOM     11  CAA MOL d          71.807  -2.678  70.516  0.00  0.00     0.039 A 
ATOM     12  CAB MOL d          72.357  -2.812  71.795  0.00  0.00     0.069 A 
ATOM     13  CAC MOL d          71.736  -3.651  72.713  0.00  0.00     0.053 A 
ATOM     14  CAD MOL d          70.575  -4.337  72.379  0.00  0.00     0.023 A 
ATOM     15  CAG MOL d          70.069  -5.139  73.407  0.00  0.00     0.074 C 
ENDROOT
BRANCH   1  16
ATOM     16  CAS MOL d          69.795  -8.414  71.557  0.00  0.00     0.117 C 
BRANCH  16  17
ATOM     17  CAT MOL d          70.789  -8.974  72.588  0.00  0.00     0.265 C 
ATOM     18  OAV MOL d          71.747  -8.310  73.003  0.00  0.00    -0.265 OA
BRANCH  17  19
ATOM     19  OAU MOL d          70.618 -10.280  72.862  0.00  0.00    -0.326 OA
ATOM     20  CAW MOL d          71.869 -10.958  73.041  0.00  0.00     0.213 C 
ENDBRANCH  17  19
ENDBRANCH  16  17
BRANCH  16  21
ATOM     21  CBD MOL d          70.469  -8.875  70.279  0.00  0.00     0.013 C 
ATOM     22  CBE MOL d          70.130  -8.022  69.073  0.00  0.00     0.006 C 
ENDBRANCH  16  21
ENDBRANCH   1  16
BRANCH  15  23
ATOM     23  CAQ MOL d          69.935  -4.629  74.717  0.00  0.00    -0.007 A 
ATOM     24  CAX MOL d          69.689  -3.266  74.956  0.00  0.00     0.015 A 
ATOM     25  CAY MOL d          69.558  -2.778  76.263  0.00  0.00     0.024 A 
ATOM     26  CAZ MOL d          69.659  -3.648  77.337  0.00  0.00     0.034 A 
ATOM     27 CL1  MOL d          69.493  -3.073  78.963  0.00  0.00    -0.084 Cl
ATOM     28  CBA MOL d          69.905  -5.000  77.111  0.00  0.00     0.024 A 
ATOM     29  CBB MOL d          70.039  -5.488  75.812  0.00  0.00     0.015 A 
ENDBRANCH  15  23
BRANCH  12  30
ATOM     30  OAL MOL d          73.481  -2.163  72.236  0.00  0.00    -0.356 OA
ATOM     31  CAM MOL d          74.253  -1.404  71.289  0.00  0.00     0.210 C 
ENDBRANCH  12  30
TORSDOF 6
