REMARK  7 active torsions:
REMARK  status: ('A' for Active; 'I' for Inactive)
REMARK    1  A    between atoms: P_1  and  O5'_5 
REMARK    2  A    between atoms: O5'_5  and  C5'_6 
REMARK    3  A    between atoms: C5'_6  and  C4'_7 
REMARK    4  A    between atoms: C3'_9  and  O3'_10 
REMARK    5  A    between atoms: C2'_11  and  O2'_12 
REMARK    6  A    between atoms: C1'_13  and  N1_14 
REMARK    7  A    between atoms: C3_18  and  C7_20 
ROOT
ATOM      1  C4' NCN d          16.155 -27.248  18.025  0.00  0.00     0.180 C 
ATOM      2  O4' NCN d          14.912 -27.924  18.101  0.00  0.00    -0.354 OA
ATOM      3  C3' NCN d          16.084 -26.250  19.212  0.00  0.00     0.182 C 
ATOM      4  C2' NCN d          14.618 -25.818  19.178  0.00  0.00     0.198 C 
ATOM      5  C1' NCN d          13.898 -26.961  18.414  0.00  0.00     0.255 C 
ENDROOT
BRANCH   5   6
ATOM      6  N1  NCN d          12.792 -27.520  19.213  0.00  0.00    -0.357 N 
ATOM      7  C6  NCN d          12.860 -28.800  19.741  0.00  0.00     0.088 A 
ATOM      8  C5  NCN d          11.779 -29.317  20.491  0.00  0.00     0.018 A 
ATOM      9  C4  NCN d          10.628 -28.508  20.689  0.00  0.00     0.017 A 
ATOM     10  C3  NCN d          10.576 -27.193  20.140  0.00  0.00     0.036 A 
ATOM     11  C2  NCN d          11.683 -26.737  19.407  0.00  0.00     0.170 A 
BRANCH  10  12
ATOM     12  C7  NCN d           9.365 -26.298  20.326  0.00  0.00     0.206 C 
ATOM     13  O7  NCN d           8.314 -26.737  21.010  0.00  0.00    -0.644 OA
ATOM     14  O8  NCN d           9.361 -25.190  19.837  0.00  0.00    -0.644 OA
ENDBRANCH  10  12
ENDBRANCH   5   6
BRANCH   4  15
ATOM     15  O2' NCN d          14.467 -24.592  18.424  0.00  0.00    -0.388 OA
ATOM     16  H7  NCN d          14.982 -23.905  18.832  0.00  0.00     0.210 HD
ENDBRANCH   4  15
BRANCH   1  17
ATOM     17  C5' NCN d          17.342 -28.231  18.092  0.00  0.00     0.217 C 
BRANCH  17  18
ATOM     18  O5' NCN d          16.939 -29.440  18.732  0.00  0.00    -0.280 OA
BRANCH  18  19
ATOM     19  P   NCN d          16.910 -29.643  20.325  0.00  0.00     0.422 P 
ATOM     20  O1P NCN d          16.525 -31.070  20.620  0.00  0.00    -0.617 OA
ATOM     21  O2P NCN d          15.822 -28.651  20.958  0.00  0.00    -0.617 OA
ATOM     22  O3P NCN d          18.356 -29.288  20.945  0.00  0.00    -0.617 OA
ENDBRANCH  18  19
ENDBRANCH  17  18
ENDBRANCH   1  17
BRANCH   3  23
ATOM     23  O3' NCN d          16.902 -25.104  18.987  0.00  0.00    -0.390 OA
ATOM     24  H5  NCN d          16.609 -24.657  18.202  0.00  0.00     0.210 HD
ENDBRANCH   3  23
TORSDOF 7
