REMARK  7 active torsions:
REMARK  status: ('A' for Active; 'I' for Inactive)
REMARK    1  A    between atoms: C3_3  and  O3_4 
REMARK    2  A    between atoms: C7_8  and  O7_9 
REMARK    3  A    between atoms: C12_14  and  O12_15 
REMARK    4  A    between atoms: C17_20  and  C20_23 
REMARK    5  A    between atoms: C20_23  and  C22_25 
REMARK    6  A    between atoms: C22_25  and  C23_26 
REMARK    7  A    between atoms: C23_26  and  C24_28 
ROOT
ATOM      1  C1  CHD d          -9.118  -4.958 -15.746  0.00  0.00     0.012 C 
ATOM      2  C2  CHD d          -8.286  -5.661 -16.805  0.00  0.00     0.032 C 
ATOM      3  C3  CHD d          -7.272  -4.661 -17.314  0.00  0.00     0.118 C 
ATOM      4  C4  CHD d          -6.601  -3.966 -16.129  0.00  0.00     0.037 C 
ATOM      5  C5  CHD d          -6.837  -4.594 -14.747  0.00  0.00    -0.001 C 
ATOM      6  C6  CHD d          -6.204  -3.696 -13.679  0.00  0.00     0.037 C 
ATOM      7  C7  CHD d          -6.759  -3.990 -12.284  0.00  0.00     0.123 C 
ATOM      8  C8  CHD d          -8.258  -3.668 -12.211  0.00  0.00     0.024 C 
ATOM      9  C9  CHD d          -8.844  -3.685 -13.621  0.00  0.00     0.003 C 
ATOM     10  C10 CHD d          -8.317  -4.848 -14.456  0.00  0.00    -0.036 C 
ATOM     11  C11 CHD d         -10.369  -3.657 -13.562  0.00  0.00     0.038 C 
ATOM     12  C12 CHD d         -10.920  -2.405 -12.849  0.00  0.00     0.127 C 
ATOM     13  C13 CHD d         -10.163  -2.113 -11.529  0.00  0.00    -0.010 C 
ATOM     14  C14 CHD d          -8.650  -2.308 -11.626  0.00  0.00     0.003 C 
ATOM     15  C15 CHD d          -8.209  -1.931 -10.217  0.00  0.00     0.006 C 
ATOM     16  C16 CHD d          -9.118  -0.725  -9.906  0.00  0.00     0.006 C 
ATOM     17  C17 CHD d         -10.224  -0.691 -10.969  0.00  0.00     0.000 C 
ATOM     18  C18 CHD d         -10.692  -3.047 -10.439  0.00  0.00     0.018 C 
ATOM     19  C19 CHD d          -8.469  -6.172 -13.702  0.00  0.00     0.016 C 
ENDROOT
BRANCH  17  20
ATOM     20  C20 CHD d         -11.582  -0.288 -10.382  0.00  0.00    -0.013 C 
ATOM     21  C21 CHD d         -12.404   0.558 -11.360  0.00  0.00     0.010 C 
BRANCH  20  22
ATOM     22  C22 CHD d         -11.427   0.436  -9.043  0.00  0.00     0.015 C 
BRANCH  22  23
ATOM     23  C23 CHD d         -11.801   1.922  -9.108  0.00  0.00     0.113 C 
BRANCH  23  24
ATOM     24  C24 CHD d         -10.622   2.800  -9.486  0.00  0.00     0.172 C 
ATOM     25  O25 CHD d          -9.614   2.786  -8.731  0.00  0.00    -0.648 OA
ATOM     26  O26 CHD d         -10.913   3.818 -10.154  0.00  0.00    -0.648 OA
ENDBRANCH  23  24
ENDBRANCH  22  23
ENDBRANCH  20  22
ENDBRANCH  17  20
BRANCH  12  27
ATOM     27  O12 CHD d         -11.030  -1.266 -13.733  0.00  0.00    -0.395 OA
ATOM     28  H19 CHD d         -11.372  -0.523 -13.250  0.00  0.00     0.210 HD
ENDBRANCH  12  27
BRANCH   7  29
ATOM     29  O7  CHD d          -6.012  -3.284 -11.289  0.00  0.00    -0.395 OA
ATOM     30  H13 CHD d          -6.369  -3.477 -10.430  0.00  0.00     0.210 HD
ENDBRANCH   7  29
BRANCH   3  31
ATOM     31  O3  CHD d          -7.971  -3.698 -18.110  0.00  0.00    -0.396 OA
ATOM     32  H6  CHD d          -7.354  -3.056 -18.443  0.00  0.00     0.210 HD
ENDBRANCH   3  31
TORSDOF 7
