REMARK  17 active torsions:
REMARK  status: ('A' for Active; 'I' for Inactive)
REMARK    1  A    between atoms: CAJ_10  and  OAA_1 
REMARK    2  A    between atoms: CAK_11  and  OAB_2 
REMARK    3  A    between atoms: CAN_14  and  OAC_3 
REMARK    4  A    between atoms: CAO_15  and  OAD_4 
REMARK    5  A    between atoms: CAP_16  and  OAE_5 
REMARK    6  A    between atoms: CAQ_17  and  OAF_6 
REMARK    7  A    between atoms: CAR_18  and  OAG_7 
REMARK    8  A    between atoms: CAS_19  and  OAH_8 
REMARK    9  A    between atoms: CAT_20  and  OAI_9 
REMARK   10  A    between atoms: CAN_14  and  CAJ_10 
REMARK   11  A    between atoms: CAU_21  and  CAK_11 
REMARK   12  A    between atoms: CAL_12  and  CAO_15 
REMARK   13  A    between atoms: SAV_22  and  CAL_12 
REMARK   14  A    between atoms: CAQ_17  and  CAN_14 
REMARK   15  A    between atoms: CAO_15  and  CAR_18 
REMARK   16  A    between atoms: CAS_19  and  CAQ_17 
REMARK   17  A    between atoms: CAR_18  and  CAS_19 
ROOT
ATOM      1  CAO DSK d          -2.544 -19.366 -21.644  0.00  0.00     0.158 C 
ENDROOT
BRANCH   1   2
ATOM      2  OAD DSK d          -1.840 -19.067 -22.841  0.00  0.00    -0.392 OA
ATOM      3  H4  DSK d          -2.198 -19.581 -23.555  0.00  0.00     0.210 HD
ENDBRANCH   1   2
BRANCH   1   4
ATOM      4  CAL DSK d          -1.987 -18.541 -20.442  0.00  0.00     0.098 C 
BRANCH   4   5
ATOM      5  SAV DSK d          -2.294 -16.769 -20.653  0.00  0.00    -0.206 SA
ATOM      6  CAM DSK d          -0.941 -15.961 -21.602  0.00  0.00     0.098 C 
ATOM      7  CAP DSK d           0.095 -15.714 -20.486  0.00  0.00     0.156 C 
ATOM      8  CAT DSK d          -0.741 -15.046 -19.360  0.00  0.00     0.162 C 
ATOM      9  CAU DSK d          -1.849 -16.081 -19.012  0.00  0.00     0.092 C 
BRANCH   7  10
ATOM     10  OAE DSK d           1.159 -14.804 -20.900  0.00  0.00    -0.392 OA
ATOM     11  H5  DSK d           1.769 -14.684 -20.182  0.00  0.00     0.210 HD
ENDBRANCH   7  10
BRANCH   8  12
ATOM     12  OAI DSK d           0.139 -14.861 -18.244  0.00  0.00    -0.392 OA
ATOM     13  H9  DSK d           0.864 -14.303 -18.503  0.00  0.00     0.210 HD
ENDBRANCH   8  12
BRANCH   9  14
ATOM     14  CAK DSK d          -3.040 -15.524 -18.184  0.00  0.00     0.181 C 
BRANCH  14  15
ATOM     15  OAB DSK d          -3.563 -14.288 -18.681  0.00  0.00    -0.400 OA
ATOM     16  H2  DSK d          -4.285 -14.007 -18.131  0.00  0.00     0.209 HD
ENDBRANCH  14  15
ENDBRANCH   9  14
ENDBRANCH   4   5
ENDBRANCH   1   4
BRANCH   1  17
ATOM     17  CAR DSK d          -2.502 -20.873 -21.405  0.00  0.00     0.178 C 
BRANCH  17  18
ATOM     18  OAG DSK d          -3.423 -21.123 -20.329  0.00  0.00    -0.390 OA
ATOM     19  H7  DSK d          -4.292 -20.838 -20.585  0.00  0.00     0.210 HD
ENDBRANCH  17  18
BRANCH  17  20
ATOM     20  CAS DSK d          -3.052 -21.639 -22.631  0.00  0.00     0.180 C 
BRANCH  20  21
ATOM     21  OAH DSK d          -4.341 -21.141 -22.986  0.00  0.00    -0.390 OA
ATOM     22  H8  DSK d          -4.949 -21.305 -22.275  0.00  0.00     0.210 HD
ENDBRANCH  20  21
BRANCH  20  23
ATOM     23  CAQ DSK d          -3.156 -23.141 -22.376  0.00  0.00     0.180 C 
BRANCH  23  24
ATOM     24  OAF DSK d          -1.862 -23.613 -21.984  0.00  0.00    -0.390 OA
ATOM     25  H6  DSK d          -1.239 -23.441 -22.680  0.00  0.00     0.210 HD
ENDBRANCH  23  24
BRANCH  23  26
ATOM     26  CAN DSK d          -3.577 -23.889 -23.660  0.00  0.00     0.173 C 
BRANCH  26  27
ATOM     27  OAC DSK d          -2.525 -23.778 -24.630  0.00  0.00    -0.391 OA
ATOM     28  H3  DSK d          -1.732 -24.168 -24.282  0.00  0.00     0.210 HD
ENDBRANCH  26  27
BRANCH  26  29
ATOM     29  CAJ DSK d          -3.841 -25.365 -23.336  0.00  0.00     0.198 C 
BRANCH  29  30
ATOM     30  OAA DSK d          -4.582 -25.927 -24.406  0.00  0.00    -0.398 OA
ATOM     31  H1  DSK d          -4.755 -26.843 -24.223  0.00  0.00     0.209 HD
ENDBRANCH  29  30
ENDBRANCH  26  29
ENDBRANCH  23  26
ENDBRANCH  20  23
ENDBRANCH  17  20
ENDBRANCH   1  17
TORSDOF 17
