REMARK  10 active torsions:
REMARK  status: ('A' for Active; 'I' for Inactive)
REMARK    1  A    between atoms: O3B_8  and  PG_1 
REMARK    2  A    between atoms: PB_5  and  O3B_8 
REMARK    3  A    between atoms: O3A_12  and  PB_5 
REMARK    4  A    between atoms: PA_9  and  O3A_12 
REMARK    5  A    between atoms: O5'_23  and  PA_9 
REMARK    6  A    between atoms: C1'_31  and  N9_13 
REMARK    7  A    between atoms: C5'_24  and  O5'_23 
REMARK    8  A    between atoms: C4'_25  and  C5'_24 
REMARK    9  A    between atoms: C3'_27  and  O3'_28 
REMARK   10  A    between atoms: C2'_29  and  O2'_30 
ROOT
ATOM      1  C4' ATP d           0.529  29.981  15.569  0.00  0.00     0.180 C 
ATOM      2  O4' ATP d           0.459  31.410  15.664  0.00  0.00    -0.353 OA
ATOM      3  C3' ATP d           2.006  29.641  15.662  0.00  0.00     0.182 C 
ATOM      4  C2' ATP d           2.542  30.829  16.481  0.00  0.00     0.198 C 
ATOM      5  C1' ATP d           1.742  31.990  15.834  0.00  0.00     0.262 C 
ENDROOT
BRANCH   1   6
ATOM      6  C5' ATP d          -0.362  29.329  16.637  0.00  0.00     0.216 C 
BRANCH   6   7
ATOM      7  O5' ATP d           0.257  29.478  17.942  0.00  0.00    -0.287 OA
BRANCH   7   8
ATOM      8  PA  ATP d          -0.277  28.681  19.186  0.00  0.00     0.417 P 
ATOM      9  O1A ATP d          -1.743  29.098  19.414  0.00  0.00    -0.624 OA
ATOM     10  O2A ATP d           0.692  28.914  20.334  0.00  0.00    -0.624 OA
BRANCH   8  11
ATOM     11  O3A ATP d          -0.091  27.180  18.642  0.00  0.00    -0.180 OA
BRANCH  11  12
ATOM     12  PB  ATP d          -0.721  25.752  19.145  0.00  0.00     0.428 P 
ATOM     13  O1B ATP d          -1.647  25.382  17.986  0.00  0.00    -0.624 OA
ATOM     14  O2B ATP d           0.476  24.839  19.507  0.00  0.00    -0.624 OA
BRANCH  12  15
ATOM     15  O3B ATP d          -1.590  25.987  20.507  0.00  0.00    -0.173 OA
BRANCH  15  16
ATOM     16  PG  ATP d          -3.240  26.027  20.614  0.00  0.00     0.431 P 
ATOM     17  O1G ATP d          -3.563  25.486  22.004  0.00  0.00    -0.616 OA
ATOM     18  O2G ATP d          -3.805  25.134  19.515  0.00  0.00    -0.616 OA
ATOM     19  O3G ATP d          -3.584  27.505  20.406  0.00  0.00    -0.616 OA
ENDBRANCH  15  16
ENDBRANCH  12  15
ENDBRANCH  11  12
ENDBRANCH   8  11
ENDBRANCH   7   8
ENDBRANCH   6   7
ENDBRANCH   1   6
BRANCH   3  20
ATOM     20  O3' ATP d           2.591  29.729  14.341  0.00  0.00    -0.390 OA
ATOM     21  H9  ATP d           3.516  29.517  14.391  0.00  0.00     0.210 HD
ENDBRANCH   3  20
BRANCH   5  22
ATOM     22  N9  ATP d           1.579  33.125  16.785  0.00  0.00    -0.294 N 
ATOM     23  C8  ATP d           0.615  33.249  17.737  0.00  0.00     0.214 A 
ATOM     24  N7  ATP d           0.775  34.425  18.405  0.00  0.00    -0.236 NA
ATOM     25  C5  ATP d           1.834  35.060  17.876  0.00  0.00     0.149 A 
ATOM     26  C6  ATP d           2.531  36.325  18.130  0.00  0.00     0.155 A 
ATOM     27  C4  ATP d           2.364  34.189  16.796  0.00  0.00     0.167 A 
ATOM     28  N6  ATP d           2.101  37.153  19.126  0.00  0.00    -0.382 N 
ATOM     29  N1  ATP d           3.630  36.630  17.359  0.00  0.00    -0.222 NA
ATOM     30  H2  ATP d           2.591  38.041  19.304  0.00  0.00     0.157 HD
ATOM     31  H3  ATP d           1.287  36.889  19.699  0.00  0.00     0.157 HD
ATOM     32  C2  ATP d           4.048  35.775  16.369  0.00  0.00     0.237 A 
ATOM     33  N3  ATP d           3.449  34.593  16.092  0.00  0.00    -0.222 NA
ENDBRANCH   5  22
BRANCH   4  34
ATOM     34  O2' ATP d           3.923  31.082  16.345  0.00  0.00    -0.388 OA
ATOM     35  H11 ATP d           4.121  31.270  15.435  0.00  0.00     0.210 HD
ENDBRANCH   4  34
TORSDOF 10
