REMARK  6 active torsions:
REMARK  status: ('A' for Active; 'I' for Inactive)
REMARK       I    between atoms: C22_2  and  N27_3 
REMARK    1  A    between atoms: C22_2  and  C19_10 
REMARK    2  A    between atoms: C19_10  and  C18_11 
REMARK    3  A    between atoms: C18_11  and  N17_12 
REMARK    4  A    between atoms: N17_12  and  C8_13 
REMARK    5  A    between atoms: C5_18  and  S2_19 
REMARK    6  A    between atoms: S2_19  and  N1_22 
ROOT
ATOM      1  N17 KR5 d          -3.971   5.523  13.866  0.00  0.00    -0.389 N 
ATOM      2  H   KR5 d          -4.585   6.343  13.756  0.00  0.00     0.159 HD
ENDROOT
BRANCH   1   3
ATOM      3  C18 KR5 d          -2.607   5.522  13.277  0.00  0.00     0.129 C 
BRANCH   3   4
ATOM      4  C19 KR5 d          -2.266   6.836  12.657  0.00  0.00     0.124 C 
BRANCH   4   5
ATOM      5  C22 KR5 d          -1.926   7.788  13.705  0.00  0.00     0.246 C 
ATOM      6  O25 KR5 d          -1.463   7.629  14.813  0.00  0.00    -0.271 OA
ATOM      7  N27 KR5 d          -1.900   9.155  13.327  0.00  0.00    -0.205 N 
ATOM      8  C29 KR5 d          -1.240  10.192  14.109  0.00  0.00     0.037 A 
ATOM      9  N28 KR5 d          -2.555   9.819  12.302  0.00  0.00    -0.170 NA
ATOM     10  C33 KR5 d          -0.369   9.822  15.270  0.00  0.00     0.070 C 
ATOM     11  C30 KR5 d          -1.411  11.447  13.470  0.00  0.00     0.055 A 
ATOM     12  C31 KR5 d          -2.264  11.165  12.359  0.00  0.00     0.053 A 
ATOM     13  C37 KR5 d          -2.825  12.126  11.381  0.00  0.00     0.072 C 
ENDBRANCH   4   5
ENDBRANCH   3   4
ENDBRANCH   1   3
BRANCH   1  14
ATOM     14  C8  KR5 d          -4.415   4.396  14.574  0.00  0.00     0.028 A 
ATOM     15  C7  KR5 d          -3.553   3.396  14.950  0.00  0.00     0.030 A 
ATOM     16  C6  KR5 d          -4.039   2.274  15.661  0.00  0.00     0.027 A 
ATOM     17  C5  KR5 d          -5.403   2.193  15.970  0.00  0.00     0.079 A 
ATOM     18  C10 KR5 d          -6.251   3.234  15.585  0.00  0.00     0.027 A 
ATOM     19  C9  KR5 d          -5.778   4.338  14.890  0.00  0.00     0.030 A 
BRANCH  17  20
ATOM     20  S2  KR5 d          -6.016   0.794  16.833  0.00  0.00     0.256 S 
ATOM     21  O3  KR5 d          -7.409   0.839  16.696  0.00  0.00    -0.201 OA
ATOM     22  O4  KR5 d          -5.458   0.876  18.176  0.00  0.00    -0.201 OA
BRANCH  20  23
ATOM     23  N1  KR5 d          -5.449  -0.526  16.091  0.00  0.00    -0.324 N 
ATOM     24  H   KR5 d          -5.688  -1.434  16.435  0.00  0.00     0.169 HD
ATOM     25  H   KR5 d          -4.860  -0.434  15.288  0.00  0.00     0.169 HD
ENDBRANCH  20  23
ENDBRANCH  17  20
ENDBRANCH   1  14
TORSDOF 6
