4bzs_ligand

Created by X-TOOL on Sat Nov 28 16:00:21 2015
 69 70  0  0  0  0  0  0  0  0999 V2000
   32.0990   13.6600    9.7450  C 0  0  0  2  0  3
   32.9940   12.8810   10.4840  C 0  0  0  2  0  3
   32.7490   11.5230   10.6820  C 0  0  0  1  0  3
   33.6160   10.7570   11.4060  O 0  0  0  2  0  2
   31.6050   10.9460   10.1380  C 0  0  0  2  0  3
   30.7170   11.7220    9.3960  C 0  0  0  2  0  3
   30.9500   13.0810    9.1950  C 0  0  0  1  0  3
   30.0400   13.8490    8.4440  C 0  0  0  3  0  4
   28.9070   14.3850    9.3400  C 0  0  0  2  0  4
   27.6140   15.2730    8.3600  P 0  0  0  1  0  4
   28.3740   16.0580    7.3930  O 0  0  0  1  0  1
   26.7750   14.2140    7.8020  O 0  0  0  1  0  1
   26.9470   16.0890    9.3870  O 0  0  0  1  0  1
   28.2780   13.2550   10.0410  N 0  0  0  2  0  3
   28.1480   13.2450   11.3760  C 0  0  0  1  0  3
   28.5550   14.1460   12.1090  O 0  0  0  1  0  1
   27.4880   12.0060   11.9870  C 0  0  0  2  0  4
   28.2420   11.7820   13.2280  N 0  0  0  2  0  3
   28.9050   10.6430   13.4860  C 0  0  0  1  0  3
   28.9140    9.6590   12.7490  O 0  0  0  1  0  1
   29.7030   10.6580   14.7960  C 0  0  0  2  0  4
   31.2040   10.6380   14.4660  C 0  0  0  2  0  4
   31.6480   12.0700   14.1400  C 0  0  0  4  0  4
   31.9960   10.1030   15.6570  C 0  0  0  3  0  4
   33.4720   10.1520   15.2330  C 0  0  0  4  0  4
   29.3400    9.5060   15.6280  N 0  0  0  2  0  3
   28.8700    9.6660   16.8720  C 0  0  0  1  0  3
   28.5630    8.3680   17.6120  C 0  0  0  4  0  4
   28.6860   10.7560   17.4120  O 0  0  0  1  0  1
   26.0230   12.2930   12.2530  C 0  0  0  3  0  4
   25.3820   11.0540   12.4620  C 0  0  0  1  0  3
   24.5210   10.5160   11.5010  C 0  0  0  2  0  3
   23.8820    9.2950   11.7180  C 0  0  0  2  0  3
   24.0900    8.5980   12.9050  C 0  0  0  1  0  3
   23.4760    7.4050   13.1290  O 0  0  0  2  0  2
   24.9350    9.1280   13.8700  C 0  0  0  2  0  3
   25.5710   10.3460   13.6500  C 0  0  0  2  0  3
   32.2957   14.7158    9.5976  H 0  0  0  1  0  1
   33.8834   13.3353   10.9054  H 0  0  0  1  0  1
   33.2954    9.8633   11.4392  H 0  0  0  1  0  1
   31.4048    9.8918   10.2918  H 0  0  0  1  0  1
   29.8329   11.2623    8.9693  H 0  0  0  1  0  1
   29.6066   13.2215    7.6512  H 0  0  0  1  0  1
   30.5728   14.6975    7.9900  H 0  0  0  1  0  1
   29.3354   15.0806   10.0766  H 0  0  0  1  0  1
   27.9400   12.4774    9.5108  H 0  0  0  1  0  1
   27.5767   11.1376   11.3176  H 0  0  0  1  0  1
   28.2624   12.5112   13.9120  H 0  0  0  1  0  1
   29.4698   11.5801   15.3485  H 0  0  0  1  0  1
   31.3802    9.9908   13.5942  H 0  0  0  1  0  1
   32.7217   12.0755   13.9008  H 0  0  0  1  0  1
   31.4627   12.7182   15.0092  H 0  0  0  1  0  1
   31.0781   12.4430   13.2763  H 0  0  0  1  0  1
   31.6964    9.0690   15.8831  H 0  0  0  1  0  1
   31.8305   10.7347   16.5422  H 0  0  0  1  0  1
   34.1017    9.7768   16.0532  H 0  0  0  1  0  1
   33.7525   11.1899   15.0007  H 0  0  0  1  0  1
   33.6185    9.5243   14.3416  H 0  0  0  1  0  1
   29.4455    8.5825   15.2591  H 0  0  0  1  0  1
   28.1848    8.6004   18.6184  H 0  0  0  1  0  1
   29.4807    7.7673   17.6949  H 0  0  0  1  0  1
   27.8021    7.8003   17.0564  H 0  0  0  1  0  1
   25.5772   12.8058   11.3880  H 0  0  0  1  0  1
   25.9200   12.9252   13.1472  H 0  0  0  1  0  1
   24.3478   11.0541   10.5760  H 0  0  0  1  0  1
   23.2219    8.8880   10.9605  H 0  0  0  1  0  1
   23.7305    7.0744   13.9825  H 0  0  0  1  0  1
   25.1000    8.5918   14.7975  H 0  0  0  1  0  1
   26.2242   10.7518   14.4140  H 0  0  0  1  0  1
  1  2  4  0  0  1
  1  7  4  0  0  1
  2  3  4  0  0  1
  3  4  1  0  0  2
  3  5  4  0  0  1
  5  6  4  0  0  1
  6  7  4  0  0  1
  7  8  1  0  0  2
  8  9  1  0  0  2
  9 10  1  0  0  2
  9 14  1  0  0  2
 10 11  2  0  0  2
 10 12  2  0  0  2
 10 13  2  0  0  2
 14 15  1  0  0  2
 15 16  2  0  0  2
 15 17  1  0  0  2
 17 18  1  0  0  2
 17 30  1  0  0  2
 18 19  1  0  0  2
 19 20  2  0  0  2
 19 21  1  0  0  2
 21 22  1  0  0  2
 21 26  1  0  0  2
 22 23  1  0  0  2
 22 24  1  0  0  2
 24 25  1  0  0  2
 26 27  1  0  0  2
 27 28  1  0  0  2
 27 29  2  0  0  2
 30 31  1  0  0  2
 31 32  4  0  0  1
 31 37  4  0  0  1
 32 33  4  0  0  1
 33 34  4  0  0  1
 34 35  1  0  0  2
 34 36  4  0  0  1
 36 37  4  0  0  1
  1 38  1  0  0  2
  2 39  1  0  0  2
  4 40  1  0  0  2
  5 41  1  0  0  2
  6 42  1  0  0  2
  8 43  1  0  0  2
  8 44  1  0  0  2
  9 45  1  0  0  2
 14 46  1  0  0  2
 17 47  1  0  0  2
 18 48  1  0  0  2
 21 49  1  0  0  2
 22 50  1  0  0  2
 23 51  1  0  0  2
 23 52  1  0  0  2
 23 53  1  0  0  2
 24 54  1  0  0  2
 24 55  1  0  0  2
 25 56  1  0  0  2
 25 57  1  0  0  2
 25 58  1  0  0  2
 26 59  1  0  0  2
 28 60  1  0  0  2
 28 61  1  0  0  2
 28 62  1  0  0  2
 30 63  1  0  0  2
 30 64  1  0  0  2
 32 65  1  0  0  2
 33 66  1  0  0  2
 35 67  1  0  0  2
 36 68  1  0  0  2
 37 69  1  0  0  2
M  END
> <MOLECULAR_FORMULA>
C25H32N3O8P

> <MOLECULAR_WEIGHT>
533.3

> <NUM_HB_ATOMS>
11 

> <NUM_ROTOR>
11 

> <XLOGP2>
1.74 

$$$$
