REMARK  5 active torsions:
REMARK  status: ('A' for Active; 'I' for Inactive)
REMARK    1  A    between atoms: C2'_10  and  O2'_11 
REMARK    2  A    between atoms: C1'_12  and  N9_13 
REMARK    3  A    between atoms: C2_20  and  N2_21 
REMARK    4  A    between atoms: C2A_33  and  O2A_34 
REMARK    5  A    between atoms: C1A_35  and  N91_36 
ROOT
ATOM      1  P1  C2E d         -27.655  -1.458 -15.217  0.00  0.00     0.408 P 
ATOM      2  O2P C2E d         -28.573  -0.388 -14.465  0.00  0.00    -0.624 OA
ATOM      3  O1P C2E d         -27.983  -1.350 -16.653  0.00  0.00    -0.624 OA
ATOM      4  O5' C2E d         -26.093  -1.147 -15.160  0.00  0.00    -0.287 OA
ATOM      5  C5' C2E d         -25.575  -0.174 -16.088  0.00  0.00     0.216 C 
ATOM      6  C4' C2E d         -24.960  -0.796 -17.360  0.00  0.00     0.180 C 
ATOM      7  O4' C2E d         -24.410   0.268 -18.174  0.00  0.00    -0.353 OA
ATOM      8  C3' C2E d         -23.761  -1.606 -16.884  0.00  0.00     0.198 C 
ATOM      9  O3' C2E d         -23.636  -2.786 -17.692  0.00  0.00    -0.279 OA
ATOM     10  C2' C2E d         -22.562  -0.640 -17.034  0.00  0.00     0.199 C 
ATOM     11  C1' C2E d         -22.996   0.165 -18.259  0.00  0.00     0.262 C 
ATOM     12  P11 C2E d         -23.353  -4.170 -16.921  0.00  0.00     0.408 P 
ATOM     13  O21 C2E d         -23.180  -5.293 -18.010  0.00  0.00    -0.624 OA
ATOM     14  O11 C2E d         -22.231  -4.030 -15.971  0.00  0.00    -0.624 OA
ATOM     15  O5A C2E d         -24.660  -4.413 -16.056  0.00  0.00    -0.287 OA
ATOM     16  C5A C2E d         -25.914  -4.593 -16.728  0.00  0.00     0.216 C 
ATOM     17  C4A C2E d         -27.006  -4.978 -15.733  0.00  0.00     0.180 C 
ATOM     18  O4A C2E d         -26.653  -6.217 -15.100  0.00  0.00    -0.353 OA
ATOM     19  C3A C2E d         -27.199  -3.990 -14.581  0.00  0.00     0.198 C 
ATOM     20  O3A C2E d         -28.103  -2.940 -14.902  0.00  0.00    -0.279 OA
ATOM     21  C2A C2E d         -27.883  -4.889 -13.549  0.00  0.00     0.199 C 
ATOM     22  C1A C2E d         -27.173  -6.227 -13.786  0.00  0.00     0.262 C 
ENDROOT
BRANCH  11  23
ATOM     23  N9  C2E d         -22.435   1.505 -18.341  0.00  0.00    -0.295 N 
ATOM     24  C8  C2E d         -21.856   2.231 -17.327  0.00  0.00     0.214 A 
ATOM     25  N7  C2E d         -21.634   3.459 -17.737  0.00  0.00    -0.234 NA
ATOM     26  C5  C2E d         -22.041   3.565 -19.036  0.00  0.00     0.171 A 
ATOM     27  C6  C2E d         -22.038   4.621 -19.975  0.00  0.00     0.292 A 
ATOM     28  C4  C2E d         -22.532   2.320 -19.427  0.00  0.00     0.161 A 
ATOM     29  O6  C2E d         -21.655   5.760 -19.701  0.00  0.00    -0.265 OA
ATOM     30  N1  C2E d         -22.510   4.340 -21.198  0.00  0.00    -0.154 N 
ATOM     31  C2  C2E d         -22.969   3.103 -21.529  0.00  0.00     0.680 A 
ATOM     32  H9  C2E d         -22.525   5.063 -21.889  0.00  0.00     0.187 HD
ATOM     33  N3  C2E d         -22.978   2.113 -20.667  0.00  0.00    -0.174 N 
ATOM     34  H12 C2E d         -23.326   1.185 -20.946  0.00  0.00     0.186 HD
BRANCH  31  35
ATOM     35  N2  C2E d         -23.441   2.895 -22.799  0.00  0.00    -0.234 N 
ATOM     36  H10 C2E d         -23.794   1.966 -23.072  0.00  0.00     0.174 HD
ATOM     37  H11 C2E d         -23.443   3.667 -23.480  0.00  0.00     0.174 HD
ENDBRANCH  31  35
ENDBRANCH  11  23
BRANCH  10  38
ATOM     38  O2' C2E d         -21.332  -1.295 -17.281  0.00  0.00    -0.388 OA
ATOM     39  H6  C2E d         -21.397  -1.794 -18.087  0.00  0.00     0.210 HD
ENDBRANCH  10  38
BRANCH  21  40
ATOM     40  O2A C2E d         -29.261  -5.098 -13.904  0.00  0.00    -0.388 OA
ATOM     41  H18 C2E d         -29.710  -4.261 -13.933  0.00  0.00     0.210 HD
ENDBRANCH  21  40
BRANCH  22  42
ATOM     42  N91 C2E d         -26.067  -6.345 -12.844  0.00  0.00    -0.295 N 
ATOM     43  C81 C2E d         -24.772  -5.936 -12.991  0.00  0.00     0.214 A 
ATOM     44  N71 C2E d         -24.115  -6.241 -11.906  0.00  0.00    -0.234 NA
ATOM     45  C51 C2E d         -24.932  -6.919 -11.045  0.00  0.00     0.171 A 
ATOM     46  C61 C2E d         -24.791  -7.519  -9.777  0.00  0.00     0.292 A 
ATOM     47  C41 C2E d         -26.187  -6.994 -11.666  0.00  0.00     0.161 A 
ATOM     48  O61 C2E d         -23.761  -7.432  -9.097  0.00  0.00    -0.265 OA
ATOM     49  N11 C2E d         -25.902  -8.123  -9.280  0.00  0.00    -0.154 N 
ATOM     50  C21 C2E d         -27.094  -8.167  -9.951  0.00  0.00     0.680 A 
ATOM     51  H21 C2E d         -25.846  -8.556  -8.380  0.00  0.00     0.187 HD
ATOM     52  N21 C2E d         -28.174  -8.758  -9.359  0.00  0.00    -0.234 N 
ATOM     53  N31 C2E d         -27.249  -7.593 -11.115  0.00  0.00    -0.174 N 
ATOM     54  H22 C2E d         -29.076  -8.797  -9.855  0.00  0.00     0.174 HD
ATOM     55  H23 C2E d         -28.086  -9.165  -8.417  0.00  0.00     0.174 HD
ATOM     56  H24 C2E d         -28.161  -7.601 -11.594  0.00  0.00     0.186 HD
ENDBRANCH  22  42
TORSDOF 5
