REMARK  8 active torsions:
REMARK  status: ('A' for Active; 'I' for Inactive)
REMARK    1  A    between atoms: C4_1  and  O4_11 
REMARK    2  A    between atoms: C7_4  and  C8_5 
REMARK    3  A    between atoms: C7_4  and  N1_7 
REMARK    4  A    between atoms: N7_14  and  C1'_15 
REMARK    5  A    between atoms: C4'_17  and  C5'_18 
REMARK    6  A    between atoms: C5'_18  and  O5'_19 
REMARK    7  A    between atoms: C3'_20  and  O3'_21 
REMARK    8  A    between atoms: C2'_22  and  O2'_23 
ROOT
ATOM      1  C8  MOL d          36.432   0.544  12.531  0.00  0.00     0.093 A 
ATOM      2  C9  MOL d          36.452   1.355  13.694  0.00  0.00     0.147 A 
ATOM      3  N5  MOL d          36.176   1.408  11.476  0.00  0.00    -0.133 NA
ATOM      4  N6  MOL d          36.009   2.616  11.960  0.00  0.00    -0.064 NA
ATOM      5  N7  MOL d          36.119   2.626  13.256  0.00  0.00    -0.229 N 
ENDROOT
BRANCH   5   6
ATOM      6  C1' MOL d          36.081   3.701  14.199  0.00  0.00     0.278 C 
ATOM      7  O4' MOL d          35.961   4.983  13.673  0.00  0.00    -0.352 OA
ATOM      8  C4' MOL d          37.235   5.349  13.077  0.00  0.00     0.179 C 
ATOM      9  C3' MOL d          38.286   4.485  13.783  0.00  0.00     0.182 C 
ATOM     10  C2' MOL d          37.488   3.609  14.766  0.00  0.00     0.200 C 
BRANCH   8  11
ATOM     11  C5' MOL d          37.437   6.839  13.162  0.00  0.00     0.198 C 
BRANCH  11  12
ATOM     12  O5' MOL d          38.659   7.220  12.547  0.00  0.00    -0.398 OA
ATOM     13  H13 MOL d          38.765   8.162  12.613  0.00  0.00     0.209 HD
ENDBRANCH  11  12
ENDBRANCH   8  11
BRANCH   9  14
ATOM     14  O3' MOL d          39.084   3.742  12.876  0.00  0.00    -0.390 OA
ATOM     15  H15 MOL d          39.716   3.226  13.362  0.00  0.00     0.210 HD
ENDBRANCH   9  14
BRANCH  10  16
ATOM     16  O2' MOL d          37.496   4.174  16.069  0.00  0.00    -0.388 OA
ATOM     17  H17 MOL d          36.999   3.618  16.657  0.00  0.00     0.210 HD
ENDBRANCH  10  16
ENDBRANCH   5   6
BRANCH   1  18
ATOM     18  C7  MOL d          36.784  -0.906  12.522  0.00  0.00     0.189 C 
BRANCH  18  19
ATOM     19  N1  MOL d          35.933  -2.100  12.432  0.00  0.00    -0.336 N 
ATOM     20  C6  MOL d          36.263  -3.050  13.283  0.00  0.00     0.158 A 
ATOM     21  C5  MOL d          35.587  -4.255  13.268  0.00  0.00     0.049 A 
ATOM     22  C4  MOL d          34.603  -4.422  12.323  0.00  0.00     0.140 A 
ATOM     23  N3  MOL d          34.322  -3.438  11.442  0.00  0.00    -0.301 N 
ATOM     24  C2  MOL d          34.969  -2.290  11.468  0.00  0.00     0.256 A 
ATOM     25  H7  MOL d          33.609  -3.583  10.756  0.00  0.00     0.171 HD
ATOM     26  O2  MOL d          34.670  -1.343  10.622  0.00  0.00    -0.151 OA
BRANCH  22  27
ATOM     27  O4  MOL d          33.927  -5.592  12.289  0.00  0.00    -0.346 OA
ATOM     28  H8  MOL d          34.252  -6.164  12.974  0.00  0.00     0.219 HD
ENDBRANCH  22  27
ENDBRANCH  18  19
ENDBRANCH   1  18
TORSDOF 8
