REMARK  9 active torsions:
REMARK  status: ('A' for Active; 'I' for Inactive)
REMARK    1  A    between atoms: PB_1  and  O3A_5 
REMARK    2  A    between atoms: O3A_5  and  PA_6 
REMARK    3  A    between atoms: PA_6  and  O5'_9 
REMARK    4  A    between atoms: O5'_9  and  C5'_10 
REMARK    5  A    between atoms: C5'_10  and  C4'_11 
REMARK    6  A    between atoms: C3'_13  and  O3'_14 
REMARK    7  A    between atoms: C2'_15  and  O2'_16 
REMARK    8  A    between atoms: C1'_17  and  N9_18 
REMARK    9  A    between atoms: C2_25  and  N2_26 
ROOT
ATOM      1  C4' GDP d         -33.702 -21.961  19.631  0.00  0.00     0.180 C 
ATOM      2  O4' GDP d         -33.261 -22.771  18.543  0.00  0.00    -0.353 OA
ATOM      3  C3' GDP d         -33.507 -22.790  20.882  0.00  0.00     0.182 C 
ATOM      4  C2' GDP d         -32.535 -23.866  20.439  0.00  0.00     0.198 C 
ATOM      5  C1' GDP d         -32.958 -24.083  18.992  0.00  0.00     0.262 C 
ENDROOT
BRANCH   5   6
ATOM      6  N9  GDP d         -31.826 -24.628  18.225  0.00  0.00    -0.295 N 
ATOM      7  C8  GDP d         -30.575 -24.124  18.172  0.00  0.00     0.214 A 
ATOM      8  N7  GDP d         -29.778 -24.884  17.381  0.00  0.00    -0.234 NA
ATOM      9  C5  GDP d         -30.536 -25.898  16.921  0.00  0.00     0.171 A 
ATOM     10  C6  GDP d         -30.327 -27.063  16.041  0.00  0.00     0.292 A 
ATOM     11  C4  GDP d         -31.881 -25.724  17.483  0.00  0.00     0.161 A 
ATOM     12  O6  GDP d         -29.205 -27.272  15.542  0.00  0.00    -0.265 OA
ATOM     13  N1  GDP d         -31.368 -27.873  15.811  0.00  0.00    -0.154 N 
ATOM     14  C2  GDP d         -32.583 -27.663  16.361  0.00  0.00     0.680 A 
ATOM     15  H10 GDP d         -31.241 -28.662  15.210  0.00  0.00     0.187 HD
ATOM     16  N3  GDP d         -32.846 -26.614  17.182  0.00  0.00    -0.174 N 
ATOM     17  H13 GDP d         -33.790 -26.498  17.577  0.00  0.00     0.186 HD
BRANCH  14  18
ATOM     18  N2  GDP d         -33.593 -28.525  16.082  0.00  0.00    -0.234 N 
ATOM     19  H11 GDP d         -34.525 -28.377  16.495  0.00  0.00     0.174 HD
ATOM     20  H12 GDP d         -33.428 -29.327  15.458  0.00  0.00     0.174 HD
ENDBRANCH  14  18
ENDBRANCH   5   6
BRANCH   4  21
ATOM     21  O2' GDP d         -32.553 -25.044  21.265  0.00  0.00    -0.388 OA
ATOM     22  H7  GDP d         -32.325 -24.808  22.156  0.00  0.00     0.210 HD
ENDBRANCH   4  21
BRANCH   1  23
ATOM     23  C5' GDP d         -32.876 -20.687  19.695  0.00  0.00     0.216 C 
BRANCH  23  24
ATOM     24  O5' GDP d         -31.487 -21.003  19.841  0.00  0.00    -0.287 OA
BRANCH  24  25
ATOM     25  PA  GDP d         -30.509 -19.830  20.333  0.00  0.00     0.418 P 
ATOM     26  O1A GDP d         -29.130 -20.355  20.556  0.00  0.00    -0.624 OA
ATOM     27  O2A GDP d         -31.095 -19.064  21.485  0.00  0.00    -0.624 OA
BRANCH  25  28
ATOM     28  O3A GDP d         -30.506 -18.989  18.948  0.00  0.00    -0.173 OA
BRANCH  28  29
ATOM     29  PB  GDP d         -30.116 -17.447  18.855  0.00  0.00     0.431 P 
ATOM     30  O1B GDP d         -31.301 -16.585  19.196  0.00  0.00    -0.616 OA
ATOM     31  O2B GDP d         -29.756 -17.209  17.394  0.00  0.00    -0.616 OA
ATOM     32  O3B GDP d         -28.942 -17.132  19.748  0.00  0.00    -0.616 OA
ENDBRANCH  28  29
ENDBRANCH  25  28
ENDBRANCH  24  25
ENDBRANCH  23  24
ENDBRANCH   1  23
BRANCH   3  33
ATOM     33  O3' GDP d         -34.767 -23.370  21.224  0.00  0.00    -0.390 OA
ATOM     34  H5  GDP d         -34.669 -23.897  22.009  0.00  0.00     0.210 HD
ENDBRANCH   3  33
TORSDOF 9
