REMARK  2 active torsions:
REMARK  status: ('A' for Active; 'I' for Inactive)
REMARK    1  A    between atoms: C1_1  and  O1_7 
REMARK    2  A    between atoms: C3_3  and  O3_8 
ROOT
ATOM      1  C1  RCO d          54.530  28.426  21.879  0.00  0.00     0.068 A 
ATOM      2  C2  RCO d          54.467  29.573  21.038  0.00  0.00     0.072 A 
ATOM      3  C3  RCO d          55.609  29.985  20.296  0.00  0.00     0.068 A 
ATOM      4  C4  RCO d          56.803  29.245  20.405  0.00  0.00     0.037 A 
ATOM      5  C5  RCO d          56.871  28.111  21.236  0.00  0.00     0.005 A 
ATOM      6  C6  RCO d          55.731  27.700  21.978  0.00  0.00     0.037 A 
ENDROOT
BRANCH   1   7
ATOM      7  O1  RCO d          53.393  28.038  22.595  0.00  0.00    -0.361 OA
ATOM      8  H5  RCO d          52.682  28.639  22.407  0.00  0.00     0.217 HD
ENDBRANCH   1   7
BRANCH   3   9
ATOM      9  O3  RCO d          55.563  31.113  19.466  0.00  0.00    -0.361 OA
ATOM     10  H6  RCO d          54.695  31.497  19.503  0.00  0.00     0.217 HD
ENDBRANCH   3   9
TORSDOF 2
