REMARK  2 active torsions:
REMARK  status: ('A' for Active; 'I' for Inactive)
REMARK    1  A    between atoms: C2_2  and  N12_12 
REMARK    2  A    between atoms: C5_5  and  C6_6 
ROOT
ATOM      1  C1  MPV d          24.299   7.514  11.056  0.00  0.00     0.084 A 
ATOM      2  C2  MPV d          25.481   8.005  10.535  0.00  0.00     0.119 A 
ATOM      3  N3  MPV d          25.310   8.962   9.630  0.00  0.00    -0.258 N 
ATOM      4  N4  MPV d          23.923   9.138   9.476  0.00  0.00    -0.170 NA
ATOM      5  C5  MPV d          23.384   8.272  10.359  0.00  0.00     0.098 A 
ATOM      6  C11 MPV d          26.220   9.812   8.803  0.00  0.00     0.182 C 
ENDROOT
BRANCH   5   7
ATOM      7  C6  MPV d          21.911   8.113  10.497  0.00  0.00     0.035 A 
ATOM      8  S7  MPV d          20.811   8.687   9.316  0.00  0.00    -0.100 SA
ATOM      9  C8  MPV d          19.477   8.093  10.220  0.00  0.00     0.050 A 
ATOM     10  C9  MPV d          19.898   7.450  11.375  0.00  0.00     0.008 A 
ATOM     11  C10 MPV d          21.289   7.459  11.542  0.00  0.00     0.022 A 
ENDBRANCH   5   7
BRANCH   2  12
ATOM     12  N12 MPV d          26.708   7.592  10.921  0.00  0.00    -0.384 N 
ATOM     13  H8  MPV d          26.802   6.847  11.626  0.00  0.00     0.157 HD
ATOM     14  H9  MPV d          27.549   8.022  10.511  0.00  0.00     0.157 HD
ENDBRANCH   2  12
TORSDOF 2
