REMARK  9 active torsions:
REMARK  status: ('A' for Active; 'I' for Inactive)
REMARK    1  A    between atoms: O3A_8  and  PB_1 
REMARK    2  A    between atoms: PA_5  and  O3A_8 
REMARK    3  A    between atoms: O5'_19  and  PA_5 
REMARK    4  A    between atoms: C1'_27  and  N9_9 
REMARK    5  A    between atoms: C6_13  and  N6_14 
REMARK    6  A    between atoms: C5'_20  and  O5'_19 
REMARK    7  A    between atoms: C4'_21  and  C5'_20 
REMARK    8  A    between atoms: C3'_23  and  O3'_24 
REMARK    9  A    between atoms: C2'_25  and  O2'_26 
ROOT
ATOM      1  C4' ADP d         109.965  51.980  14.547  0.00  0.00     0.180 C 
ATOM      2  O4' ADP d         108.960  52.999  14.219  0.00  0.00    -0.353 OA
ATOM      3  C3' ADP d         111.170  52.206  13.597  0.00  0.00     0.182 C 
ATOM      4  C2' ADP d         110.999  53.664  13.167  0.00  0.00     0.198 C 
ATOM      5  C1' ADP d         109.477  53.825  13.130  0.00  0.00     0.262 C 
ENDROOT
BRANCH   5   6
ATOM      6  N9  ADP d         109.094  55.236  13.307  0.00  0.00    -0.294 N 
ATOM      7  C8  ADP d         109.603  56.137  14.217  0.00  0.00     0.214 A 
ATOM      8  N7  ADP d         109.023  57.292  14.078  0.00  0.00    -0.236 NA
ATOM      9  C5  ADP d         108.108  57.217  13.082  0.00  0.00     0.149 A 
ATOM     10  C6  ADP d         107.192  58.126  12.481  0.00  0.00     0.155 A 
ATOM     11  C4  ADP d         108.149  55.888  12.571  0.00  0.00     0.167 A 
ATOM     12  N1  ADP d         106.405  57.684  11.467  0.00  0.00    -0.222 NA
ATOM     13  C2  ADP d         106.476  56.419  11.021  0.00  0.00     0.237 A 
ATOM     14  N3  ADP d         107.328  55.533  11.558  0.00  0.00    -0.222 NA
BRANCH  10  15
ATOM     15  N6  ADP d         107.102  59.435  12.928  0.00  0.00    -0.382 N 
ATOM     16  H2  ADP d         106.436  60.085  12.487  0.00  0.00     0.157 HD
ATOM     17  H3  ADP d         107.701  59.757  13.701  0.00  0.00     0.157 HD
ENDBRANCH  10  15
ENDBRANCH   5   6
BRANCH   4  18
ATOM     18  O2' ADP d         111.625  53.943  11.917  0.00  0.00    -0.388 OA
ATOM     19  H11 ADP d         111.243  53.393  11.243  0.00  0.00     0.210 HD
ENDBRANCH   4  18
BRANCH   1  20
ATOM     20  C5' ADP d         110.394  52.111  16.013  0.00  0.00     0.216 C 
BRANCH  20  21
ATOM     21  O5' ADP d         110.116  50.912  16.729  0.00  0.00    -0.287 OA
BRANCH  21  22
ATOM     22  PA  ADP d         111.490  50.356  17.399  0.00  0.00     0.418 P 
ATOM     23  O1A ADP d         111.108  49.490  18.539  0.00  0.00    -0.624 OA
ATOM     24  O2A ADP d         112.417  51.567  17.937  0.00  0.00    -0.624 OA
BRANCH  22  25
ATOM     25  O3A ADP d         112.311  49.515  16.273  0.00  0.00    -0.173 OA
BRANCH  25  26
ATOM     26  PB  ADP d         113.246  48.366  16.949  0.00  0.00     0.431 P 
ATOM     27  O1B ADP d         114.238  48.989  17.861  0.00  0.00    -0.616 OA
ATOM     28  O2B ADP d         112.336  47.316  17.772  0.00  0.00    -0.616 OA
ATOM     29  O3B ADP d         114.020  47.576  15.778  0.00  0.00    -0.616 OA
ENDBRANCH  25  26
ENDBRANCH  22  25
ENDBRANCH  21  22
ENDBRANCH  20  21
ENDBRANCH   1  20
BRANCH   3  30
ATOM     30  O3' ADP d         111.127  51.282  12.501  0.00  0.00    -0.390 OA
ATOM     31  H9  ADP d         111.871  51.434  11.930  0.00  0.00     0.210 HD
ENDBRANCH   3  30
TORSDOF 9
