2w7y_ligand

Created by X-TOOL on Fri Sep 26 17:34:45 2014
 71 73  0  0  0  0  0  0  0  0999 V2000
   16.3090    1.9070   48.3660  C 0  0  0  2  0  4
   17.1070    0.6710   47.9830  C 0  0  0  2  0  4
   18.5070    1.0900   47.5140  C 0  0  0  2  0  4
   18.4110    2.0100   46.2960  C 0  0  0  2  0  4
   17.5270    3.2110   46.6560  C 0  0  0  2  0  4
   17.3110    4.1380   45.4620  C 0  0  0  3  0  4
   16.9370   -1.5140   49.0610  C 0  0  0  1  0  3
   17.2070   -2.2930   50.3450  C 0  0  0  4  0  4
   16.2270    2.7630   47.1950  O 0  0  0  1  0  2
   19.3030   -0.0650   47.2410  O 0  0  0  2  0  2
   17.8450    1.3030   45.1850  O 0  0  0  2  0  2
   16.3850    5.1580   45.8420  O 0  0  0  2  0  2
   16.4400   -2.0620   48.0770  O 0  0  0  1  0  1
   17.2710   -0.2300   49.1240  N 0  0  0  2  0  3
   16.2640    5.6410   51.5370  C 0  0  0  2  0  4
   16.9550    4.4450   50.8800  C 0  0  0  2  0  4
   15.9750    3.6730   49.9920  C 0  0  0  2  0  4
   14.6530    3.3850   50.7130  C 0  0  0  2  0  4
   14.0990    4.6990   51.2820  C 0  0  0  2  0  4
   12.7680    4.5500   52.0230  C 0  0  0  3  0  4
   17.1040    6.1540   52.5460  O 0  0  0  2  0  2
   18.0360    4.9320   50.1120  O 0  0  0  1  0  2
   16.5750    2.4810   49.5390  O 0  0  0  1  0  2
   14.8800    2.4330   51.7260  O 0  0  0  2  0  2
   15.0510    5.2720   52.1580  O 0  0  0  1  0  2
   12.1110    5.8040   52.0450  O 0  0  0  2  0  2
   19.3040    4.2860   50.3950  C 0  0  0  2  0  4
   20.3890    4.8540   49.4770  C 0  0  0  2  0  4
   20.7520    6.2710   49.9260  C 0  0  0  2  0  4
   21.2180    6.2520   51.3820  C 0  0  0  2  0  4
   20.1370    5.6010   52.2520  C 0  0  0  2  0  4
   20.5720    5.4320   53.7040  C 0  0  0  4  0  4
   19.9200    4.8750   48.1520  O 0  0  0  2  0  2
   21.7260    6.8450   49.0810  O 0  0  0  2  0  2
   22.4360    5.5410   51.4990  O 0  0  0  2  0  2
   19.7380    4.3340   51.7480  O 0  0  0  1  0  2
   15.2827    1.5377   48.5083  H 0  0  0  1  0  1
   16.5848    0.1428   47.1716  H 0  0  0  1  0  1
   18.9895    1.6520   48.3272  H 0  0  0  1  0  1
   19.4167    2.3633   46.0246  H 0  0  0  1  0  1
   18.0429    3.7845   47.4402  H 0  0  0  1  0  1
   16.9048    3.5646   44.6157  H 0  0  0  1  0  1
   18.2676    4.5955   45.1695  H 0  0  0  1  0  1
   17.6502   -1.6214   51.0950  H 0  0  0  1  0  1
   17.9038   -3.1176   50.1340  H 0  0  0  1  0  1
   16.2617   -2.7016   50.7317  H 0  0  0  1  0  1
   18.9142   -0.5542   46.5254  H 0  0  0  1  0  1
   18.3977    0.5613   44.9683  H 0  0  0  1  0  1
   15.5616    4.7580   46.0959  H 0  0  0  1  0  1
   17.6460    0.1320   49.9774  H 0  0  0  1  0  1
   16.0698    6.4109   50.7757  H 0  0  0  1  0  1
   17.3358    3.7700   51.6606  H 0  0  0  1  0  1
   15.7488    4.2969   49.1148  H 0  0  0  1  0  1
   13.9274    2.9742   49.9955  H 0  0  0  1  0  1
   13.9379    5.3861   50.4382  H 0  0  0  1  0  1
   12.9549    4.2133   53.0534  H 0  0  0  1  0  1
   12.1377    3.8123   51.5048  H 0  0  0  1  0  1
   16.6894    6.9080   52.9486  H 0  0  0  1  0  1
   15.2214    1.6355   51.3388  H 0  0  0  1  0  1
   11.2835    5.7187   52.5038  H 0  0  0  1  0  1
   19.1766    3.2223   50.1453  H 0  0  0  1  0  1
   21.2835    4.2164   49.5341  H 0  0  0  1  0  1
   19.8459    6.8917   49.8651  H 0  0  0  1  0  1
   21.3767    7.2863   51.7212  H 0  0  0  1  0  1
   19.2608    6.2659   52.2360  H 0  0  0  1  0  1
   19.7597    4.9619   54.2778  H 0  0  0  1  0  1
   20.8025    6.4175   54.1348  H 0  0  0  1  0  1
   21.4675    4.7946   53.7467  H 0  0  0  1  0  1
   19.1490    5.4275   48.0989  H 0  0  0  1  0  1
   21.4081    6.8425   48.1858  H 0  0  0  1  0  1
   23.0963    5.9546   50.9555  H 0  0  0  1  0  1
  1  2  1  0  0  1
  1  9  1  0  0  1
 23  1  1  0  0  2
  2  3  1  0  0  1
  2 14  1  0  0  2
  3  4  1  0  0  1
  3 10  1  0  0  2
  5  4  1  0  0  1
  4 11  1  0  0  2
  5  6  1  0  0  2
  9  5  1  0  0  1
  6 12  1  0  0  2
  7  8  1  0  0  2
  7 13  2  0  0  2
 14  7  1  0  0  2
 16 15  1  0  0  1
 15 21  1  0  0  2
 15 25  1  0  0  1
 17 16  1  0  0  1
 16 22  1  0  0  2
 17 18  1  0  0  1
 17 23  1  0  0  2
 18 19  1  0  0  1
 18 24  1  0  0  2
 19 20  1  0  0  2
 19 25  1  0  0  1
 20 26  1  0  0  2
 22 27  1  0  0  2
 27 28  1  0  0  1
 27 36  1  0  0  1
 28 29  1  0  0  1
 28 33  1  0  0  2
 29 30  1  0  0  1
 29 34  1  0  0  2
 30 31  1  0  0  1
 30 35  1  0  0  2
 31 32  1  0  0  2
 31 36  1  0  0  1
  1 37  1  0  0  2
  2 38  1  0  0  2
  3 39  1  0  0  2
  4 40  1  0  0  2
  5 41  1  0  0  2
  6 42  1  0  0  2
  6 43  1  0  0  2
  8 44  1  0  0  2
  8 45  1  0  0  2
  8 46  1  0  0  2
 10 47  1  0  0  2
 11 48  1  0  0  2
 12 49  1  0  0  2
 14 50  1  0  0  2
 15 51  1  0  0  2
 16 52  1  0  0  2
 17 53  1  0  0  2
 18 54  1  0  0  2
 19 55  1  0  0  2
 20 56  1  0  0  2
 20 57  1  0  0  2
 21 58  1  0  0  2
 24 59  1  0  0  2
 26 60  1  0  0  2
 27 61  1  0  0  2
 28 62  1  0  0  2
 29 63  1  0  0  2
 30 64  1  0  0  2
 31 65  1  0  0  2
 32 66  1  0  0  2
 32 67  1  0  0  2
 32 68  1  0  0  2
 33 69  1  0  0  2
 34 70  1  0  0  2
 35 71  1  0  0  2
M  END
> <MOLECULAR_FORMULA>
C20H35NO15

> <MOLECULAR_WEIGHT>
529.2

> <NUM_HB_ATOMS>
16 

> <NUM_ROTOR>
7  

> <XLOGP2>
-5.24

$$$$
