REMARK  6 active torsions:
REMARK  status: ('A' for Active; 'I' for Inactive)
REMARK    1  A    between atoms: C1_1  and  C2_4 
REMARK    2  A    between atoms: C2_4  and  C3_5 
REMARK    3  A    between atoms: C3_5  and  C4_6 
REMARK    4  A    between atoms: C4_6  and  C5_7 
REMARK    5  A    between atoms: C5_7  and  C6_8 
REMARK    6  A    between atoms: C6_8  and  N6_9 
ROOT
ATOM      1  C4  ACA d          10.072  15.150   5.241  0.00  0.00     0.002 C 
ENDROOT
BRANCH   1   2
ATOM      2  C3  ACA d           9.542  14.069   4.264  0.00  0.00     0.010 C 
BRANCH   2   3
ATOM      3  C2  ACA d           8.892  12.902   5.080  0.00  0.00     0.113 C 
BRANCH   3   4
ATOM      4  C1  ACA d           8.205  11.981   4.040  0.00  0.00     0.172 C 
ATOM      5  O2  ACA d           8.233  10.745   4.247  0.00  0.00    -0.648 OA
ATOM      6  O1  ACA d           7.765  12.613   3.021  0.00  0.00    -0.648 OA
ENDBRANCH   3   4
ENDBRANCH   2   3
ENDBRANCH   1   2
BRANCH   1   7
ATOM      7  C5  ACA d          10.785  14.570   6.432  0.00  0.00     0.027 C 
BRANCH   7   8
ATOM      8  C6  ACA d          10.969  15.276   7.694  0.00  0.00     0.229 C 
BRANCH   8   9
ATOM      9  N6  ACA d          12.019  14.780   8.656  0.00  0.00    -0.079 N 
ATOM     10  H11 ACA d          12.027  15.366   9.476  0.00  0.00     0.274 HD
ATOM     11  H12 ACA d          12.923  14.812   8.212  0.00  0.00     0.274 HD
ATOM     12  H13 ACA d          11.809  13.831   8.923  0.00  0.00     0.274 HD
ENDBRANCH   8   9
ENDBRANCH   7   8
ENDBRANCH   1   7
TORSDOF 6
