2pmk_ligand

Created by X-TOOL on Fri Sep 26 17:34:40 2014
 55 59  0  0  0  0  0  0  0  0999 V2000
  -26.0760   14.9510  -10.1650  P 0  0  0  1  0  4
  -24.9670   15.4220  -11.0580  O 0  0  0  1  0  1
  -25.8920   15.1680   -8.5980  O 0  0  0  1  0  1
  -26.4970   13.4650  -10.4300  O 0  0  0  1  0  1
  -27.9480   17.2120   -9.9790  P 0  0  0  1  0  4
  -29.0280   16.7820   -9.0500  O 0  0  0  1  0  1
  -26.8240   18.0500   -9.4950  O 0  0  0  1  0  1
  -27.3760   15.8530  -10.5850  O 0  0  0  1  0  2
  -28.6440   17.9650  -11.2390  O 0  0  0  1  0  2
  -29.8320   17.5430  -11.8850  C 0  0  0  3  0  4
  -30.2680   18.6170  -12.9200  C 0  0  0  2  0  4
  -30.6810   19.7430  -12.1600  O 0  0  0  1  0  2
  -29.0160   18.9830  -13.7260  C 0  0  0  2  0  4
  -29.2000   18.7130  -15.1650  O 0  0  0  1  0  2
  -28.8590   20.4730  -13.5700  C 0  0  0  2  0  4
  -28.8320   20.9950  -14.9260  O 0  0  0  1  0  2
  -30.1000   20.9280  -12.8170  C 0  0  0  2  0  4
  -29.8930   21.7710  -11.6240  N 0  0  0  1  0  3
  -29.1130   21.5010  -10.5720  C 0  0  0  2  0  3
  -29.2090   22.4740   -9.6750  N 0  0  0  1  0  2
  -30.0510   23.3840  -10.1780  C 0  0  0  1  0  3
  -30.5480   24.5890   -9.7250  C 0  0  0  1  0  3
  -30.1580   25.0580   -8.5410  N 0  0  0  3  0  3
  -31.4360   25.2530  -10.4960  N 0  0  0  1  0  2
  -31.8190   24.7730  -11.6800  C 0  0  0  2  0  3
  -31.3810   23.6320  -12.1470  N 0  0  0  1  0  2
  -30.4870   22.9210  -11.4180  C 0  0  0  1  0  3
  -29.1400   19.9490  -15.9030  C 0  0  0  1  0  4
  -27.9050   19.8910  -16.8250  C 0  0  0  1  0  3
  -28.0080   20.1310  -18.2070  C 0  0  0  2  0  3
  -29.2170   20.4180  -18.8340  C 0  0  0  1  0  3
  -30.3800   20.5020  -18.1200  C 0  0  0  2  0  3
  -30.4290   20.2740  -16.7440  C 0  0  0  2  0  4
  -26.6960   19.6080  -16.3020  N 0  0  0  1  0  3
  -29.3370   20.6530  -20.1580  N 0  0  0  1  0  3
  -31.6490   20.3860  -16.2350  N 0  0  0  1  0  3
  -26.4810   19.3620  -14.9020  O 0  0  0  1  0  1
  -25.5430   19.5570  -17.1220  O 0  0  0  1  0  1
  -30.5970   20.9550  -20.7010  O 0  0  0  1  0  1
  -28.2400   20.6210  -20.9510  O 0  0  0  1  0  1
  -32.7690   20.7020  -17.0350  O 0  0  0  1  0  1
  -31.9170   20.2040  -14.8950  O 0  0  0  1  0  1
  -30.6281   17.4093  -11.1378  H 0  0  0  1  0  1
  -29.6497   16.5890  -12.4013  H 0  0  0  1  0  1
  -31.0742   18.2554  -13.5752  H 0  0  0  1  0  1
  -28.1373   18.4419  -13.3450  H 0  0  0  1  0  1
  -27.9436   20.7436  -13.0235  H 0  0  0  1  0  1
  -30.7937   21.4105  -13.5212  H 0  0  0  1  0  1
  -28.4908   20.6135  -10.4669  H 0  0  0  1  0  1
  -30.5250   25.9567   -8.1968  H 0  0  0  1  0  1
  -29.4894   24.5220   -7.9696  H 0  0  0  1  0  1
  -32.5178   25.3485  -12.2763  H 0  0  0  1  0  1
  -27.1035   20.0906  -18.8121  H 0  0  0  1  0  1
  -31.3006   20.7558  -18.6435  H 0  0  0  1  0  1
  -30.5766   19.1955  -16.9022  H 0  0  0  1  0  1
  1  2  2  0  0  2
  1  3  2  0  0  2
  1  4  2  0  0  2
  8  1  1  0  0  2
  5  6  2  0  0  2
  5  7  2  0  0  2
  5  8  1  0  0  2
  5  9  1  0  0  2
  9 10  1  0  0  2
 10 11  1  0  0  2
 11 12  1  0  0  1
 11 13  1  0  0  1
 12 17  1  0  0  1
 13 14  1  0  0  1
 13 15  1  0  0  1
 14 28  1  0  0  1
 15 16  1  0  0  1
 15 17  1  0  0  1
 16 28  1  0  0  1
 17 18  1  0  0  2
 18 19  1  0  0  1
 18 27  1  0  0  1
 19 20  2  0  0  1
 20 21  1  0  0  1
 21 22  4  0  0  1
 21 27  4  0  0  1
 22 23  1  0  0  2
 22 24  4  0  0  1
 24 25  4  0  0  1
 25 26  4  0  0  1
 26 27  4  0  0  1
 28 29  1  0  0  1
 28 33  1  0  0  1
 29 30  2  0  0  1
 29 34  1  0  0  2
 30 31  1  0  0  1
 31 32  2  0  0  1
 31 35  1  0  0  2
 32 33  1  0  0  1
 33 36  1  0  0  2
 34 37  2  0  0  2
 34 38  2  0  0  2
 35 39  2  0  0  2
 35 40  2  0  0  2
 36 41  2  0  0  2
 36 42  2  0  0  2
 10 43  1  0  0  2
 10 44  1  0  0  2
 11 45  1  0  0  2
 13 46  1  0  0  2
 15 47  1  0  0  2
 17 48  1  0  0  2
 19 49  1  0  0  2
 23 50  1  0  0  2
 23 51  1  0  0  2
 25 52  1  0  0  2
 30 53  1  0  0  2
 32 54  1  0  0  2
 33 55  1  0  0  2
M  END
> <MOLECULAR_FORMULA>
C16H13N8O16P2

> <MOLECULAR_WEIGHT>
635.2

> <NUM_HB_ATOMS>
21 

> <NUM_ROTOR>
5  

> <XLOGP2>
-1.99

$$$$
