REMARK  0 active torsions:
REMARK  status: ('A' for Active; 'I' for Inactive)
ROOT
ATOM      1  N1  IND d          28.556   7.358   3.183  0.00  0.00    -0.365 N 
ATOM      2  C2  IND d          28.367   6.590   2.068  0.00  0.00     0.089 A 
ATOM      3  C3  IND d          27.481   5.601   2.323  0.00  0.00     0.030 A 
ATOM      4  C4  IND d          26.141   5.118   4.468  0.00  0.00     0.014 A 
ATOM      5  C5  IND d          26.002   5.525   5.765  0.00  0.00     0.001 A 
ATOM      6  C6  IND d          26.718   6.587   6.277  0.00  0.00     0.002 A 
ATOM      7  C7  IND d          27.597   7.292   5.505  0.00  0.00     0.030 A 
ATOM      8  C8  IND d          27.747   6.877   4.189  0.00  0.00     0.042 A 
ATOM      9  C9  IND d          27.054   5.773   3.675  0.00  0.00    -0.008 A 
ATOM     10  H1  IND d          29.196   8.162   3.258  0.00  0.00     0.165 HD
ENDROOT
TORSDOF 0
