REMARK  7 active torsions:
REMARK  status: ('A' for Active; 'I' for Inactive)
REMARK    1  A    between atoms: CAL_2  and  OAJ_4 
REMARK    2  A    between atoms: OAJ_4  and  PAQ_5 
REMARK    3  A    between atoms: PAQ_5  and  OAK_8 
REMARK    4  A    between atoms: OAK_8  and  CBO_9 
REMARK    5  A    between atoms: CBM_10  and  O14_11 
REMARK    6  A    between atoms: CBL_12  and  O10_13 
REMARK    7  A    between atoms: C8_16  and  OAH_17 
ROOT
ATOM      1  CBO LAH d         -15.842 -27.588  18.016  0.00  0.00     0.220 C 
ATOM      2  CBM LAH d         -14.451 -27.927  17.861  0.00  0.00     0.183 C 
ATOM      3  CBL LAH d         -14.144 -28.861  16.842  0.00  0.00     0.173 C 
ATOM      4  CBN LAH d         -14.834 -28.557  15.528  0.00  0.00     0.205 C 
ATOM      5  OAX LAH d         -16.202 -28.233  15.710  0.00  0.00    -0.356 OA
ATOM      6  C8  LAH d         -16.439 -27.234  16.673  0.00  0.00     0.288 C 
ENDROOT
BRANCH   1   7
ATOM      7  OAK LAH d         -15.997 -26.442  18.885  0.00  0.00    -0.277 OA
BRANCH   7   8
ATOM      8  PAQ LAH d         -16.686 -26.464  20.310  0.00  0.00     0.409 P 
ATOM      9  OAG LAH d         -17.867 -27.402  20.319  0.00  0.00    -0.624 OA
ATOM     10  OAC LAH d         -17.149 -25.069  20.576  0.00  0.00    -0.624 OA
BRANCH   8  11
ATOM     11  OAJ LAH d         -15.686 -26.910  21.432  0.00  0.00    -0.285 OA
BRANCH  11  12
ATOM     12  CAL LAH d         -14.851 -26.002  22.071  0.00  0.00     0.126 C 
ATOM     13  CAA LAH d         -13.367 -26.237  21.803  0.00  0.00     0.040 C 
ATOM     14  CAB LAH d         -15.214 -25.737  23.499  0.00  0.00     0.040 C 
ENDBRANCH  11  12
ENDBRANCH   8  11
ENDBRANCH   7   8
ENDBRANCH   1   7
BRANCH   2  15
ATOM     15  O14 LAH d         -13.870 -28.396  19.145  0.00  0.00    -0.390 OA
ATOM     16  H10 LAH d         -14.340 -29.166  19.441  0.00  0.00     0.210 HD
ENDBRANCH   2  15
BRANCH   6  17
ATOM     17  OAH LAH d         -17.792 -27.033  16.771  0.00  0.00    -0.369 OA
ATOM     18  H16 LAH d         -18.132 -26.757  15.928  0.00  0.00     0.212 HD
ENDBRANCH   6  17
BRANCH   3  19
ATOM     19  O10 LAH d         -14.530 -30.194  17.221  0.00  0.00    -0.391 OA
ATOM     20  H12 LAH d         -14.312 -30.797  16.520  0.00  0.00     0.210 HD
ENDBRANCH   3  19
TORSDOF 7
