REMARK  8 active torsions:
REMARK  status: ('A' for Active; 'I' for Inactive)
REMARK    1  A    between atoms: C25_3  and  N2_20 
REMARK    2  A    between atoms: O3_29  and  C7_5 
REMARK    3  A    between atoms: C11_7  and  C20_25 
REMARK    4  A    between atoms: O1_23  and  C13_10 
REMARK    5  A    between atoms: C18_18  and  O1_23 
REMARK    6  A    between atoms: N2_20  and  C19_19 
REMARK       I    between atoms: C20_25  and  N5_27 
REMARK    7  A    between atoms: C23_30  and  O3_29 
REMARK    8  A    between atoms: C5_35  and  C23_30 
ROOT
ATOM      1  C14 MOL d          38.695  32.626  13.522  0.00  0.00     0.072 A 
ATOM      2  C15 MOL d          37.861  33.687  13.077  0.00  0.00     0.097 A 
ATOM      3  C16 MOL d          36.447  33.494  12.846  0.00  0.00     0.108 A 
ATOM      4  C17 MOL d          35.793  32.223  13.115  0.00  0.00     0.042 A 
ATOM      5  C1  MOL d          36.582  31.119  13.609  0.00  0.00     0.040 A 
ATOM      6  C18 MOL d          38.014  31.354  13.771  0.00  0.00     0.078 A 
ATOM      7  C19 MOL d          36.934  35.519  12.555  0.00  0.00     0.252 A 
ATOM      8  N4  MOL d          38.138  34.984  12.902  0.00  0.00    -0.206 NA
ATOM      9  O4  MOL d          35.887  34.634  12.511  0.00  0.00    -0.276 OA
ENDROOT
BRANCH   7  10
ATOM     10  N2  MOL d          36.743  36.914  12.243  0.00  0.00    -0.320 N 
ATOM     11  H10 MOL d          35.793  37.278  12.403  0.00  0.00     0.169 HD
BRANCH  10  12
ATOM     12  C25 MOL d          37.638  37.810  11.769  0.00  0.00     0.038 A 
ATOM     13  C24 MOL d          38.797  37.469  10.955  0.00  0.00     0.031 A 
ATOM     14  C21 MOL d          39.645  38.489  10.442  0.00  0.00     0.029 A 
ATOM     15  C10 MOL d          39.251  39.826  10.771  0.00  0.00     0.067 A 
ATOM     16  C7  MOL d          38.088  40.183  11.564  0.00  0.00     0.092 A 
ATOM     17 CL   MOL d          40.245  41.085  10.165  0.00  0.00    -0.081 Cl
ATOM     18  C6  MOL d          37.252  39.140  12.084  0.00  0.00     0.068 A 
BRANCH  16  19
ATOM     19  O3  MOL d          37.766  41.507  11.839  0.00  0.00    -0.347 OA
BRANCH  19  20
ATOM     20  C23 MOL d          36.976  41.719  13.024  0.00  0.00     0.209 C 
BRANCH  20  21
ATOM     21  C5  MOL d          36.580  43.190  13.097  0.00  0.00     0.211 C 
ATOM     22  N1  MOL d          37.560  43.947  13.955  0.00  0.00    -0.069 N 
ATOM     23  C2  MOL d          38.476  44.873  13.225  0.00  0.00     0.235 C 
ATOM     24  C26 MOL d          37.150  44.334  15.324  0.00  0.00     0.270 C 
ATOM     25  H17 MOL d          38.203  43.203  14.178  0.00  0.00     0.280 HD
ATOM     26  C3  MOL d          38.068  44.703  11.773  0.00  0.00     0.030 C 
ATOM     27  C4  MOL d          36.828  43.845  11.742  0.00  0.00     0.037 C 
ENDBRANCH  20  21
ENDBRANCH  19  20
ENDBRANCH  16  19
ENDBRANCH  10  12
ENDBRANCH   7  10
BRANCH   6  28
ATOM     28  O1  MOL d          38.707  30.242  14.175  0.00  0.00    -0.311 OA
BRANCH  28  29
ATOM     29  C13 MOL d          39.441  29.471  13.313  0.00  0.00     0.079 A 
ATOM     30  C12 MOL d          40.195  28.527  14.056  0.00  0.00     0.074 A 
ATOM     31  C11 MOL d          40.957  27.653  13.256  0.00  0.00     0.126 A 
ATOM     32  N3  MOL d          40.948  27.780  11.882  0.00  0.00    -0.255 NA
ATOM     33  C9  MOL d          40.250  28.663  11.130  0.00  0.00     0.120 A 
ATOM     34  C8  MOL d          39.436  29.568  11.862  0.00  0.00     0.056 A 
BRANCH  31  35
ATOM     35  C20 MOL d          41.687  26.581  13.927  0.00  0.00     0.269 C 
ATOM     36  O2  MOL d          41.655  26.429  15.143  0.00  0.00    -0.266 OA
ATOM     37  N5  MOL d          42.411  25.757  13.144  0.00  0.00    -0.360 N 
ATOM     38  C22 MOL d          43.140  24.714  13.886  0.00  0.00     0.149 C 
ATOM     39  H11 MOL d          42.450  25.846  12.149  0.00  0.00     0.162 HD
ENDBRANCH  31  35
ENDBRANCH  28  29
ENDBRANCH   6  28
TORSDOF 8
