REMARK  4 active torsions:
REMARK  status: ('A' for Active; 'I' for Inactive)
REMARK    1  A    between atoms: O2_1  and  C4_2 
REMARK    2  A    between atoms: C3_3  and  O1_4 
REMARK    3  A    between atoms: C5_7  and  C6_8 
REMARK    4  A    between atoms: C6_8  and  O_9 
ROOT
ATOM      1  C4  AGK d          79.074  89.388  20.156  0.00  0.00     0.183 C 
ATOM      2  C3  AGK d          77.883  90.273  20.485  0.00  0.00     0.176 C 
ATOM      3  C2  AGK d          76.699  89.893  19.615  0.00  0.00     0.300 C 
ATOM      4  N1  AGK d          77.160  90.139  18.226  0.00  0.00     0.081 N 
ATOM      5  C5  AGK d          79.417  89.467  18.672  0.00  0.00     0.272 C 
ATOM      6  N   AGK d          78.195  89.232  17.890  0.00  0.00     0.087 N 
ATOM      7  H7  AGK d          77.506  91.083  18.152  0.00  0.00     0.312 HD
ATOM      8  H8  AGK d          76.387  90.014  17.591  0.00  0.00     0.312 HD
ATOM      9  H13 AGK d          78.412  89.335  16.911  0.00  0.00     0.313 HD
ATOM     10  H14 AGK d          77.873  88.293  18.066  0.00  0.00     0.313 HD
ENDROOT
BRANCH   5  11
ATOM     11  C6  AGK d          80.338  88.339  18.292  0.00  0.00     0.202 C 
BRANCH  11  12
ATOM     12  O   AGK d          81.125  88.692  17.175  0.00  0.00    -0.399 OA
ATOM     13  H12 AGK d          81.647  89.457  17.386  0.00  0.00     0.209 HD
ENDBRANCH  11  12
ENDBRANCH   5  11
BRANCH   1  14
ATOM     14  O2  AGK d          78.755  88.051  20.493  0.00  0.00    -0.391 OA
ATOM     15  H1  AGK d          78.560  87.998  21.421  0.00  0.00     0.210 HD
ENDBRANCH   1  14
BRANCH   2  16
ATOM     16  O1  AGK d          77.533  90.140  21.860  0.00  0.00    -0.391 OA
ATOM     17  H4  AGK d          78.271  90.398  22.400  0.00  0.00     0.210 HD
ENDBRANCH   2  16
TORSDOF 4
