REMARK  27 active torsions:
REMARK  status: ('A' for Active; 'I' for Inactive)
REMARK    1  A    between atoms: N_1  and  CA_2 
REMARK    2  A    between atoms: CA_2  and  C_3 
REMARK    3  A    between atoms: CA_2  and  CB_5 
REMARK       I    between atoms: C_3  and  N_10 
REMARK    4  A    between atoms: CB_5  and  CG_6 
REMARK    5  A    between atoms: CG_6  and  CD_7 
REMARK    6  A    between atoms: CD_7  and  CE_8 
REMARK    7  A    between atoms: CE_8  and  NZ_9 
REMARK    8  A    between atoms: N_10  and  CA_11 
REMARK    9  A    between atoms: CA_11  and  C_12 
REMARK   10  A    between atoms: CA_11  and  CB_14 
REMARK       I    between atoms: C_12  and  N_16 
REMARK   11  A    between atoms: CB_14  and  OG_15 
REMARK   12  A    between atoms: N_16  and  CA_17 
REMARK   13  A    between atoms: CA_17  and  C_18 
REMARK   14  A    between atoms: CA_17  and  CB_20 
REMARK       I    between atoms: C_18  and  N_25 
REMARK   15  A    between atoms: CB_20  and  CG_21 
REMARK   16  A    between atoms: CG_21  and  CD_22 
REMARK   17  A    between atoms: CD_22  and  CE_23 
REMARK   18  A    between atoms: CE_23  and  NZ_24 
REMARK   19  A    between atoms: N_25  and  CA_26 
REMARK   20  A    between atoms: CA_26  and  C_27 
REMARK   21  A    between atoms: CA_26  and  CB_29 
REMARK       I    between atoms: C_27  and  N_32 
REMARK   22  A    between atoms: CB_29  and  OG1_30 
REMARK   23  A    between atoms: N_32  and  CA_33 
REMARK   24  A    between atoms: CA_33  and  C_34 
REMARK   25  A    between atoms: CA_33  and  CB_36 
REMARK   26  A    between atoms: C_34  and  OXT_38 
REMARK   27  A    between atoms: CB_36  and  SG_37 
ROOT
ATOM      1  CA  LYS d           9.072 -15.057  11.402  0.00  0.00     0.176 C 
ENDROOT
BRANCH   1   2
ATOM      2  N   LYS d           8.671 -16.015  10.377  0.00  0.00    -0.346 N 
ATOM      3  C   LYS d           8.325 -17.281  10.642  0.00  0.00     0.243 C 
ATOM      4  O   LYS d           8.378 -17.799  11.753  0.00  0.00    -0.271 OA
ATOM      5  H21 LYS d           8.654 -15.709   9.425  0.00  0.00     0.163 HD
BRANCH   3   6
ATOM      6  CA  LYS d           7.774 -18.079   9.453  0.00  0.00     0.200 C 
BRANCH   6   7
ATOM      7  N   LYS d           8.284 -19.463   9.433  0.00  0.00    -0.344 N 
ATOM      8  C   LYS d           9.410 -19.777   8.828  0.00  0.00     0.249 C 
ATOM      9  O   LYS d          10.112 -18.925   8.271  0.00  0.00    -0.271 OA
ATOM     10  H16 LYS d           7.761 -20.181   9.891  0.00  0.00     0.163 HD
BRANCH   8  11
ATOM     11  CA  LYS d           9.868 -21.240   8.936  0.00  0.00     0.274 C 
BRANCH  11  12
ATOM     12  N   LYS d           9.877 -21.965   7.609  0.00  0.00    -0.067 N 
ATOM     13  H1  LYS d          10.185 -22.915   7.747  0.00  0.00     0.275 HD
ATOM     14  H2  LYS d          10.505 -21.497   6.975  0.00  0.00     0.275 HD
ATOM     15  H3  LYS d           8.947 -21.967   7.221  0.00  0.00     0.275 HD
ENDBRANCH  11  12
BRANCH  11  16
ATOM     16  CB  LYS d          11.257 -21.215   9.579  0.00  0.00     0.042 C 
BRANCH  16  17
ATOM     17  CG  LYS d          12.005 -22.527   9.717  0.00  0.00     0.004 C 
BRANCH  17  18
ATOM     18  CD  LYS d          11.124 -23.692  10.046  0.00  0.00     0.027 C 
BRANCH  18  19
ATOM     19  CE  LYS d          11.971 -24.904  10.422  0.00  0.00     0.229 C 
BRANCH  19  20
ATOM     20  NZ  LYS d          11.049 -25.941  10.969  0.00  0.00    -0.079 N 
ATOM     21  H13 LYS d          11.579 -26.758  11.228  0.00  0.00     0.274 HD
ATOM     22  H14 LYS d          10.369 -26.190  10.268  0.00  0.00     0.274 HD
ATOM     23  H15 LYS d          10.576 -25.576  11.781  0.00  0.00     0.274 HD
ENDBRANCH  19  20
ENDBRANCH  18  19
ENDBRANCH  17  18
ENDBRANCH  16  17
ENDBRANCH  11  16
ENDBRANCH   8  11
ENDBRANCH   6   7
BRANCH   6  24
ATOM     24  CB  LYS d           6.247 -18.076   9.569  0.00  0.00     0.199 C 
BRANCH  24  25
ATOM     25  OG  LYS d           5.783 -16.744   9.620  0.00  0.00    -0.398 OA
ATOM     26  H20 LYS d           6.042 -16.289   8.827  0.00  0.00     0.209 HD
ENDBRANCH  24  25
ENDBRANCH   6  24
ENDBRANCH   3   6
ENDBRANCH   1   2
BRANCH   1  27
ATOM     27  C   LYS d           7.967 -14.127  11.901  0.00  0.00     0.241 C 
ATOM     28  O   LYS d           8.190 -13.339  12.840  0.00  0.00    -0.271 OA
ATOM     29  N   LYS d           6.795 -14.213  11.278  0.00  0.00    -0.344 N 
ATOM     30  H34 LYS d           6.665 -14.937  10.601  0.00  0.00     0.163 HD
BRANCH  29  31
ATOM     31  CA  LYS d           5.677 -13.283  11.545  0.00  0.00     0.205 C 
BRANCH  31  32
ATOM     32  C   LYS d           4.434 -14.043  11.980  0.00  0.00     0.243 C 
ATOM     33  O   LYS d           3.315 -13.532  12.077  0.00  0.00    -0.271 OA
ATOM     34  N   LYS d           4.608 -15.740  12.006  0.00  0.00    -0.345 N 
ATOM     35  H41 LYS d           5.443 -16.202  11.707  0.00  0.00     0.163 HD
BRANCH  34  36
ATOM     36  CA  LYS d           3.458 -16.451  12.492  0.00  0.00     0.193 C 
BRANCH  36  37
ATOM     37  C   LYS d           4.093 -17.575  13.299  0.00  0.00     0.282 C 
ATOM     38  O   LYS d           4.901 -18.341  12.803  0.00  0.00    -0.263 OA
BRANCH  37  39
ATOM     39  OXT LYS d           3.784 -17.569  14.584  0.00  0.00    -0.325 OA
ATOM     40  C1  LYS d           4.193 -18.787  15.201  0.00  0.00     0.213 C 
ENDBRANCH  37  39
ENDBRANCH  36  37
BRANCH  36  41
ATOM     41  CB  LYS d           2.677 -16.921  11.270  0.00  0.00     0.106 C 
BRANCH  41  42
ATOM     42  SG  LYS d           1.511 -18.238  11.730  0.00  0.00    -0.180 SA
ATOM     43  H45 LYS d           1.004 -18.537  10.912  0.00  0.00     0.101 HD
ENDBRANCH  41  42
ENDBRANCH  36  41
ENDBRANCH  34  36
ENDBRANCH  31  32
BRANCH  31  44
ATOM     44  CB  LYS d           5.343 -12.494  10.288  0.00  0.00     0.146 C 
ATOM     45  CG2 LYS d           6.579 -11.654   9.911  0.00  0.00     0.042 C 
BRANCH  44  46
ATOM     46  OG1 LYS d           5.051 -13.419   9.224  0.00  0.00    -0.393 OA
ATOM     47  H37 LYS d           5.809 -13.969   9.067  0.00  0.00     0.210 HD
ENDBRANCH  44  46
ENDBRANCH  31  44
ENDBRANCH  29  31
ENDBRANCH   1  27
BRANCH   1  48
ATOM     48  CB  LYS d          10.223 -14.188  10.883  0.00  0.00     0.035 C 
BRANCH  48  49
ATOM     49  CG  LYS d          11.491 -14.939  10.538  0.00  0.00     0.004 C 
BRANCH  49  50
ATOM     50  CD  LYS d          12.241 -14.167   9.439  0.00  0.00     0.027 C 
BRANCH  50  51
ATOM     51  CE  LYS d          13.048 -15.109   8.549  0.00  0.00     0.229 C 
BRANCH  51  52
ATOM     52  NZ  LYS d          14.333 -15.546   9.163  0.00  0.00    -0.079 N 
ATOM     53  H31 LYS d          14.816 -16.163   8.529  0.00  0.00     0.274 HD
ATOM     54  H32 LYS d          14.145 -16.032  10.026  0.00  0.00     0.274 HD
ATOM     55  H33 LYS d          14.908 -14.739   9.350  0.00  0.00     0.274 HD
ENDBRANCH  51  52
ENDBRANCH  50  51
ENDBRANCH  49  50
ENDBRANCH  48  49
ENDBRANCH   1  48
TORSDOF 27
