REMARK  5 active torsions:
REMARK  status: ('A' for Active; 'I' for Inactive)
REMARK    1  A    between atoms: N1_1  and  C6_13 
REMARK    2  A    between atoms: C1_3  and  C5_10 
REMARK    3  A    between atoms: C2_4  and  N3_6 
REMARK       I    between atoms: N3_6  and  C4_7 
REMARK       I    between atoms: C4_7  and  N4_8 
REMARK       I    between atoms: C5_10  and  N5_11 
REMARK    4  A    between atoms: C14_21  and  O3_23 
REMARK    5  A    between atoms: O3_23  and  C16_24 
ROOT
ATOM      1  N1  MOL d          -4.852   8.225  13.254  0.00  0.00    -0.241 N 
ATOM      2  N2  MOL d          -5.941   7.545  13.664  0.00  0.00    -0.160 NA
ATOM      3  C1  MOL d          -5.470   6.620  14.557  0.00  0.00     0.172 A 
ATOM      4  C2  MOL d          -4.045   6.735  14.691  0.00  0.00     0.090 A 
ATOM      5  C3  MOL d          -3.659   7.773  13.835  0.00  0.00     0.151 A 
ENDROOT
BRANCH   1   6
ATOM      6  C6  MOL d          -4.962   9.346  12.364  0.00  0.00     0.069 A 
ATOM      7  C7  MOL d          -4.278   9.299  11.176  0.00  0.00     0.032 A 
ATOM      8  C8  MOL d          -4.380  10.386  10.280  0.00  0.00     0.003 A 
ATOM      9  C9  MOL d          -5.151  11.470  10.594  0.00  0.00     0.012 A 
ATOM     10  C11 MOL d          -5.829  11.541  11.837  0.00  0.00    -0.024 A 
ATOM     11  C10 MOL d          -5.758  10.469  12.741  0.00  0.00     0.005 A 
ATOM     12  C12 MOL d          -6.565  12.706  12.194  0.00  0.00     0.015 A 
ATOM     13  C15 MOL d          -6.432  10.549  13.983  0.00  0.00     0.051 A 
ATOM     14  C14 MOL d          -7.133  11.686  14.293  0.00  0.00     0.069 A 
ATOM     15  C13 MOL d          -7.203  12.792  13.394  0.00  0.00     0.037 A 
BRANCH  14  16
ATOM     16  O3  MOL d          -7.798  11.902  15.461  0.00  0.00    -0.351 OA
BRANCH  16  17
ATOM     17  C16 MOL d          -7.810  10.842  16.403  0.00  0.00     0.171 C 
ATOM     18  C17 MOL d          -8.484  11.418  17.642  0.00  0.00     0.034 C 
ENDBRANCH  16  17
ENDBRANCH  14  16
ENDBRANCH   1   6
BRANCH   3  19
ATOM     19  C5  MOL d          -6.331   5.678  15.272  0.00  0.00     0.272 C 
ATOM     20  N5  MOL d          -7.662   5.649  14.937  0.00  0.00    -0.365 N 
ATOM     21  H   MOL d          -8.281   5.018  15.404  0.00  0.00     0.159 HD
ATOM     22  H   MOL d          -8.012   6.259  14.226  0.00  0.00     0.159 HD
ATOM     23  O2  MOL d          -5.887   4.934  16.154  0.00  0.00    -0.266 OA
ENDBRANCH   3  19
BRANCH   4  24
ATOM     24  N3  MOL d          -3.287   5.933  15.537  0.00  0.00    -0.305 N 
ATOM     25  C4  MOL d          -1.899   6.102  15.657  0.00  0.00     0.318 C 
ATOM     26  N4  MOL d          -1.268   5.326  16.621  0.00  0.00    -0.352 N 
ATOM     27  O1  MOL d          -1.253   6.887  14.954  0.00  0.00    -0.247 OA
ATOM     28  H   MOL d          -0.280   5.401  16.755  0.00  0.00     0.160 HD
ATOM     29  H   MOL d          -1.802   4.692  17.181  0.00  0.00     0.160 HD
ATOM     30  H   MOL d          -3.741   5.220  16.072  0.00  0.00     0.171 HD
ENDBRANCH   4  24
TORSDOF 5
