REMARK  10 active torsions:
REMARK  status: ('A' for Active; 'I' for Inactive)
REMARK    1  A    between atoms: C1_2  and  C3_3 
REMARK    2  A    between atoms: C3_3  and  C4_4 
REMARK       I    between atoms: C4_4  and  N1_6 
REMARK    3  A    between atoms: N1_6  and  C5_7 
REMARK    4  A    between atoms: C6_8  and  O2_9 
REMARK    5  A    between atoms: C7_10  and  O3_11 
REMARK    6  A    between atoms: C8_12  and  C9_13 
REMARK    7  A    between atoms: C9_13  and  O4_14 
REMARK    8  A    between atoms: N2_17  and  O6_18 
REMARK    9  A    between atoms: O6_18  and  C11_19 
REMARK       I    between atoms: C11_19  and  N3_21 
REMARK   10  A    between atoms: N3_21  and  C12_22 
ROOT
ATOM      1  C5  NP6 d          -7.541 -11.991   8.770  0.00  0.00     0.195 C 
ATOM      2  C6  NP6 d          -8.491 -11.657   9.934  0.00  0.00     0.180 C 
ATOM      3  C7  NP6 d          -7.870 -10.627  10.864  0.00  0.00     0.180 C 
ATOM      4  C8  NP6 d          -7.656  -9.341  10.069  0.00  0.00     0.185 C 
ATOM      5  O5  NP6 d          -6.755  -9.563   8.993  0.00  0.00    -0.324 OA
ATOM      6  C10 NP6 d          -6.549 -10.835   8.518  0.00  0.00     0.194 C 
ATOM      7  N2  NP6 d          -5.422 -11.046   7.839  0.00  0.00    -0.100 NA
ENDROOT
BRANCH   1   8
ATOM      8  N1  NP6 d          -8.299 -12.381   7.543  0.00  0.00    -0.346 N 
ATOM      9  C4  NP6 d          -9.108 -11.583   6.833  0.00  0.00     0.218 C 
ATOM     10  O1  NP6 d          -9.339 -10.400   7.102  0.00  0.00    -0.274 OA
ATOM     11  H8  NP6 d          -8.193 -13.322   7.223  0.00  0.00     0.163 HD
BRANCH   9  12
ATOM     12  C3  NP6 d          -9.779 -12.260   5.617  0.00  0.00     0.102 C 
BRANCH  12  13
ATOM     13  C1  NP6 d         -10.866 -11.343   5.079  0.00  0.00     0.005 C 
ATOM     14  C2  NP6 d         -11.630 -11.962   3.915  0.00  0.00     0.005 C 
ENDBRANCH  12  13
ENDBRANCH   9  12
ENDBRANCH   1   8
BRANCH   7  15
ATOM     15  O6  NP6 d          -4.535 -10.008   7.674  0.00  0.00    -0.153 OA
BRANCH  15  16
ATOM     16  C11 NP6 d          -3.274 -10.405   7.264  0.00  0.00     0.389 C 
ATOM     17  O7  NP6 d          -2.368  -9.568   7.171  0.00  0.00    -0.236 OA
ATOM     18  N3  NP6 d          -3.094 -11.722   6.999  0.00  0.00    -0.301 N 
ATOM     19  H18 NP6 d          -3.881 -12.306   7.198  0.00  0.00     0.171 HD
BRANCH  18  20
ATOM     20  C12 NP6 d          -2.009 -12.369   6.505  0.00  0.00     0.036 A 
ATOM     21  C13 NP6 d          -2.129 -13.737   6.234  0.00  0.00     0.029 A 
ATOM     22  C14 NP6 d          -1.064 -14.473   5.702  0.00  0.00     0.002 A 
ATOM     23  C15 NP6 d           0.150 -13.836   5.422  0.00  0.00     0.000 A 
ATOM     24  C16 NP6 d           0.277 -12.467   5.666  0.00  0.00     0.002 A 
ATOM     25  C17 NP6 d          -0.794 -11.739   6.202  0.00  0.00     0.029 A 
ENDBRANCH  18  20
ENDBRANCH  15  16
ENDBRANCH   7  15
BRANCH   2  26
ATOM     26  O2  NP6 d          -8.788 -12.841  10.656  0.00  0.00    -0.390 OA
ATOM     27  H11 NP6 d          -9.374 -12.634  11.374  0.00  0.00     0.210 HD
ENDBRANCH   2  26
BRANCH   4  28
ATOM     28  C9  NP6 d          -7.108  -8.125  10.856  0.00  0.00     0.199 C 
BRANCH  28  29
ATOM     29  O4  NP6 d          -5.950  -8.483  11.600  0.00  0.00    -0.398 OA
ATOM     30  H17 NP6 d          -5.632  -7.723  12.074  0.00  0.00     0.209 HD
ENDBRANCH  28  29
ENDBRANCH   4  28
BRANCH   3  31
ATOM     31  O3  NP6 d          -8.760 -10.329  11.949  0.00  0.00    -0.390 OA
ATOM     32  H13 NP6 d          -8.936 -11.123  12.440  0.00  0.00     0.210 HD
ENDBRANCH   3  31
TORSDOF 10
