REMARK  8 active torsions:
REMARK  status: ('A' for Active; 'I' for Inactive)
REMARK    1  A    between atoms: P_2  and  O5_5 
REMARK    2  A    between atoms: O5_5  and  C5_6 
REMARK    3  A    between atoms: C5_6  and  C4_7 
REMARK    4  A    between atoms: C4_7  and  O4_8 
REMARK    5  A    between atoms: C4_7  and  C3_9 
REMARK    6  A    between atoms: C3_9  and  O3_10 
REMARK    7  A    between atoms: C3_9  and  O3'_11 
REMARK    8  A    between atoms: C3_9  and  C2_12 
ROOT
ATOM      1  C4  D5X d         -35.533  20.570  -4.973  0.00  0.00     0.212 C 
ENDROOT
BRANCH   1   2
ATOM      2  C5  D5X d         -36.231  21.795  -5.521  0.00  0.00     0.220 C 
BRANCH   2   3
ATOM      3  O5  D5X d         -37.632  21.622  -5.379  0.00  0.00    -0.280 OA
BRANCH   3   4
ATOM      4  P   D5X d         -38.406  22.544  -4.480  0.00  0.00     0.422 P 
ATOM      5  O3P D5X d         -38.016  24.118  -4.532  0.00  0.00    -0.617 OA
ATOM      6  O2P D5X d         -39.873  22.405  -4.913  0.00  0.00    -0.617 OA
ATOM      7  O1P D5X d         -38.177  21.948  -3.090  0.00  0.00    -0.617 OA
ENDBRANCH   3   4
ENDBRANCH   2   3
ENDBRANCH   1   2
BRANCH   1   8
ATOM      8  O4  D5X d         -35.745  20.705  -3.576  0.00  0.00    -0.387 OA
ATOM      9  H4  D5X d         -36.678  20.712  -3.398  0.00  0.00     0.210 HD
ENDBRANCH   1   8
BRANCH   1  10
ATOM     10  C3  D5X d         -34.066  20.645  -5.424  0.00  0.00     0.251 C 
BRANCH  10  11
ATOM     11  O3  D5X d         -33.730  20.208  -6.723  0.00  0.00    -0.357 OA
ATOM     12  H5  D5X d         -32.959  19.654  -6.680  0.00  0.00     0.213 HD
ENDBRANCH  10  11
BRANCH  10  13
ATOM     13  O3' D5X d         -33.124  21.379  -4.742  0.00  0.00    -0.357 OA
ATOM     14  H6  D5X d         -33.465  21.613  -3.887  0.00  0.00     0.213 HD
ENDBRANCH  10  13
BRANCH  10  15
ATOM     15  C2  D5X d         -33.547  19.319  -4.730  0.00  0.00     0.187 C 
ATOM     16  O2  D5X d         -33.616  18.183  -5.240  0.00  0.00    -0.292 OA
ATOM     17  C1  D5X d         -32.817  19.458  -3.360  0.00  0.00     0.097 C 
ENDBRANCH  10  15
ENDBRANCH   1  10
TORSDOF 8
