REMARK  26 active torsions:
REMARK  status: ('A' for Active; 'I' for Inactive)
REMARK    1  A    between atoms: C2_4  and  C1_1 
REMARK    2  A    between atoms: C2_4  and  O2_15 
REMARK    3  A    between atoms: O2_23  and  C4_6 
REMARK    4  A    between atoms: C5_7  and  O5_8 
REMARK    5  A    between atoms: C6_9  and  C7_11 
REMARK    6  A    between atoms: C7_11  and  O7_12 
REMARK    7  A    between atoms: C7_11  and  C8_13 
REMARK    8  A    between atoms: C8_13  and  O8_14 
REMARK    9  A    between atoms: O2_15  and  C9_16 
REMARK   10  A    between atoms: C9_16  and  C10_17 
REMARK   11  A    between atoms: C2_22  and  C1_19 
REMARK   12  A    between atoms: C2_22  and  O2_23 
REMARK   13  A    between atoms: O2_38  and  C4_25 
REMARK   14  A    between atoms: C5_26  and  O5_27 
REMARK   15  A    between atoms: C6_28  and  C7_30 
REMARK   16  A    between atoms: C7_30  and  O7_31 
REMARK   17  A    between atoms: C7_30  and  C8_32 
REMARK   18  A    between atoms: C8_32  and  O8_33 
REMARK   19  A    between atoms: C2_37  and  C1_34 
REMARK   20  A    between atoms: C2_37  and  O2_38 
REMARK   21  A    between atoms: C4_40  and  O4_41 
REMARK   22  A    between atoms: C5_42  and  O5_43 
REMARK   23  A    between atoms: C6_44  and  C7_46 
REMARK   24  A    between atoms: C7_46  and  O7_47 
REMARK   25  A    between atoms: C7_46  and  C8_48 
REMARK   26  A    between atoms: C8_48  and  O8_49 
ROOT
ATOM      1  C2  KDA d          -8.658   1.360  70.871  0.00  0.00     0.259 C 
ATOM      2  C3  KDA d          -8.495   1.673  69.353  0.00  0.00     0.115 C 
ATOM      3  C4  KDA d          -7.849   0.522  68.543  0.00  0.00     0.162 C 
ATOM      4  C5  KDA d          -6.576  -0.061  69.162  0.00  0.00     0.179 C 
ATOM      5  C6  KDA d          -6.930  -0.506  70.598  0.00  0.00     0.187 C 
ATOM      6  O6  KDA d          -7.458   0.650  71.344  0.00  0.00    -0.336 OA
ENDROOT
BRANCH   1   7
ATOM      7  C1  KDA d          -8.721   2.716  71.614  0.00  0.00     0.239 C 
ATOM      8  O1A KDA d          -7.681   3.157  72.182  0.00  0.00    -0.644 OA
ATOM      9  O1B KDA d          -9.824   3.305  71.595  0.00  0.00    -0.644 OA
ENDBRANCH   1   7
BRANCH   1  10
ATOM     10  O2  KDA d          -9.863   0.562  71.118  0.00  0.00    -0.338 OA
BRANCH  10  11
ATOM     11  C4  KDA d          -9.848  -0.084  72.412  0.00  0.00     0.162 C 
ATOM     12  C3  KDA d         -11.147  -0.876  72.150  0.00  0.00     0.116 C 
ATOM     13  C2  KDA d         -11.321  -2.150  73.041  0.00  0.00     0.262 C 
ATOM     14  O6  KDA d         -10.504  -2.159  74.257  0.00  0.00    -0.335 OA
ATOM     15  C6  KDA d          -9.279  -1.374  74.397  0.00  0.00     0.187 C 
ATOM     16  C5  KDA d          -9.571   0.064  73.918  0.00  0.00     0.179 C 
BRANCH  13  17
ATOM     17  C1  KDA d         -12.743  -2.176  73.621  0.00  0.00     0.239 C 
ATOM     18  O1A KDA d         -13.590  -1.347  73.182  0.00  0.00    -0.644 OA
ATOM     19  O1B KDA d         -12.978  -3.017  74.511  0.00  0.00    -0.644 OA
ENDBRANCH  13  17
BRANCH  13  20
ATOM     20  O2  KDA d         -11.001  -3.355  72.278  0.00  0.00    -0.317 OA
BRANCH  20  21
ATOM     21  C9  KDA d         -10.971  -4.658  72.723  0.00  0.00     0.135 C 
BRANCH  21  22
ATOM     22  C10 KDA d         -11.592  -5.784  72.161  0.00  0.00    -0.007 C 
ATOM     23  C11 KDA d         -11.448  -7.031  72.759  0.00  0.00     0.038 C 
ENDBRANCH  21  22
ENDBRANCH  20  21
ENDBRANCH  13  20
BRANCH  15  24
ATOM     24  C7  KDA d          -8.667  -1.447  75.811  0.00  0.00     0.173 C 
BRANCH  24  25
ATOM     25  O7  KDA d          -7.365  -0.859  75.829  0.00  0.00    -0.391 OA
ATOM     26  H8  KDA d          -6.800  -1.326  75.225  0.00  0.00     0.210 HD
ENDBRANCH  24  25
BRANCH  24  27
ATOM     27  C8  KDA d          -8.522  -2.900  76.305  0.00  0.00     0.198 C 
BRANCH  27  28
ATOM     28  O8  KDA d          -7.816  -3.710  75.343  0.00  0.00    -0.398 OA
ATOM     29  H11 KDA d          -7.741  -4.598  75.672  0.00  0.00     0.209 HD
ENDBRANCH  27  28
ENDBRANCH  24  27
ENDBRANCH  15  24
BRANCH  16  30
ATOM     30  O5  KDA d         -10.699   0.614  74.622  0.00  0.00    -0.390 OA
ATOM     31  H5  KDA d         -11.449   0.041  74.513  0.00  0.00     0.210 HD
ENDBRANCH  16  30
ENDBRANCH  10  11
ENDBRANCH   1  10
BRANCH   3  32
ATOM     32  O2  KDA d          -7.527   1.111  67.276  0.00  0.00    -0.338 OA
BRANCH  32  33
ATOM     33  C2  KDA d          -8.341   1.557  66.167  0.00  0.00     0.259 C 
ATOM     34  C3  KDA d          -7.474   1.498  64.885  0.00  0.00     0.115 C 
ATOM     35  C4  KDA d          -6.303   2.488  65.012  0.00  0.00     0.155 C 
ATOM     36  C5  KDA d          -6.799   3.910  65.310  0.00  0.00     0.178 C 
ATOM     37  C6  KDA d          -7.653   3.898  66.605  0.00  0.00     0.187 C 
ATOM     38  O6  KDA d          -8.739   2.932  66.459  0.00  0.00    -0.336 OA
BRANCH  33  39
ATOM     39  C1  KDA d          -9.619   0.725  65.937  0.00  0.00     0.239 C 
ATOM     40  O1A KDA d         -10.667   1.308  65.550  0.00  0.00    -0.644 OA
ATOM     41  O1B KDA d          -9.505  -0.493  66.091  0.00  0.00    -0.644 OA
ENDBRANCH  33  39
BRANCH  35  42
ATOM     42  O4  KDA d          -5.602   2.480  63.764  0.00  0.00    -0.393 OA
ATOM     43  H31 KDA d          -6.192   2.748  63.069  0.00  0.00     0.210 HD
ENDBRANCH  35  42
BRANCH  36  44
ATOM     44  O5  KDA d          -7.639   4.380  64.239  0.00  0.00    -0.390 OA
ATOM     45  H33 KDA d          -7.143   4.387  63.429  0.00  0.00     0.210 HD
ENDBRANCH  36  44
BRANCH  37  46
ATOM     46  C7  KDA d          -8.193   5.288  66.991  0.00  0.00     0.173 C 
BRANCH  46  47
ATOM     47  O7  KDA d          -7.090   6.158  67.175  0.00  0.00    -0.391 OA
ATOM     48  H36 KDA d          -6.534   5.820  67.867  0.00  0.00     0.210 HD
ENDBRANCH  46  47
BRANCH  46  49
ATOM     49  C8  KDA d          -8.961   5.233  68.320  0.00  0.00     0.198 C 
BRANCH  49  50
ATOM     50  O8  KDA d          -8.053   4.911  69.399  0.00  0.00    -0.398 OA
ATOM     51  H39 KDA d          -7.378   5.578  69.453  0.00  0.00     0.209 HD
ENDBRANCH  49  50
ENDBRANCH  46  49
ENDBRANCH  37  46
ENDBRANCH  32  33
ENDBRANCH   3  32
BRANCH   5  52
ATOM     52  C7  KDA d          -5.735  -1.196  71.277  0.00  0.00     0.173 C 
BRANCH  52  53
ATOM     53  O7  KDA d          -5.431  -2.437  70.631  0.00  0.00    -0.391 OA
ATOM     54  H24 KDA d          -4.691  -2.846  71.065  0.00  0.00     0.210 HD
ENDBRANCH  52  53
BRANCH  52  55
ATOM     55  C8  KDA d          -6.011  -1.479  72.763  0.00  0.00     0.198 C 
BRANCH  55  56
ATOM     56  O8  KDA d          -4.894  -2.172  73.346  0.00  0.00    -0.398 OA
ATOM     57  H27 KDA d          -4.760  -2.994  72.890  0.00  0.00     0.209 HD
ENDBRANCH  55  56
ENDBRANCH  52  55
ENDBRANCH   5  52
BRANCH   4  58
ATOM     58  O5  KDA d          -5.515   0.918  69.123  0.00  0.00    -0.390 OA
ATOM     59  H21 KDA d          -5.342   1.160  68.221  0.00  0.00     0.210 HD
ENDBRANCH   4  58
TORSDOF 26
