2r2b_ligand

Created by X-TOOL on Fri Sep 26 17:34:42 2014
 88 90  0  0  0  0  0  0  0  0999 V2000
  -12.7430   -2.1760   73.6210  C 0  5  0  1  0  3
  -13.5900   -1.3470   73.1820  O 0  0  0  1  0  1
  -12.9780   -3.0170   74.5110  O 0  0  0  1  0  1
  -11.3210   -2.1500   73.0410  C 0  0  0  1  0  4
  -11.1470   -0.8760   72.1500  C 0  0  0  3  0  4
   -9.8480   -0.0840   72.4120  C 0  0  0  2  0  4
   -9.5710    0.0640   73.9180  C 0  0  0  2  0  4
  -10.6990    0.6140   74.6220  O 0  0  0  2  0  2
   -9.2790   -1.3740   74.3970  C 0  0  0  2  0  4
  -10.5040   -2.1590   74.2570  O 0  0  0  1  0  2
   -8.6670   -1.4470   75.8110  C 0  0  0  2  0  4
   -7.3650   -0.8590   75.8290  O 0  0  0  2  0  2
   -8.5220   -2.9000   76.3050  C 0  0  0  3  0  4
   -7.8160   -3.7100   75.3430  O 0  0  0  2  0  2
  -11.0010   -3.3550   72.2780  O 0  0  0  1  0  2
  -10.9710   -4.6580   72.7230  C 0  0  0  2  0  3
  -11.5920   -5.7840   72.1610  C 0  0  0  2  0  3
  -11.4480   -7.0310   72.7590  C 0  0  0  4  0  4
   -8.7210    2.7160   71.6140  C 0  5  0  1  0  3
   -7.6810    3.1570   72.1820  O 0  0  0  1  0  1
   -9.8240    3.3050   71.5950  O 0  0  0  1  0  1
   -8.6580    1.3600   70.8710  C 0  0  0  1  0  4
   -9.8630    0.5620   71.1180  O 0  0  0  1  0  2
   -8.4950    1.6730   69.3530  C 0  0  0  3  0  4
   -7.8490    0.5220   68.5430  C 0  0  0  2  0  4
   -6.5760   -0.0610   69.1620  C 0  0  0  2  0  4
   -5.5150    0.9180   69.1230  O 0  0  0  2  0  2
   -6.9300   -0.5060   70.5980  C 0  0  0  2  0  4
   -7.4580    0.6500   71.3440  O 0  0  0  1  0  2
   -5.7350   -1.1960   71.2770  C 0  0  0  2  0  4
   -5.4310   -2.4370   70.6310  O 0  0  0  2  0  2
   -6.0110   -1.4790   72.7630  C 0  0  0  3  0  4
   -4.8940   -2.1720   73.3460  O 0  0  0  2  0  2
   -9.6190    0.7250   65.9370  C 0  5  0  1  0  3
  -10.6670    1.3080   65.5500  O 0  0  0  1  0  1
   -9.5050   -0.4930   66.0910  O 0  0  0  1  0  1
   -8.3410    1.5570   66.1670  C 0  0  0  1  0  4
   -7.5270    1.1110   67.2760  O 0  0  0  1  0  2
   -7.4740    1.4980   64.8850  C 0  0  0  3  0  4
   -6.3030    2.4880   65.0120  C 0  0  0  2  0  4
   -5.6020    2.4800   63.7640  O 0  0  0  2  0  2
   -6.7990    3.9100   65.3100  C 0  0  0  2  0  4
   -7.6390    4.3800   64.2390  O 0  0  0  2  0  2
   -7.6530    3.8980   66.6050  C 0  0  0  2  0  4
   -8.7390    2.9320   66.4590  O 0  0  0  1  0  2
   -8.1930    5.2880   66.9910  C 0  0  0  2  0  4
   -7.0900    6.1580   67.1750  O 0  0  0  2  0  2
   -8.9610    5.2330   68.3200  C 0  0  0  3  0  4
   -8.0530    4.9110   69.3990  O 0  0  0  2  0  2
  -12.0004   -0.2074   72.3361  H 0  0  0  1  0  1
  -11.1508   -1.1907   71.0960  H 0  0  0  1  0  1
   -9.0254   -0.7899   72.2251  H 0  0  0  1  0  1
   -8.6962    0.7103   74.0824  H 0  0  0  1  0  1
  -11.4490    0.0413   74.5126  H 0  0  0  1  0  1
   -8.5318   -1.8027   73.7130  H 0  0  0  1  0  1
   -9.3236   -0.8975   76.5016  H 0  0  0  1  0  1
   -6.7996   -1.3256   75.2248  H 0  0  0  1  0  1
   -9.5233   -3.3257   76.4664  H 0  0  0  1  0  1
   -7.9652   -2.9026   77.2536  H 0  0  0  1  0  1
   -7.7413   -4.5979   75.6724  H 0  0  0  1  0  1
  -10.3909   -4.8376   73.6270  H 0  0  0  1  0  1
  -12.1876   -5.6810   71.2551  H 0  0  0  1  0  1
  -12.0028   -7.7825   72.1780  H 0  0  0  1  0  1
  -11.8448   -6.9940   73.7843  H 0  0  0  1  0  1
  -10.3826   -7.3031   72.7877  H 0  0  0  1  0  1
   -7.8629    2.5672   69.2492  H 0  0  0  1  0  1
   -9.4906    1.8769   68.9321  H 0  0  0  1  0  1
   -8.5796   -0.2905   68.4167  H 0  0  0  1  0  1
   -6.2567   -0.9411   68.5846  H 0  0  0  1  0  1
   -5.3420    1.1601   68.2208  H 0  0  0  1  0  1
   -7.7364   -1.2513   70.5328  H 0  0  0  1  0  1
   -4.8628   -0.5302   71.1999  H 0  0  0  1  0  1
   -4.6915   -2.8459   71.0651  H 0  0  0  1  0  1
   -6.9137   -2.1010   72.8541  H 0  0  0  1  0  1
   -6.1663   -0.5275   73.2926  H 0  0  0  1  0  1
   -4.7599   -2.9944   72.8898  H 0  0  0  1  0  1
   -8.0890    1.7673   64.0137  H 0  0  0  1  0  1
   -7.0803    0.4791   64.7551  H 0  0  0  1  0  1
   -5.6326    2.1632   65.8214  H 0  0  0  1  0  1
   -6.1918    2.7477   63.0690  H 0  0  0  1  0  1
   -5.9370    4.5822   65.4325  H 0  0  0  1  0  1
   -7.1430    4.3871   63.4288  H 0  0  0  1  0  1
   -7.0053    3.5601   67.4274  H 0  0  0  1  0  1
   -8.8510    5.6648   66.1941  H 0  0  0  1  0  1
   -6.5337    5.8202   67.8670  H 0  0  0  1  0  1
   -9.7426    4.4614   68.2582  H 0  0  0  1  0  1
   -9.4257    6.2110   68.5137  H 0  0  0  1  0  1
   -7.3783    5.5776   69.4532  H 0  0  0  1  0  1
  1  2  2  0  0  2
  1  3  2  0  0  2
  4  1  1  0  0  2
  5  4  1  0  0  1
  4 10  1  0  0  1
  4 15  1  0  0  2
  6  5  1  0  0  1
  6  7  1  0  0  1
 23  6  1  0  0  2
  7  8  1  0  0  2
  7  9  1  0  0  1
  9 10  1  0  0  1
  9 11  1  0  0  2
 11 12  1  0  0  2
 11 13  1  0  0  2
 13 14  1  0  0  2
 15 16  1  0  0  2
 16 17  2  0  0  2
 17 18  1  0  0  2
 19 20  2  0  0  2
 19 21  2  0  0  2
 22 19  1  0  0  2
 22 23  1  0  0  2
 24 22  1  0  0  1
 22 29  1  0  0  1
 25 24  1  0  0  1
 25 26  1  0  0  1
 38 25  1  0  0  2
 26 27  1  0  0  2
 26 28  1  0  0  1
 28 29  1  0  0  1
 28 30  1  0  0  2
 30 31  1  0  0  2
 30 32  1  0  0  2
 32 33  1  0  0  2
 34 35  2  0  0  2
 34 36  2  0  0  2
 37 34  1  0  0  2
 37 38  1  0  0  2
 37 39  1  0  0  1
 37 45  1  0  0  1
 39 40  1  0  0  1
 40 41  1  0  0  2
 40 42  1  0  0  1
 42 43  1  0  0  2
 42 44  1  0  0  1
 44 45  1  0  0  1
 44 46  1  0  0  2
 46 47  1  0  0  2
 46 48  1  0  0  2
 48 49  1  0  0  2
  5 50  1  0  0  2
  5 51  1  0  0  2
  6 52  1  0  0  2
  7 53  1  0  0  2
  8 54  1  0  0  2
  9 55  1  0  0  2
 11 56  1  0  0  2
 12 57  1  0  0  2
 13 58  1  0  0  2
 13 59  1  0  0  2
 14 60  1  0  0  2
 16 61  1  0  0  2
 17 62  1  0  0  2
 18 63  1  0  0  2
 18 64  1  0  0  2
 18 65  1  0  0  2
 24 66  1  0  0  2
 24 67  1  0  0  2
 25 68  1  0  0  2
 26 69  1  0  0  2
 27 70  1  0  0  2
 28 71  1  0  0  2
 30 72  1  0  0  2
 31 73  1  0  0  2
 32 74  1  0  0  2
 32 75  1  0  0  2
 33 76  1  0  0  2
 39 77  1  0  0  2
 39 78  1  0  0  2
 40 79  1  0  0  2
 41 80  1  0  0  2
 42 81  1  0  0  2
 43 82  1  0  0  2
 44 83  1  0  0  2
 46 84  1  0  0  2
 47 85  1  0  0  2
 48 86  1  0  0  2
 48 87  1  0  0  2
 49 88  1  0  0  2
M  END
> <MOLECULAR_FORMULA>
C27H39O22

> <MOLECULAR_WEIGHT>
715.3

> <NUM_HB_ATOMS>
22 

> <NUM_ROTOR>
12 

> <XLOGP2>
-7.17

$$$$
