REMARK  22 active torsions:
REMARK  status: ('A' for Active; 'I' for Inactive)
REMARK       I    between atoms: C_1  and  N_4 
REMARK    1  A    between atoms: N_4  and  CA_5 
REMARK    2  A    between atoms: CA_5  and  C_6 
REMARK    3  A    between atoms: CA_5  and  CB_8 
REMARK       I    between atoms: C_6  and  N_12 
REMARK    4  A    between atoms: CB_8  and  CG_9 
REMARK    5  A    between atoms: CG_9  and  SD_10 
REMARK    6  A    between atoms: N_12  and  CA_13 
REMARK    7  A    between atoms: CA_13  and  C_14 
REMARK    8  A    between atoms: CA_13  and  CB_16 
REMARK       I    between atoms: C_14  and  N_21 
REMARK    9  A    between atoms: CB_16  and  CG_17 
REMARK   10  A    between atoms: CG_17  and  CD_18 
REMARK   11  A    between atoms: N_21  and  CA_22 
REMARK   12  A    between atoms: CA_22  and  C_23 
REMARK   13  A    between atoms: CA_22  and  CB_25 
REMARK       I    between atoms: C_23  and  N_30 
REMARK   14  A    between atoms: CB_25  and  CG_26 
REMARK   15  A    between atoms: CG_26  and  CD_27 
REMARK   16  A    between atoms: N_30  and  CA_31 
REMARK   17  A    between atoms: CA_31  and  C_32 
REMARK   18  A    between atoms: CA_31  and  CB_34 
REMARK       I    between atoms: C_32  and  N_37 
REMARK   19  A    between atoms: N_37  and  CA_38 
REMARK   20  A    between atoms: CA_38  and  C_39 
REMARK   21  A    between atoms: CA_38  and  CB_41 
REMARK   22  A    between atoms: CB_41  and  CG_42 
ROOT
ATOM      1  CA  ACE d         -19.271  10.035   3.129  0.00  0.00     0.177 C 
ENDROOT
BRANCH   1   2
ATOM      2  N   ACE d         -18.455   9.329   2.135  0.00  0.00    -0.346 N 
ATOM      3  C   ACE d         -18.982   8.893   1.004  0.00  0.00     0.241 C 
ATOM      4  O   ACE d         -20.174   9.036   0.719  0.00  0.00    -0.271 OA
ATOM      5  H19 ACE d         -17.484   9.175   2.316  0.00  0.00     0.163 HD
BRANCH   3   6
ATOM      6  CA  ACE d         -18.017   8.208   0.046  0.00  0.00     0.177 C 
BRANCH   6   7
ATOM      7  N   ACE d         -18.668   7.038  -0.511  0.00  0.00    -0.346 N 
ATOM      8  C   ACE d         -19.162   6.074   0.242  0.00  0.00     0.241 C 
ATOM      9  O   ACE d         -18.987   5.981   1.463  0.00  0.00    -0.271 OA
ATOM     10  H13 ACE d         -18.745   6.959  -1.505  0.00  0.00     0.163 HD
BRANCH   8  11
ATOM     11  CA  ACE d         -19.971   5.056  -0.539  0.00  0.00     0.177 C 
BRANCH  11  12
ATOM     12  N   ACE d         -20.021   3.759   0.146  0.00  0.00    -0.348 N 
ATOM     13  C   ACE d         -18.991   2.930   0.224  0.00  0.00     0.214 C 
ATOM     14  O   ACE d         -19.076   1.942   0.945  0.00  0.00    -0.274 OA
ATOM     15  CH3 ACE d         -17.884   3.075  -0.776  0.00  0.00     0.117 C 
ATOM     16  H4  ACE d         -20.881   3.486   0.578  0.00  0.00     0.163 HD
ENDBRANCH  11  12
BRANCH  11  17
ATOM     17  CB  ACE d         -21.386   5.616  -0.764  0.00  0.00     0.045 C 
BRANCH  17  18
ATOM     18  CG  ACE d         -22.343   4.673  -1.508  0.00  0.00     0.076 C 
BRANCH  18  19
ATOM     19  SD  ACE d         -24.019   5.348  -1.623  0.00  0.00    -0.173 SA
ATOM     20  CE  ACE d         -23.841   6.532  -2.963  0.00  0.00     0.089 C 
ENDBRANCH  18  19
ENDBRANCH  17  18
ENDBRANCH  11  17
ENDBRANCH   8  11
ENDBRANCH   6   7
BRANCH   6  21
ATOM     21  CB  ACE d         -17.610   9.176  -1.074  0.00  0.00     0.045 C 
BRANCH  21  22
ATOM     22  CG  ACE d         -16.537   8.628  -1.993  0.00  0.00     0.116 C 
BRANCH  22  23
ATOM     23  CD  ACE d         -15.228   8.384  -1.276  0.00  0.00     0.172 C 
ATOM     24  OE1 ACE d         -14.589   9.360  -0.849  0.00  0.00    -0.648 OA
ATOM     25  OE2 ACE d         -14.833   7.209  -1.146  0.00  0.00    -0.648 OA
ENDBRANCH  22  23
ENDBRANCH  21  22
ENDBRANCH   6  21
ENDBRANCH   3   6
ENDBRANCH   1   2
BRANCH   1  26
ATOM     26  C   ACE d         -19.647  11.417   2.677  0.00  0.00     0.241 C 
ATOM     27  O   ACE d         -18.827  12.161   2.135  0.00  0.00    -0.271 OA
ATOM     28  N   ACE d         -20.890  11.756   2.967  0.00  0.00    -0.346 N 
ATOM     29  H25 ACE d         -21.516  11.051   3.300  0.00  0.00     0.163 HD
BRANCH  28  30
ATOM     30  CA  ACE d         -21.382  13.119   2.819  0.00  0.00     0.180 C 
BRANCH  30  31
ATOM     31  C   ACE d         -21.623  13.726   4.199  0.00  0.00     0.241 C 
ATOM     32  O   ACE d         -21.967  13.036   5.155  0.00  0.00    -0.271 OA
ATOM     33  N   ACE d         -21.407  15.031   4.284  0.00  0.00    -0.344 N 
ATOM     34  H34 ACE d         -21.206  15.546   3.451  0.00  0.00     0.163 HD
BRANCH  33  35
ATOM     35  CA  ACE d         -21.455  15.735   5.559  0.00  0.00     0.189 C 
BRANCH  35  36
ATOM     36  C   ACE d         -22.583  16.760   5.582  0.00  0.00     0.197 C 
ATOM     37  O   ACE d         -22.772  17.442   6.595  0.00  0.00    -0.646 OA
ATOM     38  OXT ACE d         -23.325  16.901   4.595  0.00  0.00    -0.646 OA
ENDBRANCH  35  36
BRANCH  35  39
ATOM     39  CB  ACE d         -20.090  16.388   5.821  0.00  0.00     0.074 C 
BRANCH  39  40
ATOM     40  CG  ACE d         -18.934  15.420   5.689  0.00  0.00    -0.056 A 
ATOM     41  CD1 ACE d         -18.601  14.564   6.727  0.00  0.00     0.007 A 
ATOM     42  CE1 ACE d         -17.553  13.667   6.594  0.00  0.00     0.001 A 
ATOM     43  CZ  ACE d         -16.836  13.617   5.419  0.00  0.00     0.000 A 
ATOM     44  CE2 ACE d         -17.157  14.456   4.384  0.00  0.00     0.001 A 
ATOM     45  CD2 ACE d         -18.204  15.347   4.516  0.00  0.00     0.007 A 
ENDBRANCH  39  40
ENDBRANCH  35  39
ENDBRANCH  33  35
ENDBRANCH  30  31
BRANCH  30  46
ATOM     46  CB  ACE d         -22.661  13.197   1.968  0.00  0.00     0.009 C 
ATOM     47  CG1 ACE d         -22.345  12.830   0.511  0.00  0.00     0.012 C 
ATOM     48  CG2 ACE d         -23.771  12.313   2.558  0.00  0.00     0.012 C 
ENDBRANCH  30  46
ENDBRANCH  28  30
ENDBRANCH   1  26
BRANCH   1  49
ATOM     49  CB  ACE d         -18.547  10.179   4.469  0.00  0.00     0.045 C 
BRANCH  49  50
ATOM     50  CG  ACE d         -18.211   8.885   5.133  0.00  0.00     0.116 C 
BRANCH  50  51
ATOM     51  CD  ACE d         -17.681   9.110   6.537  0.00  0.00     0.172 C 
ATOM     52  OE1 ACE d         -17.986  10.187   7.114  0.00  0.00    -0.648 OA
ATOM     53  OE2 ACE d         -16.964   8.215   7.048  0.00  0.00    -0.648 OA
ENDBRANCH  50  51
ENDBRANCH  49  50
ENDBRANCH   1  49
TORSDOF 22
