REMARK  3 active torsions:
REMARK  status: ('A' for Active; 'I' for Inactive)
REMARK    1  A    between atoms: C1'_19  and  C2_1 
REMARK    2  A    between atoms: C6_5  and  O5_12 
REMARK    3  A    between atoms: C8_7  and  O7_13 
ROOT
ATOM      1  C2  MOL d          21.884   0.156  -7.238  0.00  0.00     0.090 A 
ATOM      2  C3  MOL d          22.966  -0.712  -7.151  0.00  0.00     0.094 A 
ATOM      3  C4  MOL d          23.346  -1.215  -5.919  0.00  0.00     0.190 A 
ATOM      4  C5  MOL d          22.629  -0.835  -4.797  0.00  0.00     0.081 A 
ATOM      5  C6  MOL d          22.989  -1.326  -3.547  0.00  0.00     0.085 A 
ATOM      6  C7  MOL d          22.273  -0.947  -2.418  0.00  0.00     0.074 A 
ATOM      7  C8  MOL d          21.196  -0.078  -2.543  0.00  0.00     0.071 A 
ATOM      8  C9  MOL d          20.839   0.411  -3.794  0.00  0.00     0.075 A 
ATOM      9  C10 MOL d          21.552   0.036  -4.927  0.00  0.00     0.095 A 
ATOM     10  O1  MOL d          21.168   0.539  -6.138  0.00  0.00    -0.309 OA
ATOM     11  O4  MOL d          24.301  -1.984  -5.823  0.00  0.00    -0.287 OA
ENDROOT
BRANCH   1  12
ATOM     12  C1' MOL d          21.517   0.651  -8.484  0.00  0.00    -0.002 A 
ATOM     13  C2' MOL d          21.297   2.013  -8.653  0.00  0.00     0.014 A 
ATOM     14  C3' MOL d          20.930   2.508  -9.899  0.00  0.00     0.001 A 
ATOM     15  C4' MOL d          20.782   1.641 -10.976  0.00  0.00     0.000 A 
ATOM     16  C5' MOL d          21.002   0.279 -10.806  0.00  0.00     0.001 A 
ATOM     17  C6' MOL d          21.369  -0.216  -9.560  0.00  0.00     0.014 A 
ENDBRANCH   1  12
BRANCH   5  18
ATOM     18  O5  MOL d          24.044  -2.176  -3.429  0.00  0.00    -0.360 OA
ATOM     19  H4  MOL d          24.421  -2.332  -4.287  0.00  0.00     0.217 HD
ENDBRANCH   5  18
BRANCH   7  20
ATOM     20  O7  MOL d          20.492   0.295  -1.440  0.00  0.00    -0.361 OA
ATOM     21  H5  MOL d          20.863  -0.125  -0.672  0.00  0.00     0.217 HD
ENDBRANCH   7  20
TORSDOF 3
