REMARK  4 active torsions:
REMARK  status: ('A' for Active; 'I' for Inactive)
REMARK    1  A    between atoms: C1_1  and  C2_2 
REMARK       I    between atoms: C1_1  and  N2_3 
REMARK    2  A    between atoms: C2_2  and  O1P_6 
REMARK    3  A    between atoms: N2_3  and  O2_4 
REMARK    4  A    between atoms: O1P_6  and  P_10 
ROOT
ATOM      1  C1  PGH d          26.438  -2.570  11.319  0.00  0.00     0.265 C 
ATOM      2  N2  PGH d          25.571  -1.975  12.005  0.00  0.00    -0.236 N 
ATOM      3  O1  PGH d          27.386  -3.257  11.750  0.00  0.00    -0.269 OA
ATOM      4  H3  PGH d          24.909  -1.374  11.558  0.00  0.00     0.197 HD
ENDROOT
BRANCH   1   5
ATOM      5  C2  PGH d          26.292  -2.485   9.805  0.00  0.00     0.287 C 
BRANCH   5   6
ATOM      6  O1P PGH d          27.616  -2.288   9.248  0.00  0.00    -0.273 OA
BRANCH   6   7
ATOM      7  P   PGH d          27.696  -2.030   7.641  0.00  0.00     0.422 P 
ATOM      8  O2P PGH d          29.151  -1.558   7.435  0.00  0.00    -0.617 OA
ATOM      9  O3P PGH d          27.361  -3.336   6.907  0.00  0.00    -0.617 OA
ATOM     10  O4P PGH d          26.686  -0.924   7.347  0.00  0.00    -0.617 OA
ENDBRANCH   6   7
ENDBRANCH   5   6
ENDBRANCH   1   5
BRANCH   2  11
ATOM     11  O2  PGH d          25.530  -2.140  13.319  0.00  0.00    -0.287 OA
ATOM     12  H4  PGH d          24.820  -1.622  13.680  0.00  0.00     0.244 HD
ENDBRANCH   2  11
TORSDOF 4
