REMARK  8 active torsions:
REMARK  status: ('A' for Active; 'I' for Inactive)
REMARK    1  A    between atoms: P_2  and  O4_5 
REMARK    2  A    between atoms: O4_5  and  C4_6 
REMARK    3  A    between atoms: C4_6  and  C3_7 
REMARK    4  A    between atoms: C3_7  and  O3_8 
REMARK    5  A    between atoms: C3_7  and  C2_9 
REMARK    6  A    between atoms: C2_9  and  O2_10 
REMARK    7  A    between atoms: C2_9  and  C1_11 
REMARK       I    between atoms: C1_11  and  N_13 
REMARK    8  A    between atoms: N_13  and  ON_14 
ROOT
ATOM      1  C3  RES d          39.012  28.900  13.182  0.00  0.00     0.180 C 
ENDROOT
BRANCH   1   2
ATOM      2  C4  RES d          40.246  29.751  12.907  0.00  0.00     0.217 C 
BRANCH   2   3
ATOM      3  O4  RES d          41.329  28.838  12.663  0.00  0.00    -0.280 OA
BRANCH   3   4
ATOM      4  P   RES d          42.875  29.341  12.508  0.00  0.00     0.422 P 
ATOM      5  O7  RES d          43.342  29.403  13.943  0.00  0.00    -0.617 OA
ATOM      6  O5  RES d          43.517  28.236  11.737  0.00  0.00    -0.617 OA
ATOM      7  O6  RES d          42.747  30.689  11.819  0.00  0.00    -0.617 OA
ENDBRANCH   3   4
ENDBRANCH   2   3
ENDBRANCH   1   2
BRANCH   1   8
ATOM      8  O3  RES d          39.277  28.034  14.289  0.00  0.00    -0.390 OA
ATOM      9  H4  RES d          40.014  27.471  14.080  0.00  0.00     0.210 HD
ENDBRANCH   1   8
BRANCH   1  10
ATOM     10  C2  RES d          37.708  29.654  13.452  0.00  0.00     0.242 C 
BRANCH  10  11
ATOM     11  O2  RES d          37.651  30.889  12.722  0.00  0.00    -0.383 OA
ATOM     12  H6  RES d          36.831  31.330  12.912  0.00  0.00     0.210 HD
ENDBRANCH  10  11
BRANCH  10  13
ATOM     13  C1  RES d          36.566  28.704  13.141  0.00  0.00     0.272 C 
ATOM     14  O1  RES d          36.401  28.138  12.060  0.00  0.00    -0.268 OA
ATOM     15  N   RES d          35.750  28.444  14.150  0.00  0.00    -0.235 N 
ATOM     16  H7  RES d          35.886  28.864  15.047  0.00  0.00     0.197 HD
BRANCH  15  17
ATOM     17  ON  RES d          34.704  27.571  13.920  0.00  0.00    -0.287 OA
ATOM     18  H8  RES d          35.050  26.727  13.654  0.00  0.00     0.244 HD
ENDBRANCH  15  17
ENDBRANCH  10  13
ENDBRANCH   1  10
TORSDOF 8
