REMARK  1 active torsions:
REMARK  status: ('A' for Active; 'I' for Inactive)
REMARK    1  A    between atoms: C3_3  and  C11_11 
ROOT
ATOM      1  C1  MOL d           4.936  12.229  45.114  0.00  0.00     0.018 A 
ATOM      2  C2  MOL d           4.981  11.627  43.750  0.00  0.00     0.040 A 
ATOM      3  C3  MOL d           4.592  13.501  45.275  0.00  0.00     0.012 A 
ATOM      4  C4  MOL d           4.674  12.377  42.699  0.00  0.00     0.102 A 
ATOM      5  C5  MOL d           4.243  14.345  44.088  0.00  0.00     0.054 A 
ATOM      6  C6  MOL d           4.284  13.813  42.879  0.00  0.00     0.103 A 
ATOM      7  O7  MOL d           4.439  11.805  41.520  0.00  0.00    -0.346 OA
ATOM      8  C8  MOL d           4.246  12.601  40.323  0.00  0.00     0.202 C 
ATOM      9  O9  MOL d           3.934  14.535  41.809  0.00  0.00    -0.346 OA
ATOM     10  C10 MOL d           3.429  13.866  40.619  0.00  0.00     0.202 C 
ENDROOT
BRANCH   3  11
ATOM     11  C11 MOL d           4.971  14.145  46.562  0.00  0.00     0.155 C 
ATOM     12  C12 MOL d           5.294  15.622  46.579  0.00  0.00     0.096 C 
ATOM     13  O13 MOL d           5.029  13.478  47.593  0.00  0.00    -0.293 OA
ENDBRANCH   3  11
TORSDOF 1
