REMARK  7 active torsions:
REMARK  status: ('A' for Active; 'I' for Inactive)
REMARK    1  A    between atoms: C1_1  and  C2_4 
REMARK    2  A    between atoms: C4_6  and  N4_20 
REMARK    3  A    between atoms: C5_7  and  N5_8 
REMARK       I    between atoms: N5_8  and  C10_9 
REMARK    4  A    between atoms: C6_12  and  O7_14 
REMARK    5  A    between atoms: O7_14  and  C8_15 
REMARK    6  A    between atoms: C8_15  and  C9_16 
REMARK    7  A    between atoms: C8_15  and  C81_17 
ROOT
ATOM      1  C2  G39 d          12.039  24.812  16.253  0.00  0.00     0.091 C 
ATOM      2  C3  G39 d          12.083  26.324  15.936  0.00  0.00     0.050 C 
ATOM      3  C4  G39 d          13.473  26.689  15.289  0.00  0.00     0.209 C 
ATOM      4  C5  G39 d          13.626  25.760  14.096  0.00  0.00     0.143 C 
ATOM      5  C6  G39 d          13.803  24.327  14.573  0.00  0.00     0.147 C 
ATOM      6  C7  G39 d          12.595  23.930  15.409  0.00  0.00     0.049 C 
ENDROOT
BRANCH   5   7
ATOM      7  O7  G39 d          13.727  23.445  13.474  0.00  0.00    -0.379 OA
BRANCH   7   8
ATOM      8  C8  G39 d          14.901  22.619  13.379  0.00  0.00     0.121 C 
BRANCH   8   9
ATOM      9  C9  G39 d          14.700  21.576  14.494  0.00  0.00     0.027 C 
ATOM     10  C91 G39 d          15.788  20.563  14.578  0.00  0.00     0.007 C 
ENDBRANCH   8   9
BRANCH   8  11
ATOM     11  C81 G39 d          14.926  21.923  12.022  0.00  0.00     0.027 C 
ATOM     12  C82 G39 d          14.905  22.918  10.903  0.00  0.00     0.007 C 
ENDBRANCH   8  11
ENDBRANCH   7   8
ENDBRANCH   5   7
BRANCH   4  13
ATOM     13  N5  G39 d          14.649  26.292  13.211  0.00  0.00    -0.352 N 
ATOM     14  C10 G39 d          14.388  26.401  11.931  0.00  0.00     0.214 C 
ATOM     15  O10 G39 d          13.331  25.997  11.379  0.00  0.00    -0.274 OA
ATOM     16  C11 G39 d          15.521  26.896  11.177  0.00  0.00     0.117 C 
ATOM     17  H6  G39 d          15.539  26.571  13.573  0.00  0.00     0.163 HD
ENDBRANCH   4  13
BRANCH   3  18
ATOM     18  N4  G39 d          13.545  28.041  14.757  0.00  0.00    -0.073 N 
ATOM     19  H24 G39 d          13.449  28.704  15.510  0.00  0.00     0.274 HD
ATOM     20  H25 G39 d          12.802  28.180  14.090  0.00  0.00     0.274 HD
ATOM     21  H26 G39 d          14.434  28.176  14.302  0.00  0.00     0.274 HD
ENDBRANCH   3  18
BRANCH   1  22
ATOM     22  C1  G39 d          11.433  24.291  17.495  0.00  0.00     0.177 C 
ATOM     23  O1A G39 d          11.510  23.035  17.809  0.00  0.00    -0.648 OA
ATOM     24  O1B G39 d          10.833  25.139  18.210  0.00  0.00    -0.648 OA
ENDBRANCH   1  22
TORSDOF 7
