REMARK  9 active torsions:
REMARK  status: ('A' for Active; 'I' for Inactive)
REMARK    1  A    between atoms: C9_13  and  C6_9 
REMARK    2  A    between atoms: N10_14  and  C9_13 
REMARK    3  A    between atoms: C14_18  and  N10_14 
REMARK    4  A    between atoms: C11_15  and  C_21 
REMARK    5  A    between atoms: N_23  and  CA_24 
REMARK    6  A    between atoms: CA_24  and  CB_25 
REMARK    7  A    between atoms: CA_24  and  CT_30 
REMARK    8  A    between atoms: CB_25  and  CG_26 
REMARK    9  A    between atoms: CG_26  and  CD_27 
ROOT
ATOM      1  C11 FOL d          29.871  47.207  45.154  0.00  0.00     0.018 A 
ATOM      2  C12 FOL d          30.544  46.072  45.603  0.00  0.00     0.018 A 
ATOM      3  C13 FOL d          31.710  46.201  46.358  0.00  0.00     0.030 A 
ATOM      4  C14 FOL d          32.221  47.464  46.662  0.00  0.00     0.028 A 
ATOM      5  C15 FOL d          31.546  48.598  46.214  0.00  0.00     0.030 A 
ATOM      6  C16 FOL d          30.372  48.471  45.462  0.00  0.00     0.018 A 
ENDROOT
BRANCH   4   7
ATOM      7  N10 FOL d          33.334  47.619  47.386  0.00  0.00    -0.384 N 
ATOM      8  H8  FOL d          33.765  48.554  47.402  0.00  0.00     0.160 HD
BRANCH   7   9
ATOM      9  C9  FOL d          33.985  46.562  48.156  0.00  0.00     0.180 C 
BRANCH   9  10
ATOM     10  C6  FOL d          34.780  47.279  49.227  0.00  0.00     0.070 A 
ATOM     11  N5  FOL d          34.240  47.458  50.489  0.00  0.00    -0.241 NA
ATOM     12  C4A FOL d          34.975  48.130  51.447  0.00  0.00     0.172 A 
ATOM     13  C4  FOL d          34.441  48.308  52.718  0.00  0.00     0.292 A 
ATOM     14  C8A FOL d          36.245  48.629  51.146  0.00  0.00     0.177 A 
ATOM     15  N3  FOL d          35.177  48.985  53.673  0.00  0.00    -0.154 N 
ATOM     16  O4  FOL d          33.325  47.852  52.983  0.00  0.00    -0.265 OA
ATOM     17  C2  FOL d          36.432  49.483  53.373  0.00  0.00     0.680 A 
ATOM     18  H4  FOL d          34.798  49.116  54.589  0.00  0.00     0.187 HD
ATOM     19  N1  FOL d          36.966  49.304  52.112  0.00  0.00    -0.172 N 
ATOM     20  NA2 FOL d          37.134  50.132  54.305  0.00  0.00    -0.234 N 
ATOM     21  H1  FOL d          37.902  49.674  51.892  0.00  0.00     0.186 HD
ATOM     22  H2  FOL d          36.739  50.267  55.246  0.00  0.00     0.174 HD
ATOM     23  H3  FOL d          38.071  50.498  54.083  0.00  0.00     0.174 HD
ATOM     24  N8  FOL d          36.783  48.457  49.884  0.00  0.00    -0.238 NA
ATOM     25  C7  FOL d          36.050  47.781  48.928  0.00  0.00     0.147 A 
ENDBRANCH   9  10
ENDBRANCH   7   9
ENDBRANCH   4   7
BRANCH   1  26
ATOM     26  C   FOL d          28.600  47.070  44.350  0.00  0.00     0.185 C 
ATOM     27  O   FOL d          28.474  46.034  43.392  0.00  0.00    -0.172 OA
ATOM     28  N   FOL d          27.625  47.958  44.575  0.00  0.00    -0.353 N 
ATOM     29  H13 FOL d          27.833  48.741  45.161  0.00  0.00     0.162 HD
BRANCH  28  30
ATOM     30  CA  FOL d          26.291  47.861  44.027  0.00  0.00     0.185 C 
BRANCH  30  31
ATOM     31  CB  FOL d          25.315  47.221  45.023  0.00  0.00     0.046 C 
BRANCH  31  32
ATOM     32  CG  FOL d          25.809  45.883  45.571  0.00  0.00     0.116 C 
BRANCH  32  33
ATOM     33  CD  FOL d          24.767  45.191  46.428  0.00  0.00     0.172 C 
ATOM     34  OE1 FOL d          23.876  44.475  45.893  0.00  0.00    -0.648 OA
ATOM     35  OE2 FOL d          24.790  45.302  47.683  0.00  0.00    -0.648 OA
ENDBRANCH  32  33
ENDBRANCH  31  32
ENDBRANCH  30  31
BRANCH  30  36
ATOM     36  CT  FOL d          25.809  49.242  43.661  0.00  0.00     0.196 C 
ATOM     37  O1  FOL d          26.509  49.991  42.925  0.00  0.00    -0.646 OA
ATOM     38  O2  FOL d          24.701  49.660  44.085  0.00  0.00    -0.646 OA
ENDBRANCH  30  36
ENDBRANCH  28  30
ENDBRANCH   1  26
TORSDOF 9
