REMARK  7 active torsions:
REMARK  status: ('A' for Active; 'I' for Inactive)
REMARK    1  A    between atoms: C4_4  and  C15_7 
REMARK    2  A    between atoms: C15_7  and  C19_10 
REMARK    3  A    between atoms: C19_10  and  N20_11 
REMARK    4  A    between atoms: N20_11  and  C23_12 
REMARK    5  A    between atoms: C32_19  and  C34_21 
REMARK    6  A    between atoms: C34_21  and  C36_22 
REMARK    7  A    between atoms: C43_27  and  N48_28 
ROOT
ATOM      1  C23 MOL d          17.861 -14.805  22.280  0.00  0.00     0.154 A 
ATOM      2  C24 MOL d          17.005 -13.838  21.654  0.00  0.00     0.133 A 
ATOM      3  C25 MOL d          17.473 -13.105  20.527  0.00  0.00     0.106 A 
ATOM      4  C26 MOL d          18.844 -13.381  20.034  0.00  0.00     0.059 A 
ATOM      5  C27 MOL d          19.716 -14.378  20.687  0.00  0.00     0.122 A 
ATOM      6  N28 MOL d          19.171 -15.047  21.800  0.00  0.00    -0.241 NA
ATOM      7  N31 MOL d          15.710 -13.397  21.890  0.00  0.00    -0.239 NA
ATOM      8  C32 MOL d          15.458 -12.432  20.919  0.00  0.00     0.217 A 
ATOM      9  O33 MOL d          16.544 -12.211  20.076  0.00  0.00    -0.310 OA
ENDROOT
BRANCH   1  10
ATOM     10  N20 MOL d          17.415 -15.546  23.403  0.00  0.00    -0.367 N 
ATOM     11  H14 MOL d          16.645 -15.161  23.968  0.00  0.00     0.161 HD
BRANCH  10  12
ATOM     12  C19 MOL d          18.001 -16.849  23.807  0.00  0.00     0.202 C 
BRANCH  12  13
ATOM     13  C15 MOL d          18.719 -16.804  25.162  0.00  0.00     0.287 C 
ATOM     14  F17 MOL d          19.267 -18.034  25.341  0.00  0.00    -0.202 F 
ATOM     15  F18 MOL d          17.805 -16.599  26.148  0.00  0.00    -0.202 F 
BRANCH  13  16
ATOM     16  C4  MOL d          19.768 -15.661  25.135  0.00  0.00     0.259 C 
ATOM     17  N3  MOL d          21.048 -16.102  24.508  0.00  0.00    -0.065 N 
ATOM     18  C2  MOL d          22.011 -14.986  24.284  0.00  0.00     0.233 C 
ATOM     19  H5  MOL d          21.482 -16.783  25.112  0.00  0.00     0.277 HD
ATOM     20  H6  MOL d          20.838 -16.527  23.618  0.00  0.00     0.277 HD
ATOM     21  C1  MOL d          22.323 -14.291  25.619  0.00  0.00     0.027 C 
ATOM     22  C6  MOL d          21.024 -13.828  26.305  0.00  0.00     0.004 C 
ATOM     23  C5  MOL d          20.060 -15.024  26.498  0.00  0.00     0.039 C 
ENDBRANCH  13  16
ENDBRANCH  12  13
ENDBRANCH  10  12
ENDBRANCH   1  10
BRANCH   8  24
ATOM     24  C34 MOL d          14.135 -11.676  20.715  0.00  0.00     0.109 C 
BRANCH  24  25
ATOM     25  C36 MOL d          13.024 -11.724  21.770  0.00  0.00    -0.024 A 
ATOM     26  C39 MOL d          12.916 -10.486  22.564  0.00  0.00     0.009 A 
ATOM     27  C40 MOL d          11.877 -10.387  23.596  0.00  0.00     0.001 A 
ATOM     28  C41 MOL d          10.966 -11.537  23.764  0.00  0.00     0.002 A 
ATOM     29  C42 MOL d          11.088 -12.773  22.961  0.00  0.00     0.032 A 
ATOM     30  C43 MOL d          12.147 -12.895  21.949  0.00  0.00     0.066 A 
BRANCH  30  31
ATOM     31  N48 MOL d          12.334 -14.154  21.284  0.00  0.00    -0.226 N 
ATOM     32  N49 MOL d          12.616 -15.338  21.906  0.00  0.00    -0.160 NA
ATOM     33  C50 MOL d          12.691 -16.325  20.957  0.00  0.00     0.257 A 
ATOM     34  N51 MOL d          12.448 -15.745  19.745  0.00  0.00    -0.233 NA
ATOM     35  C52 MOL d          12.227 -14.405  19.949  0.00  0.00     0.236 A 
ENDBRANCH  30  31
ENDBRANCH  24  25
ENDBRANCH   8  24
TORSDOF 7
