REMARK  8 active torsions:
REMARK  status: ('A' for Active; 'I' for Inactive)
REMARK    1  A    between atoms: O6_1  and  C6_2 
REMARK    2  A    between atoms: C6_2  and  C5_3 
REMARK    3  A    between atoms: C4_4  and  O4_5 
REMARK    4  A    between atoms: C3_6  and  O3_7 
REMARK    5  A    between atoms: C2_8  and  O2_9 
REMARK    6  A    between atoms: C7_12  and  C9_15 
REMARK    7  A    between atoms: C9_15  and  C10_16 
REMARK    8  A    between atoms: C10_16  and  C14_17 
ROOT
ATOM      1  C5  PGI d          63.692 -71.172   8.312  0.00  0.00     0.145 C 
ATOM      2  C4  PGI d          64.910 -70.624   9.065  0.00  0.00     0.175 C 
ATOM      3  C3  PGI d          66.205 -71.006   8.288  0.00  0.00     0.185 C 
ATOM      4  C2  PGI d          66.206 -70.366   6.905  0.00  0.00     0.219 C 
ATOM      5  N1  PGI d          63.689 -70.546   6.969  0.00  0.00    -0.332 N 
ATOM      6  C8  PGI d          62.640 -70.211   6.202  0.00  0.00     0.120 A 
ATOM      7  C7  PGI d          63.133 -69.651   5.036  0.00  0.00     0.052 A 
ATOM      8  N2  PGI d          64.481 -69.656   5.174  0.00  0.00    -0.235 NA
ATOM      9  C1  PGI d          64.820 -70.197   6.354  0.00  0.00     0.138 A 
ENDROOT
BRANCH   7  10
ATOM     10  C9  PGI d          62.315 -69.098   3.842  0.00  0.00     0.065 C 
BRANCH  10  11
ATOM     11  C10 PGI d          62.513 -67.577   3.706  0.00  0.00     0.044 C 
BRANCH  11  12
ATOM     12  C14 PGI d          62.024 -66.912   2.414  0.00  0.00    -0.058 A 
ATOM     13  C13 PGI d          62.015 -65.510   2.362  0.00  0.00     0.007 A 
ATOM     14  C12 PGI d          61.580 -64.832   1.219  0.00  0.00     0.001 A 
ATOM     15  C11 PGI d          61.152 -65.577   0.112  0.00  0.00     0.000 A 
ATOM     16  C16 PGI d          61.158 -66.978   0.147  0.00  0.00     0.001 A 
ATOM     17  C15 PGI d          61.591 -67.645   1.292  0.00  0.00     0.007 A 
ENDBRANCH  11  12
ENDBRANCH  10  11
ENDBRANCH   7  10
BRANCH   1  18
ATOM     18  C6  PGI d          62.381 -70.902   9.016  0.00  0.00     0.192 C 
BRANCH  18  19
ATOM     19  O6  PGI d          61.998 -69.554   8.820  0.00  0.00    -0.399 OA
ATOM     20  H1  PGI d          61.895 -69.387   7.890  0.00  0.00     0.209 HD
ENDBRANCH  18  19
ENDBRANCH   1  18
BRANCH   4  21
ATOM     21  O2  PGI d          67.004 -71.180   6.052  0.00  0.00    -0.385 OA
ATOM     22  H10 PGI d          67.021 -70.802   5.181  0.00  0.00     0.210 HD
ENDBRANCH   4  21
BRANCH   2  23
ATOM     23  O4  PGI d          64.915 -71.099  10.418  0.00  0.00    -0.391 OA
ATOM     24  H6  PGI d          65.674 -70.752  10.871  0.00  0.00     0.210 HD
ENDBRANCH   2  23
BRANCH   3  25
ATOM     25  O3  PGI d          67.438 -70.650   8.961  0.00  0.00    -0.390 OA
ATOM     26  H8  PGI d          68.177 -70.915   8.426  0.00  0.00     0.210 HD
ENDBRANCH   3  25
TORSDOF 8
