REMARK  5 active torsions:
REMARK  status: ('A' for Active; 'I' for Inactive)
REMARK    1  A    between atoms: C4_4  and  C7_7 
REMARK    2  A    between atoms: C9_9  and  O3_15 
REMARK    3  A    between atoms: C10_10  and  C11_12 
REMARK    4  A    between atoms: O3_15  and  C12_16 
REMARK    5  A    between atoms: C12_16  and  C13_17 
ROOT
ATOM      1  C7  MOL d          45.539  12.742   1.145  0.00  0.00     0.036 A 
ATOM      2  C8  MOL d          46.005  13.403   2.241  0.00  0.00     0.064 A 
ATOM      3  C9  MOL d          45.561  14.734   2.398  0.00  0.00     0.112 A 
ATOM      4  C10 MOL d          44.708  15.070   1.373  0.00  0.00     0.117 A 
ATOM      5  S1  MOL d          44.499  13.774   0.271  0.00  0.00    -0.078 SA
ATOM      6 BR1  MOL d          47.199  12.648   3.464  0.00  0.00    -0.047 Br
ENDROOT
BRANCH   1   7
ATOM      7  C4  MOL d          45.811  11.370   0.739  0.00  0.00    -0.018 A 
ATOM      8  C3  MOL d          44.748  10.540   0.340  0.00  0.00     0.013 A 
ATOM      9  C2  MOL d          45.009   9.218  -0.035  0.00  0.00     0.001 A 
ATOM     10  C1  MOL d          46.316   8.719   0.015  0.00  0.00     0.000 A 
ATOM     11  C6  MOL d          47.375   9.535   0.421  0.00  0.00     0.001 A 
ATOM     12  C5  MOL d          47.121  10.860   0.789  0.00  0.00     0.013 A 
ENDBRANCH   1   7
BRANCH   3  13
ATOM     13  O3  MOL d          45.932  15.532   3.426  0.00  0.00    -0.338 OA
BRANCH  13  14
ATOM     14  C12 MOL d          47.138  16.278   3.202  0.00  0.00     0.288 C 
BRANCH  14  15
ATOM     15  C13 MOL d          47.524  17.004   4.501  0.00  0.00     0.198 C 
ATOM     16  O4  MOL d          48.595  17.643   4.445  0.00  0.00    -0.646 OA
ATOM     17  O5  MOL d          46.769  16.905   5.495  0.00  0.00    -0.646 OA
ENDBRANCH  14  15
ENDBRANCH  13  14
ENDBRANCH   3  13
BRANCH   4  18
ATOM     18  C11 MOL d          43.996  16.452   1.167  0.00  0.00     0.219 C 
ATOM     19  O1  MOL d          43.557  16.651  -0.002  0.00  0.00    -0.643 OA
ATOM     20  O2  MOL d          43.934  17.241   2.158  0.00  0.00    -0.643 OA
ENDBRANCH   4  18
TORSDOF 5
