REMARK  8 active torsions:
REMARK  status: ('A' for Active; 'I' for Inactive)
REMARK    1  A    between atoms: O3A_8  and  PB_1 
REMARK    2  A    between atoms: PA_5  and  O3A_8 
REMARK    3  A    between atoms: PA_5  and  O5'_9 
REMARK    4  A    between atoms: O5'_9  and  C5'_10 
REMARK    5  A    between atoms: C5'_10  and  C4'_11 
REMARK    6  A    between atoms: C3'_13  and  O3'_14 
REMARK    7  A    between atoms: C2'_15  and  O2'_16 
REMARK    8  A    between atoms: C1'_17  and  N9_18 
ROOT
ATOM      1  C4' ADP d          79.311 -15.927   6.436  0.00  0.00     0.180 C 
ATOM      2  O4' ADP d          79.383 -15.987   7.862  0.00  0.00    -0.353 OA
ATOM      3  C3' ADP d          78.808 -17.280   5.958  0.00  0.00     0.182 C 
ATOM      4  C2' ADP d          78.328 -17.978   7.218  0.00  0.00     0.198 C 
ATOM      5  C1' ADP d          79.220 -17.343   8.272  0.00  0.00     0.262 C 
ENDROOT
BRANCH   5   6
ATOM      6  N9  ADP d          78.753 -17.327   9.676  0.00  0.00    -0.294 N 
ATOM      7  C8  ADP d          77.627 -16.802  10.205  0.00  0.00     0.214 A 
ATOM      8  N7  ADP d          77.625 -16.972  11.557  0.00  0.00    -0.236 NA
ATOM      9  C5  ADP d          78.775 -17.597  11.886  0.00  0.00     0.149 A 
ATOM     10  C6  ADP d          79.417 -18.076  13.123  0.00  0.00     0.155 A 
ATOM     11  C4  ADP d          79.506 -17.820  10.643  0.00  0.00     0.167 A 
ATOM     12  N6  ADP d          78.812 -17.921  14.322  0.00  0.00    -0.382 N 
ATOM     13  N1  ADP d          80.618 -18.674  13.010  0.00  0.00    -0.222 NA
ATOM     14  H   ADP d          79.272 -18.261  15.179  0.00  0.00     0.157 HD
ATOM     15  H   ADP d          77.891 -17.463  14.379  0.00  0.00     0.157 HD
ATOM     16  C2  ADP d          81.242 -18.832  11.818  0.00  0.00     0.237 A 
ATOM     17  N3  ADP d          80.712 -18.431  10.655  0.00  0.00    -0.222 NA
ENDBRANCH   5   6
BRANCH   4  18
ATOM     18  O2' ADP d          78.545 -19.390   7.163  0.00  0.00    -0.388 OA
ATOM     19  H   ADP d          78.072 -19.753   6.423  0.00  0.00     0.210 HD
ENDBRANCH   4  18
BRANCH   1  20
ATOM     20  C5' ADP d          78.397 -14.781   6.050  0.00  0.00     0.216 C 
BRANCH  20  21
ATOM     21  O5' ADP d          79.068 -13.593   6.431  0.00  0.00    -0.287 OA
BRANCH  21  22
ATOM     22  PA  ADP d          78.252 -12.345   7.008  0.00  0.00     0.418 P 
ATOM     23  O1A ADP d          79.044 -11.710   8.131  0.00  0.00    -0.624 OA
ATOM     24  O2A ADP d          76.804 -12.731   7.188  0.00  0.00    -0.624 OA
BRANCH  22  25
ATOM     25  O3A ADP d          78.401 -11.364   5.739  0.00  0.00    -0.173 OA
BRANCH  25  26
ATOM     26  PB  ADP d          77.425 -11.318   4.460  0.00  0.00     0.431 P 
ATOM     27  O1B ADP d          78.388 -10.980   3.335  0.00  0.00    -0.616 OA
ATOM     28  O2B ADP d          76.451 -10.201   4.804  0.00  0.00    -0.616 OA
ATOM     29  O3B ADP d          76.786 -12.672   4.361  0.00  0.00    -0.616 OA
ENDBRANCH  25  26
ENDBRANCH  22  25
ENDBRANCH  21  22
ENDBRANCH  20  21
ENDBRANCH   1  20
BRANCH   3  30
ATOM     30  O3' ADP d          79.903 -17.998   5.361  0.00  0.00    -0.390 OA
ATOM     31  H   ADP d          80.242 -17.502   4.625  0.00  0.00     0.210 HD
ENDBRANCH   3  30
TORSDOF 8
