REMARK  11 active torsions:
REMARK  status: ('A' for Active; 'I' for Inactive)
REMARK    1  A    between atoms: O3B_8  and  PG_1 
REMARK    2  A    between atoms: PB_5  and  O3B_8 
REMARK    3  A    between atoms: O3A_12  and  PB_5 
REMARK    4  A    between atoms: PA_9  and  O3A_12 
REMARK    5  A    between atoms: PA_9  and  O5'_13 
REMARK    6  A    between atoms: O5'_13  and  C5'_14 
REMARK    7  A    between atoms: C5'_14  and  C4'_15 
REMARK    8  A    between atoms: C3'_17  and  O3'_18 
REMARK    9  A    between atoms: C2'_19  and  O2'_20 
REMARK   10  A    between atoms: C1'_21  and  N9_22 
REMARK   11  A    between atoms: C6_26  and  N6_27 
ROOT
ATOM      1  C4' ATP d         -56.315  -9.020 -15.525  0.00  0.00     0.180 C 
ATOM      2  O4' ATP d         -54.889  -9.224 -15.519  0.00  0.00    -0.353 OA
ATOM      3  C3' ATP d         -56.655  -8.600 -16.942  0.00  0.00     0.182 C 
ATOM      4  C2' ATP d         -55.457  -7.752 -17.384  0.00  0.00     0.198 C 
ATOM      5  C1' ATP d         -54.344  -8.545 -16.713  0.00  0.00     0.262 C 
ENDROOT
BRANCH   1   6
ATOM      6  C5' ATP d         -57.034 -10.301 -15.061  0.00  0.00     0.216 C 
BRANCH   6   7
ATOM      7  O5' ATP d         -56.810 -11.326 -16.013  0.00  0.00    -0.287 OA
BRANCH   7   8
ATOM      8  PA  ATP d         -57.206 -12.885 -15.738  0.00  0.00     0.417 P 
ATOM      9  O1A ATP d         -57.290 -13.274 -14.270  0.00  0.00    -0.624 OA
ATOM     10  O2A ATP d         -56.131 -13.801 -16.390  0.00  0.00    -0.624 OA
BRANCH   8  11
ATOM     11  O3A ATP d         -58.519 -13.172 -16.493  0.00  0.00    -0.180 OA
BRANCH  11  12
ATOM     12  PB  ATP d         -58.986 -14.578 -17.030  0.00  0.00     0.428 P 
ATOM     13  O1B ATP d         -60.339 -14.818 -16.344  0.00  0.00    -0.624 OA
ATOM     14  O2B ATP d         -59.602 -14.591 -18.423  0.00  0.00    -0.624 OA
BRANCH  12  15
ATOM     15  O3B ATP d         -58.110 -15.858 -16.768  0.00  0.00    -0.173 OA
BRANCH  15  16
ATOM     16  PG  ATP d         -57.728 -16.632 -15.452  0.00  0.00     0.431 P 
ATOM     17  O1G ATP d         -58.201 -16.098 -14.080  0.00  0.00    -0.616 OA
ATOM     18  O2G ATP d         -56.189 -16.525 -15.488  0.00  0.00    -0.616 OA
ATOM     19  O3G ATP d         -58.139 -18.042 -15.717  0.00  0.00    -0.616 OA
ENDBRANCH  15  16
ENDBRANCH  12  15
ENDBRANCH  11  12
ENDBRANCH   8  11
ENDBRANCH   7   8
ENDBRANCH   6   7
ENDBRANCH   1   6
BRANCH   3  20
ATOM     20  O3' ATP d         -57.878  -7.929 -17.035  0.00  0.00    -0.390 OA
ATOM     21  H5  ATP d         -57.849  -7.144 -16.500  0.00  0.00     0.210 HD
ENDBRANCH   3  20
BRANCH   5  22
ATOM     22  N9  ATP d         -53.664  -9.508 -17.543  0.00  0.00    -0.294 N 
ATOM     23  C8  ATP d         -53.983 -10.825 -17.714  0.00  0.00     0.214 A 
ATOM     24  N7  ATP d         -53.153 -11.447 -18.518  0.00  0.00    -0.236 NA
ATOM     25  C5  ATP d         -52.243 -10.504 -18.892  0.00  0.00     0.149 A 
ATOM     26  C6  ATP d         -51.100 -10.550 -19.737  0.00  0.00     0.155 A 
ATOM     27  C4  ATP d         -52.544  -9.255 -18.293  0.00  0.00     0.167 A 
ATOM     28  N1  ATP d         -50.363  -9.385 -19.908  0.00  0.00    -0.222 NA
ATOM     29  C2  ATP d         -50.773  -8.234 -19.278  0.00  0.00     0.237 A 
ATOM     30  N3  ATP d         -51.852  -8.083 -18.441  0.00  0.00    -0.222 NA
BRANCH  26  31
ATOM     31  N6  ATP d         -50.708 -11.705 -20.364  0.00  0.00    -0.382 N 
ATOM     32  H10 ATP d         -49.875 -11.705 -20.970  0.00  0.00     0.157 HD
ATOM     33  H11 ATP d         -51.247 -12.573 -20.229  0.00  0.00     0.157 HD
ENDBRANCH  26  31
ENDBRANCH   5  22
BRANCH   4  34
ATOM     34  O2' ATP d         -55.546  -6.416 -16.846  0.00  0.00    -0.388 OA
ATOM     35  H7  ATP d         -56.344  -6.004 -17.156  0.00  0.00     0.210 HD
ENDBRANCH   4  34
TORSDOF 11
