REMARK  8 active torsions:
REMARK  status: ('A' for Active; 'I' for Inactive)
REMARK    1  A    between atoms: CA_5  and  C_1 
REMARK    2  A    between atoms: CA_5  and  N_2 
REMARK       I    between atoms: N_2  and  CAF_12 
REMARK    3  A    between atoms: CB_6  and  CA_5 
REMARK    4  A    between atoms: CG_7  and  CB_6 
REMARK    5  A    between atoms: CAD_10  and  CAN_16 
REMARK    6  A    between atoms: CAF_12  and  CAE_11 
REMARK    7  A    between atoms: CAK_13  and  OAL_14 
REMARK    8  A    between atoms: CAN_16  and  OAU_18 
ROOT
ATOM      1  CA  PMX d          17.715   6.669  11.920  0.00  0.00     0.190 C 
ENDROOT
BRANCH   1   2
ATOM      2  C   PMX d          17.203   5.891  10.741  0.00  0.00     0.197 C 
ATOM      3  O   PMX d          17.186   4.667  10.739  0.00  0.00    -0.646 OA
ATOM      4  OXT PMX d          16.677   6.558   9.660  0.00  0.00    -0.646 OA
ENDBRANCH   1   2
BRANCH   1   5
ATOM      5  N   PMX d          17.760   5.899  13.153  0.00  0.00    -0.343 N 
ATOM      6  CAF PMX d          16.579   5.595  13.922  0.00  0.00     0.242 C 
ATOM      7  OAA PMX d          15.514   6.121  13.647  0.00  0.00    -0.269 OA
ATOM      8  H1  PMX d          18.645   5.567  13.480  0.00  0.00     0.163 HD
BRANCH   6   9
ATOM      9  CAE PMX d          16.653   4.674  14.956  0.00  0.00     0.080 C 
ATOM     10  CAD PMX d          15.587   4.320  15.506  0.00  0.00     0.087 C 
BRANCH  10  11
ATOM     11  CAN PMX d          15.649   3.356  16.656  0.00  0.00     0.282 C 
ATOM     12  OAM PMX d          16.766   2.991  17.103  0.00  0.00    -0.260 OA
BRANCH  11  13
ATOM     13  OAU PMX d          14.567   2.862  17.105  0.00  0.00    -0.323 OA
ATOM     14  CAV PMX d          14.549   2.157  18.305  0.00  0.00     0.213 C 
ENDBRANCH  11  13
ENDBRANCH  10  11
ENDBRANCH   6   9
ENDBRANCH   1   5
BRANCH   1  15
ATOM     15  CB  PMX d          19.016   7.416  11.643  0.00  0.00     0.074 C 
BRANCH  15  16
ATOM     16  CG  PMX d          19.327   8.631  12.503  0.00  0.00    -0.054 A 
ATOM     17  CD1 PMX d          18.955   9.927  12.008  0.00  0.00     0.033 A 
ATOM     18  CAS PMX d          19.247  11.161  12.813  0.00  0.00     0.067 A 
ATOM     19 CL   PMX d          18.844  12.513  12.297  0.00  0.00    -0.081 Cl
ATOM     20  CAK PMX d          19.920  11.034  14.114  0.00  0.00     0.087 A 
ATOM     21  CAC PMX d          20.314   9.695  14.637  0.00  0.00     0.039 A 
ATOM     22  CD2 PMX d          20.026   8.497  13.849  0.00  0.00     0.010 A 
BRANCH  20  23
ATOM     23  OAL PMX d          20.198  12.178  14.846  0.00  0.00    -0.359 OA
ATOM     24  H8  PMX d          19.883  12.939  14.373  0.00  0.00     0.217 HD
ENDBRANCH  20  23
ENDBRANCH  15  16
ENDBRANCH   1  15
TORSDOF 8
