REMARK  7 active torsions:
REMARK  status: ('A' for Active; 'I' for Inactive)
REMARK    1  A    between atoms: CBL_2  and  CBH_5 
REMARK    2  A    between atoms: CBD_10  and  CAX_11 
REMARK    3  A    between atoms: CAX_11  and  CBA_13 
REMARK    4  A    between atoms: CAY_14  and  OAE_15 
REMARK    5  A    between atoms: NBK_18  and  CBF_19 
REMARK    6  A    between atoms: CBC_21  and  CAW_22 
REMARK    7  A    between atoms: CBJ_28  and  CBE_29 
ROOT
ATOM      1  CBA MOL d           3.191  20.541   1.195  0.00  0.00     0.058 A 
ATOM      2  CAY MOL d           2.900  19.192   0.966  0.00  0.00     0.133 A 
ATOM      3  CAZ MOL d           1.715  19.176   0.254  0.00  0.00     0.216 A 
ATOM      4  OAC MOL d           1.108  18.014  -0.192  0.00  0.00    -0.169 OA
ATOM      5  NBK MOL d           1.300  20.429   0.063  0.00  0.00    -0.309 N 
ATOM      6  CBJ MOL d           2.138  21.289   0.671  0.00  0.00     0.165 A 
ENDROOT
BRANCH   1   7
ATOM      7  CAX MOL d           4.402  21.135   1.825  0.00  0.00     0.193 C 
ATOM      8  OAB MOL d           4.715  22.280   1.519  0.00  0.00    -0.287 OA
BRANCH   7   9
ATOM      9  CBD MOL d           5.228  20.424   2.833  0.00  0.00     0.015 A 
ATOM     10  CAR MOL d           6.608  20.618   2.864  0.00  0.00     0.031 A 
ATOM     11  CBH MOL d           7.381  19.950   3.814  0.00  0.00     0.048 A 
ATOM     12  CAO MOL d           6.771  19.091   4.717  0.00  0.00     0.016 A 
ATOM     13  CAK MOL d           5.398  18.911   4.693  0.00  0.00     0.002 A 
ATOM     14  CAM MOL d           4.623  19.567   3.749  0.00  0.00     0.015 A 
BRANCH  11  15
ATOM     15  CBL MOL d           8.861  20.129   3.855  0.00  0.00     0.417 C 
ATOM     16  FAF MOL d           9.325  20.119   5.100  0.00  0.00    -0.166 F 
ATOM     17  FAG MOL d           9.451  19.155   3.191  0.00  0.00    -0.166 F 
ATOM     18  FAH MOL d           9.182  21.247   3.249  0.00  0.00    -0.166 F 
ENDBRANCH  11  15
ENDBRANCH   7   9
ENDBRANCH   1   7
BRANCH   2  19
ATOM     19  OAE MOL d           3.604  18.045   1.306  0.00  0.00    -0.356 OA
ATOM     20  H5  MOL d           4.462  18.069   0.898  0.00  0.00     0.218 HD
ENDBRANCH   2  19
BRANCH   6  21
ATOM     21  CBE MOL d           1.565  22.267   1.634  0.00  0.00    -0.026 A 
ATOM     22  CAS MOL d           0.908  21.690   2.708  0.00  0.00     0.049 A 
ATOM     23  CBG MOL d           0.338  22.479   3.699  0.00  0.00     0.107 A 
ATOM     24  OAU MOL d          -0.373  22.186   4.851  0.00  0.00    -0.323 OA
ATOM     25  CBI MOL d           0.428  23.815   3.589  0.00  0.00     0.126 A 
ATOM     26  CAT MOL d          -0.484  23.360   5.583  0.00  0.00     0.352 C 
ATOM     27  OAV MOL d          -0.204  24.373   4.677  0.00  0.00    -0.321 OA
ATOM     28  CBB MOL d           1.107  24.369   2.509  0.00  0.00     0.070 A 
ATOM     29 CLA  MOL d           1.189  26.058   2.433  0.00  0.00    -0.081 Cl
ATOM     30  CAP MOL d           1.687  23.633   1.508  0.00  0.00     0.036 A 
ENDBRANCH   6  21
BRANCH   5  31
ATOM     31  CBF MOL d           0.181  20.768  -0.761  0.00  0.00     0.038 A 
ATOM     32  CAQ MOL d          -1.039  20.132  -0.552  0.00  0.00     0.048 A 
ATOM     33  CBC MOL d          -2.133  20.436  -1.344  0.00  0.00     0.043 A 
ATOM     34  CAL MOL d          -2.005  21.382  -2.349  0.00  0.00     0.018 A 
ATOM     35  CAJ MOL d          -0.789  22.019  -2.564  0.00  0.00     0.003 A 
ATOM     36  CAN MOL d           0.305  21.714  -1.773  0.00  0.00     0.030 A 
BRANCH  33  37
ATOM     37  CAW MOL d          -3.433  19.749  -1.101  0.00  0.00     0.209 C 
ATOM     38  OAD MOL d          -3.529  18.892  -0.182  0.00  0.00    -0.644 OA
ATOM     39  OAA MOL d          -4.432  20.011  -1.814  0.00  0.00    -0.644 OA
ENDBRANCH  33  37
ENDBRANCH   5  31
TORSDOF 7
