REMARK  3 active torsions:
REMARK  status: ('A' for Active; 'I' for Inactive)
REMARK    1  A    between atoms: P_1  and  O1P_2 
REMARK    2  A    between atoms: O1P_2  and  C2_6 
REMARK    3  A    between atoms: C2_6  and  C1_7 
ROOT
ATOM      1  O1P PGA d          85.381 -13.110  65.994  0.00  0.00    -0.272 OA
ENDROOT
BRANCH   1   2
ATOM      2  P   PGA d          84.183 -12.300  66.685  0.00  0.00     0.422 P 
ATOM      3  O4P PGA d          82.958 -13.110  66.504  0.00  0.00    -0.617 OA
ATOM      4  O3P PGA d          84.163 -11.026  65.895  0.00  0.00    -0.617 OA
ATOM      5  O2P PGA d          84.639 -12.218  68.079  0.00  0.00    -0.617 OA
ENDBRANCH   1   2
BRANCH   1   6
ATOM      6  C2  PGA d          85.769 -14.346  66.554  0.00  0.00     0.295 C 
BRANCH   6   7
ATOM      7  C1  PGA d          86.307 -15.287  65.505  0.00  0.00     0.198 C 
ATOM      8  O2  PGA d          87.478 -15.719  65.633  0.00  0.00    -0.646 OA
ATOM      9  O1  PGA d          85.559 -15.591  64.550  0.00  0.00    -0.646 OA
ENDBRANCH   6   7
ENDBRANCH   1   6
TORSDOF 3
