REMARK  9 active torsions:
REMARK  status: ('A' for Active; 'I' for Inactive)
REMARK    1  A    between atoms: C9_13  and  C6_9 
REMARK    2  A    between atoms: N10_14  and  C9_13 
REMARK    3  A    between atoms: C15_19  and  N10_14 
REMARK    4  A    between atoms: C12_16  and  C_22 
REMARK       I    between atoms: C_22  and  N_24 
REMARK    5  A    between atoms: N_24  and  CA_25 
REMARK    6  A    between atoms: CA_25  and  CB_26 
REMARK    7  A    between atoms: CA_25  and  CT_31 
REMARK    8  A    between atoms: CB_26  and  CG_27 
REMARK    9  A    between atoms: CG_27  and  CD_28 
ROOT
ATOM      1  N10 C2F d          -8.865  70.994 118.926  0.00  0.00    -0.388 N 
ATOM      2  H10 C2F d          -8.810  70.581 119.868  0.00  0.00     0.159 HD
ENDROOT
BRANCH   1   3
ATOM      3  C9  C2F d          -8.766  72.440 118.814  0.00  0.00     0.141 C 
BRANCH   3   4
ATOM      4  C6  C2F d         -10.144  73.132 118.651  0.00  0.00     0.098 C 
ATOM      5  N5  C2F d          -9.945  74.487 118.027  0.00  0.00    -0.272 NA
ATOM      6  C4A C2F d          -9.480  75.480 118.979  0.00  0.00     0.126 A 
ATOM      7  C11 C2F d         -11.193  74.959 117.384  0.00  0.00     0.117 C 
ATOM      8  C4  C2F d          -8.729  76.705 118.567  0.00  0.00     0.284 A 
ATOM      9  C8A C2F d          -9.723  75.341 120.463  0.00  0.00     0.170 A 
ATOM     10  N3  C2F d          -8.330  77.584 119.525  0.00  0.00    -0.153 N 
ATOM     11  O4  C2F d          -8.473  76.912 117.372  0.00  0.00    -0.266 OA
ATOM     12  C2  C2F d          -8.585  77.399 120.858  0.00  0.00     0.703 A 
ATOM     13  H3  C2F d          -7.828  78.402 119.244  0.00  0.00     0.187 HD
ATOM     14  N1  C2F d          -9.263  76.306 121.315  0.00  0.00    -0.045 NA
ATOM     15  NA2 C2F d          -8.156  78.320 121.759  0.00  0.00    -0.233 N 
ATOM     16  H1  C2F d          -8.345  78.186 122.763  0.00  0.00     0.174 HD
ATOM     17  H2  C2F d          -7.641  79.153 121.439  0.00  0.00     0.174 HD
ATOM     18  N8  C2F d         -10.390  74.253 120.925  0.00  0.00    -0.371 N 
ATOM     19  C7  C2F d         -10.886  73.194 120.034  0.00  0.00     0.143 C 
ATOM     20  H7  C2F d         -10.555  74.166 121.938  0.00  0.00     0.161 HD
ENDBRANCH   3   4
ENDBRANCH   1   3
BRANCH   1  21
ATOM     21  C15 C2F d          -9.026  70.144 117.866  0.00  0.00     0.028 A 
ATOM     22  C14 C2F d          -9.360  68.796 118.153  0.00  0.00     0.030 A 
ATOM     23  C13 C2F d          -9.540  67.875 117.099  0.00  0.00     0.019 A 
ATOM     24  C12 C2F d          -9.387  68.293 115.743  0.00  0.00     0.032 A 
ATOM     25  C17 C2F d          -9.055  69.638 115.443  0.00  0.00     0.019 A 
ATOM     26  C16 C2F d          -8.873  70.561 116.493  0.00  0.00     0.030 A 
BRANCH  24  27
ATOM     27  C   C2F d          -9.581  67.298 114.640  0.00  0.00     0.252 C 
ATOM     28  O   C2F d          -8.769  67.250 113.731  0.00  0.00    -0.268 OA
ATOM     29  N   C2F d         -10.659  66.510 114.726  0.00  0.00    -0.342 N 
ATOM     30  H18 C2F d         -11.237  66.665 115.528  0.00  0.00     0.163 HD
BRANCH  29  31
ATOM     31  CA  C2F d         -11.116  65.460 113.825  0.00  0.00     0.186 C 
BRANCH  31  32
ATOM     32  CB  C2F d         -12.290  64.676 114.448  0.00  0.00     0.046 C 
BRANCH  32  33
ATOM     33  CG  C2F d         -12.137  63.184 114.126  0.00  0.00     0.116 C 
BRANCH  33  34
ATOM     34  CD  C2F d         -13.285  62.373 114.731  0.00  0.00     0.172 C 
ATOM     35  OE1 C2F d         -14.400  62.970 114.753  0.00  0.00    -0.648 OA
ATOM     36  OE2 C2F d         -13.135  61.203 115.171  0.00  0.00    -0.648 OA
ENDBRANCH  33  34
ENDBRANCH  32  33
ENDBRANCH  31  32
BRANCH  31  37
ATOM     37  CT  C2F d         -11.475  66.033 112.462  0.00  0.00     0.196 C 
ATOM     38  O1  C2F d         -12.083  67.126 112.398  0.00  0.00    -0.646 OA
ATOM     39  O2  C2F d         -11.148  65.405 111.435  0.00  0.00    -0.646 OA
ENDBRANCH  31  37
ENDBRANCH  29  31
ENDBRANCH  24  27
ENDBRANCH   1  21
TORSDOF 9
