REMARK  5 active torsions:
REMARK  status: ('A' for Active; 'I' for Inactive)
REMARK    1  A    between atoms: N1_1  and  C3_2 
REMARK    2  A    between atoms: C3_2  and  C4_4 
REMARK    3  A    between atoms: C7_7  and  C10_8 
REMARK    4  A    between atoms: N19_12  and  C23_13 
REMARK    5  A    between atoms: C23_13  and  C24_14 
ROOT
ATOM      1  C10 UIZ d          13.975  68.811  12.235  0.00  0.00     0.235 C 
ATOM      2  C22 UIZ d          14.512  70.248  12.289  0.00  0.00     0.121 C 
ATOM      3  C20 UIZ d          13.469  71.362  12.089  0.00  0.00     0.227 C 
ATOM      4  O21 UIZ d          12.411  71.328  11.420  0.00  0.00    -0.273 OA
ATOM      5  N19 UIZ d          13.806  72.391  12.946  0.00  0.00    -0.347 N 
ATOM      6  C17 UIZ d          14.694  71.939  14.007  0.00  0.00     0.133 C 
ATOM      7  C16 UIZ d          14.806  70.397  13.809  0.00  0.00     0.050 C 
ATOM      8  C15 UIZ d          13.654  69.585  14.471  0.00  0.00     0.195 C 
ATOM      9  C14 UIZ d          14.271  68.649  15.537  0.00  0.00     0.035 C 
ATOM     10  C13 UIZ d          13.314  67.473  15.516  0.00  0.00     0.030 C 
ATOM     11  C12 UIZ d          13.006  67.282  14.003  0.00  0.00     0.236 C 
ATOM     12  N11 UIZ d          13.080  68.652  13.424  0.00  0.00    -0.057 N 
ATOM     13  H26 UIZ d          12.147  68.938  13.171  0.00  0.00     0.281 HD
ENDROOT
BRANCH   1  14
ATOM     14  C7  UIZ d          13.342  68.348  10.954  0.00  0.00    -0.027 A 
ATOM     15  C6  UIZ d          14.084  67.597  10.022  0.00  0.00     0.010 A 
ATOM     16  C5  UIZ d          13.491  67.187   8.833  0.00  0.00     0.016 A 
ATOM     17  C4  UIZ d          12.150  67.516   8.558  0.00  0.00     0.007 A 
ATOM     18  C9  UIZ d          11.408  68.255   9.485  0.00  0.00     0.016 A 
ATOM     19  C8  UIZ d          12.007  68.662  10.685  0.00  0.00     0.010 A 
BRANCH  17  20
ATOM     20  C3  UIZ d          11.534  67.088   7.344  0.00  0.00     0.102 C 
ATOM     21  N2  UIZ d          12.245  66.372   6.432  0.00  0.00    -0.385 N 
ATOM     22  H3  UIZ d          13.229  66.134   6.619  0.00  0.00     0.157 HD
ATOM     23  H4  UIZ d          11.799  66.068   5.555  0.00  0.00     0.157 HD
BRANCH  20  24
ATOM     24  N1  UIZ d          10.266  67.352   7.021  0.00  0.00    -0.385 N 
ATOM     25  H1  UIZ d           9.671  67.890   7.667  0.00  0.00     0.157 HD
ATOM     26  H2  UIZ d           9.882  67.017   6.126  0.00  0.00     0.157 HD
ENDBRANCH  20  24
ENDBRANCH  17  20
ENDBRANCH   1  14
BRANCH   5  27
ATOM     27  C23 UIZ d          12.855  73.557  13.054  0.00  0.00     0.164 C 
BRANCH  27  28
ATOM     28  C24 UIZ d          12.964  74.617  11.969  0.00  0.00    -0.037 A 
ATOM     29  C32 UIZ d          11.809  75.046  11.238  0.00  0.00     0.012 A 
ATOM     30  C31 UIZ d          11.899  76.036  10.237  0.00  0.00     0.040 A 
ATOM     31  C30 UIZ d          13.167  76.572   9.976  0.00  0.00     0.105 A 
ATOM     32  O29 UIZ d          13.514  77.535   9.058  0.00  0.00    -0.323 OA
ATOM     33  C26 UIZ d          14.311  76.159  10.677  0.00  0.00     0.105 A 
ATOM     34  C28 UIZ d          14.959  77.710   9.204  0.00  0.00     0.352 A 
ATOM     35  O27 UIZ d          15.459  76.831  10.246  0.00  0.00    -0.323 OA
ATOM     36  C25 UIZ d          14.218  75.177  11.682  0.00  0.00     0.048 A 
ENDBRANCH  27  28
ENDBRANCH   5  27
TORSDOF 5
