REMARK  7 active torsions:
REMARK  status: ('A' for Active; 'I' for Inactive)
REMARK    1  A    between atoms: C3_2  and  N22_1 
REMARK    2  A    between atoms: C4_3  and  C3_2 
REMARK    3  A    between atoms: C3_2  and  C2_5 
REMARK       I    between atoms: N23_12  and  C4_3 
REMARK    4  A    between atoms: C2_5  and  C1_6 
REMARK    5  A    between atoms: C11_14  and  C10_13 
REMARK       I    between atoms: N24_26  and  C11_14 
REMARK    6  A    between atoms: C13_20  and  C12_19 
REMARK    7  A    between atoms: C12_19  and  N24_26 
ROOT
ATOM      1  C4  MOL d          17.358 -13.195  22.697  0.00  0.00     0.251 C 
ATOM      2  O26 MOL d          16.361 -12.552  23.019  0.00  0.00    -0.271 OA
ATOM      3  N23 MOL d          18.246 -12.742  21.805  0.00  0.00    -0.337 N 
ATOM      4  C10 MOL d          18.034 -11.437  21.177  0.00  0.00     0.179 C 
ATOM      5  C14 MOL d          19.165 -11.295  20.167  0.00  0.00     0.037 C 
ATOM      6  C15 MOL d          20.207 -12.336  20.557  0.00  0.00     0.022 C 
ATOM      7  C16 MOL d          19.459 -13.413  21.327  0.00  0.00     0.127 C 
ENDROOT
BRANCH   1   8
ATOM      8  C3  MOL d          17.610 -14.552  23.298  0.00  0.00     0.279 C 
BRANCH   8   9
ATOM      9  N22 MOL d          16.397 -15.347  23.169  0.00  0.00    -0.066 N 
ATOM     10  H1  MOL d          16.550 -16.260  23.567  0.00  0.00     0.275 HD
ATOM     11  H2  MOL d          16.159 -15.441  22.194  0.00  0.00     0.275 HD
ATOM     12  H3  MOL d          15.642 -14.890  23.656  0.00  0.00     0.275 HD
ENDBRANCH   8   9
BRANCH   8  13
ATOM     13  C2  MOL d          18.005 -14.456  24.778  0.00  0.00     0.081 C 
BRANCH  13  14
ATOM     14  C1  MOL d          19.432 -13.963  24.900  0.00  0.00    -0.056 A 
ATOM     15  C5  MOL d          20.482 -14.706  24.368  0.00  0.00     0.007 A 
ATOM     16  C6  MOL d          21.791 -14.242  24.487  0.00  0.00     0.001 A 
ATOM     17  C7  MOL d          22.054 -13.048  25.140  0.00  0.00     0.000 A 
ATOM     18  C8  MOL d          21.003 -12.310  25.677  0.00  0.00     0.001 A 
ATOM     19  C9  MOL d          19.699 -12.772  25.561  0.00  0.00     0.007 A 
ENDBRANCH  13  14
ENDBRANCH   8  13
ENDBRANCH   1   8
BRANCH   4  20
ATOM     20  C11 MOL d          16.711 -11.431  20.477  0.00  0.00     0.240 C 
ATOM     21  O27 MOL d          16.390 -12.385  19.773  0.00  0.00    -0.271 OA
ATOM     22  N24 MOL d          15.919 -10.375  20.670  0.00  0.00    -0.355 N 
ATOM     23  H27 MOL d          16.250  -9.639  21.260  0.00  0.00     0.162 HD
BRANCH  22  24
ATOM     24  C12 MOL d          14.597 -10.233  20.069  0.00  0.00     0.164 C 
BRANCH  24  25
ATOM     25  C13 MOL d          13.611 -11.009  20.921  0.00  0.00    -0.003 A 
ATOM     26  C17 MOL d          13.433 -12.373  20.749  0.00  0.00     0.100 A 
ATOM     27  N25 MOL d          12.562 -13.048  21.509  0.00  0.00    -0.370 N 
ATOM     28  C18 MOL d          12.395 -14.491  21.305  0.00  0.00     0.154 C 
ATOM     29  C19 MOL d          11.835 -12.431  22.453  0.00  0.00     0.091 A 
ATOM     30  C20 MOL d          11.972 -11.069  22.673  0.00  0.00     0.041 A 
ATOM     31  C21 MOL d          12.868 -10.369  21.882  0.00  0.00     0.044 A 
ATOM     32 CL28 MOL d          13.096  -8.621  22.122  0.00  0.00    -0.084 Cl
ENDBRANCH  24  25
ENDBRANCH  22  24
ENDBRANCH   4  20
TORSDOF 7
