REMARK  7 active torsions:
REMARK  status: ('A' for Active; 'I' for Inactive)
REMARK    1  A    between atoms: C15_2  and  C2_3 
REMARK       I    between atoms: C15_2  and  N17_17 
REMARK    2  A    between atoms: C3_4  and  O13_5 
REMARK    3  A    between atoms: C5_8  and  N10_9 
REMARK    4  A    between atoms: C6_12  and  N7_13 
REMARK    5  A    between atoms: N17_17  and  C18_18 
REMARK    6  A    between atoms: C18_18  and  C05_19 
REMARK    7  A    between atoms: N09_23  and  C10_24 
ROOT
ATOM      1  C2  C56 d          31.914  22.663   9.482  0.00  0.00     0.067 A 
ATOM      2  C3  C56 d          33.016  23.561   9.715  0.00  0.00     0.086 A 
ATOM      3  C4  C56 d          34.108  23.642   8.846  0.00  0.00     0.069 A 
ATOM      4  C5  C56 d          34.255  22.858   7.657  0.00  0.00     0.065 A 
ATOM      5  C6  C56 d          33.149  21.970   7.441  0.00  0.00     0.130 A 
ATOM      6  C1  C56 d          32.052  21.909   8.341  0.00  0.00     0.058 A 
ENDROOT
BRANCH   1   7
ATOM      7  C15 C56 d          30.687  22.527  10.367  0.00  0.00     0.254 C 
ATOM      8  O16 C56 d          29.876  21.636  10.122  0.00  0.00    -0.268 OA
ATOM      9  N17 C56 d          30.417  23.379  11.471  0.00  0.00    -0.355 N 
ATOM     10  H12 C56 d          31.077  24.095  11.698  0.00  0.00     0.162 HD
BRANCH   9  11
ATOM     11  C18 C56 d          29.187  23.248  12.306  0.00  0.00     0.156 C 
BRANCH  11  12
ATOM     12  C05 C56 d          29.251  22.171  13.472  0.00  0.00     0.206 C 
ATOM     13  C06 C56 d          27.961  22.232  14.361  0.00  0.00     0.036 C 
ATOM     14  C07 C56 d          27.453  20.803  14.525  0.00  0.00     0.030 C 
ATOM     15  C08 C56 d          28.163  20.007  13.428  0.00  0.00     0.235 C 
ATOM     16  N09 C56 d          29.283  20.811  12.833  0.00  0.00    -0.066 N 
ATOM     17  H22 C56 d          29.081  20.959  11.857  0.00  0.00     0.280 HD
BRANCH  16  18
ATOM     18  C10 C56 d          30.534  19.995  12.869  0.00  0.00     0.231 C 
ATOM     19  C13 C56 d          30.614  18.870  11.846  0.00  0.00     0.034 C 
ENDBRANCH  16  18
ENDBRANCH  11  12
ENDBRANCH   9  11
ENDBRANCH   1   7
BRANCH   2  20
ATOM     20  O13 C56 d          32.901  24.318  10.832  0.00  0.00    -0.355 OA
ATOM     21  C14 C56 d          33.914  25.219  11.232  0.00  0.00     0.210 C 
ENDBRANCH   2  20
BRANCH   5  22
ATOM     22  N7  C56 d          32.942  21.003   6.337  0.00  0.00    -0.113 N 
ATOM     23  O9  C56 d          33.856  20.332   5.912  0.00  0.00    -0.532 OA
ATOM     24  O8  C56 d          31.799  20.717   6.045  0.00  0.00    -0.532 OA
ENDBRANCH   5  22
BRANCH   4  25
ATOM     25  N10 C56 d          35.404  23.103   6.894  0.00  0.00    -0.387 N 
ATOM     26  C12 C56 d          36.366  24.169   7.273  0.00  0.00     0.149 C 
ATOM     27  C11 C56 d          35.829  22.570   5.575  0.00  0.00     0.149 C 
ENDBRANCH   4  25
TORSDOF 7
