REMARK  20 active torsions:
REMARK  status: ('A' for Active; 'I' for Inactive)
REMARK       I    between atoms: N_4  and  C_2 
REMARK    1  A    between atoms: CA_5  and  N_4 
REMARK    2  A    between atoms: CA_5  and  C_6 
REMARK    3  A    between atoms: CB_8  and  CA_5 
REMARK       I    between atoms: C_6  and  N_16 
REMARK    4  A    between atoms: CG_9  and  CB_8 
REMARK    5  A    between atoms: OH_15  and  CZ_14 
REMARK    6  A    between atoms: OH_15  and  P_43 
REMARK    7  A    between atoms: N_16  and  CA_17 
REMARK    8  A    between atoms: CA_17  and  C_18 
REMARK    9  A    between atoms: CA_17  and  CB_20 
REMARK       I    between atoms: C_18  and  N_25 
REMARK   10  A    between atoms: CB_20  and  CG_21 
REMARK   11  A    between atoms: CG_21  and  CD_22 
REMARK   12  A    between atoms: N_25  and  CA_26 
REMARK   13  A    between atoms: CA_26  and  C_27 
REMARK   14  A    between atoms: CA_26  and  CB_29 
REMARK       I    between atoms: C_27  and  N_34 
REMARK   15  A    between atoms: CB_29  and  CG_30 
REMARK   16  A    between atoms: CG_30  and  CD_31 
REMARK   17  A    between atoms: N_34  and  CA_35 
REMARK   18  A    between atoms: CA_35  and  C_36 
REMARK   19  A    between atoms: CA_35  and  CB_38 
REMARK   20  A    between atoms: CB_38  and  CG1_39 
ROOT
ATOM      1  CA  MOL d          24.709  -1.599   0.954  0.00  0.00     0.177 C 
ENDROOT
BRANCH   1   2
ATOM      2  C   MOL d          24.534  -0.073   0.890  0.00  0.00     0.241 C 
ATOM      3  O   MOL d          25.495   0.679   0.911  0.00  0.00    -0.271 OA
ATOM      4  N   MOL d          23.260   0.306   0.879  0.00  0.00    -0.346 N 
ATOM      5  H18 MOL d          22.564  -0.409   0.814  0.00  0.00     0.163 HD
BRANCH   4   6
ATOM      6  CA  MOL d          22.807   1.685   0.955  0.00  0.00     0.177 C 
BRANCH   6   7
ATOM      7  C   MOL d          21.924   1.833   2.212  0.00  0.00     0.241 C 
ATOM      8  O   MOL d          21.177   0.919   2.573  0.00  0.00    -0.271 OA
ATOM      9  N   MOL d          21.943   3.013   2.802  0.00  0.00    -0.344 N 
ATOM     10  H24 MOL d          22.687   3.656   2.622  0.00  0.00     0.163 HD
BRANCH   9  11
ATOM     11  CA  MOL d          20.859   3.371   3.727  0.00  0.00     0.189 C 
BRANCH  11  12
ATOM     12  C   MOL d          19.554   3.524   2.943  0.00  0.00     0.197 C 
ATOM     13  OXT MOL d          18.525   2.945   3.397  0.00  0.00    -0.646 OA
ATOM     14  O   MOL d          19.583   4.169   1.870  0.00  0.00    -0.646 OA
ENDBRANCH  11  12
BRANCH  11  15
ATOM     15  CB  MOL d          21.243   4.669   4.487  0.00  0.00     0.014 C 
ATOM     16  CG2 MOL d          20.030   5.289   5.122  0.00  0.00     0.012 C 
BRANCH  15  17
ATOM     17  CG1 MOL d          22.367   4.399   5.470  0.00  0.00     0.002 C 
ATOM     18  CD1 MOL d          22.874   5.561   6.266  0.00  0.00     0.005 C 
ENDBRANCH  15  17
ENDBRANCH  11  15
ENDBRANCH   9  11
ENDBRANCH   6   7
BRANCH   6  19
ATOM     19  CB  MOL d          21.969   2.044  -0.274  0.00  0.00     0.045 C 
BRANCH  19  20
ATOM     20  CG  MOL d          22.669   1.971  -1.596  0.00  0.00     0.116 C 
BRANCH  20  21
ATOM     21  CD  MOL d          23.594   3.102  -1.932  0.00  0.00     0.172 C 
ATOM     22  OE1 MOL d          23.873   3.961  -1.075  0.00  0.00    -0.648 OA
ATOM     23  OE2 MOL d          24.076   3.134  -3.093  0.00  0.00    -0.648 OA
ENDBRANCH  20  21
ENDBRANCH  19  20
ENDBRANCH   6  19
ENDBRANCH   4   6
ENDBRANCH   1   2
BRANCH   1  24
ATOM     24  CB  MOL d          24.607  -2.078   2.412  0.00  0.00     0.045 C 
BRANCH  24  25
ATOM     25  CG  MOL d          24.358  -3.551   2.558  0.00  0.00     0.116 C 
BRANCH  25  26
ATOM     26  CD  MOL d          22.954  -3.963   2.147  0.00  0.00     0.172 C 
ATOM     27  OE1 MOL d          21.978  -3.506   2.814  0.00  0.00    -0.648 OA
ATOM     28  OE2 MOL d          22.801  -4.581   1.088  0.00  0.00    -0.648 OA
ENDBRANCH  25  26
ENDBRANCH  24  25
ENDBRANCH   1  24
BRANCH   1  29
ATOM     29  N   MOL d          26.010  -1.943   0.422  0.00  0.00    -0.346 N 
ATOM     30  C   MOL d          26.291  -1.986  -0.863  0.00  0.00     0.241 C 
ATOM     31  O   MOL d          25.410  -1.890  -1.745  0.00  0.00    -0.271 OA
ATOM     32  H12 MOL d          26.740  -2.161   1.070  0.00  0.00     0.163 HD
BRANCH  30  33
ATOM     33  CA  MOL d          27.772  -2.042  -1.212  0.00  0.00     0.180 C 
BRANCH  33  34
ATOM     34  CB  MOL d          28.290  -0.637  -1.501  0.00  0.00     0.073 C 
BRANCH  34  35
ATOM     35  CG  MOL d          29.812  -0.551  -1.605  0.00  0.00    -0.056 A 
ATOM     36  CD2 MOL d          30.458  -0.576  -2.823  0.00  0.00     0.010 A 
ATOM     37  CE2 MOL d          31.847  -0.512  -2.919  0.00  0.00     0.038 A 
ATOM     38  CZ  MOL d          32.566  -0.385  -1.738  0.00  0.00     0.082 A 
ATOM     39  CE1 MOL d          31.951  -0.344  -0.524  0.00  0.00     0.038 A 
ATOM     40  CD1 MOL d          30.568  -0.422  -0.438  0.00  0.00     0.010 A 
BRANCH  38  41
ATOM     41  OH  MOL d          33.959  -0.189  -1.814  0.00  0.00    -0.240 OA
BRANCH  41  42
ATOM     42  P   MOL d          35.061  -1.370  -1.524  0.00  0.00     0.427 P 
ATOM     43  O3P MOL d          36.153  -0.594  -0.760  0.00  0.00    -0.617 OA
ATOM     44  O2P MOL d          34.378  -2.445  -0.720  0.00  0.00    -0.617 OA
ATOM     45  O1P MOL d          35.539  -1.827  -2.886  0.00  0.00    -0.617 OA
ENDBRANCH  41  42
ENDBRANCH  38  41
ENDBRANCH  34  35
ENDBRANCH  33  34
BRANCH  33  46
ATOM     46  N   MOL d          27.992  -2.909  -2.354  0.00  0.00    -0.348 N 
ATOM     47  C   MOL d          28.660  -4.055  -2.292  0.00  0.00     0.214 C 
ATOM     48  O   MOL d          29.141  -4.482  -1.200  0.00  0.00    -0.274 OA
ATOM     49  CH3 MOL d          28.861  -4.794  -3.582  0.00  0.00     0.117 C 
ATOM     50  H4  MOL d          27.619  -2.628  -3.238  0.00  0.00     0.163 HD
ENDBRANCH  33  46
ENDBRANCH  30  33
ENDBRANCH   1  29
TORSDOF 20
