REMARK  15 active torsions:
REMARK  status: ('A' for Active; 'I' for Inactive)
REMARK    1  A    between atoms: CA_3  and  N_1 
REMARK    2  A    between atoms: C_5  and  CA_3 
REMARK       I    between atoms: C_5  and  N_7 
REMARK    3  A    between atoms: N_7  and  CA_8 
REMARK    4  A    between atoms: CA_8  and  CB_11 
REMARK    5  A    between atoms: CA_8  and  C_9 
REMARK       I    between atoms: C_9  and  N_16 
REMARK    6  A    between atoms: CB_11  and  CG_12 
REMARK    7  A    between atoms: CG_12  and  CD_13 
REMARK    8  A    between atoms: CD_13  and  CE_14 
REMARK    9  A    between atoms: CE_14  and  NZ_15 
REMARK   10  A    between atoms: CA_17  and  C_18 
REMARK       I    between atoms: C_18  and  N_23 
REMARK   11  A    between atoms: N_23  and  CA_24 
REMARK   12  A    between atoms: CA_24  and  CB_27 
REMARK   13  A    between atoms: CA_24  and  C_25 
REMARK   14  A    between atoms: C_25  and  O1_34 
REMARK   15  A    between atoms: CB_27  and  CG_28 
ROOT
ATOM      1  C   MAA d   1       9.809  15.263  29.579  0.00  0.00     0.243 C 
ATOM      2  O   MAA d   1       9.529  14.562  28.602  0.00  0.00    -0.271 OA
ATOM      3  N   MAA d   1      10.951  15.114  30.248  0.00  0.00    -0.337 N 
ATOM      4  CA  MAA d   1      11.909  14.076  29.863  0.00  0.00     0.179 C 
ATOM      5  CB  MAA d   1      13.207  14.581  30.468  0.00  0.00     0.037 C 
ATOM      6  CG  MAA d   1      12.725  15.204  31.749  0.00  0.00     0.022 C 
ATOM      7  CD  MAA d   1      11.519  15.995  31.284  0.00  0.00     0.127 C 
ENDROOT
BRANCH   4   8
ATOM      8  C   MAA d   1      11.499  12.735  30.468  0.00  0.00     0.241 C 
ATOM      9  O   MAA d   1      10.726  12.699  31.423  0.00  0.00    -0.271 OA
ATOM     10  N   MAA d   1      12.013  11.643  29.911  0.00  0.00    -0.345 N 
ATOM     11  H30 MAA d   1      12.605  11.735  29.110  0.00  0.00     0.163 HD
BRANCH  10  12
ATOM     12  CA  MAA d   1      11.732  10.310  30.443  0.00  0.00     0.186 C 
BRANCH  12  13
ATOM     13  CB  MAA d   1      10.452   9.722  29.830  0.00  0.00     0.074 C 
BRANCH  13  14
ATOM     14  CG  MAA d   1      10.596   9.312  28.396  0.00  0.00    -0.056 A 
ATOM     15  CD1 MAA d   1      11.190   8.102  28.060  0.00  0.00     0.007 A 
ATOM     16  CE1 MAA d   1      11.341   7.731  26.726  0.00  0.00     0.001 A 
ATOM     17  CZ  MAA d   1      10.893   8.577  25.714  0.00  0.00     0.000 A 
ATOM     18  CE2 MAA d   1      10.300   9.782  26.040  0.00  0.00     0.001 A 
ATOM     19  CD2 MAA d   1      10.153  10.146  27.375  0.00  0.00     0.007 A 
ENDBRANCH  13  14
ENDBRANCH  12  13
BRANCH  12  20
ATOM     20  C   MAA d   1      12.926   9.427  30.116  0.00  0.00     0.163 C 
ATOM     21  O   MAA d   1      13.690   9.854  29.219  0.00  0.00    -0.648 OA
BRANCH  20  22
ATOM     22  O1  MAA d   1      13.146   8.274  30.742  0.00  0.00    -0.775 OA
ATOM     23  H39 MAA d   1      13.988   8.309  31.180  0.00  0.00     0.167 HD
ENDBRANCH  20  22
ENDBRANCH  12  20
ENDBRANCH  10  12
ENDBRANCH   4   8
BRANCH   1  24
ATOM     24  CA  MAA d   1       8.868  16.362  30.052  0.00  0.00     0.176 C 
BRANCH  24  25
ATOM     25  N   MAA d   1       8.301  17.008  28.884  0.00  0.00    -0.346 N 
ATOM     26  C   MAA d   1       8.628  18.250  28.561  0.00  0.00     0.248 C 
ATOM     27  O   MAA d   1       9.415  18.931  29.222  0.00  0.00    -0.271 OA
ATOM     28  H10 MAA d   1       7.652  16.507  28.312  0.00  0.00     0.163 HD
BRANCH  26  29
ATOM     29  CA  MAA d   1       7.967  18.804  27.314  0.00  0.00     0.272 C 
ATOM     30  CB  MAA d   1       8.831  18.503  26.091  0.00  0.00     0.050 C 
BRANCH  29  31
ATOM     31  N   MAA d   1       7.781  20.241  27.461  0.00  0.00    -0.067 N 
ATOM     32  CM  MAA d   1       6.386  20.189  27.901  0.00  0.00     0.267 C 
ATOM     33  H1  MAA d   1       8.391  20.641  28.157  0.00  0.00     0.277 HD
ATOM     34  H2  MAA d   1       7.894  20.736  26.590  0.00  0.00     0.277 HD
ENDBRANCH  29  31
ENDBRANCH  26  29
ENDBRANCH  24  25
BRANCH  24  35
ATOM     35  CB  MAA d   1       7.752  15.763  30.916  0.00  0.00     0.035 C 
BRANCH  35  36
ATOM     36  CG  MAA d   1       8.216  15.246  32.264  0.00  0.00     0.004 C 
BRANCH  36  37
ATOM     37  CD  MAA d   1       7.056  14.701  33.083  0.00  0.00     0.027 C 
BRANCH  37  38
ATOM     38  CE  MAA d   1       7.544  14.225  34.446  0.00  0.00     0.229 C 
BRANCH  38  39
ATOM     39  NZ  MAA d   1       8.600  13.190  34.297  0.00  0.00    -0.079 N 
ATOM     40  H20 MAA d   1       8.908  12.890  35.209  0.00  0.00     0.274 HD
ATOM     41  H21 MAA d   1       9.380  13.577  33.790  0.00  0.00     0.274 HD
ATOM     42  H22 MAA d   1       8.228  12.401  33.791  0.00  0.00     0.274 HD
ENDBRANCH  38  39
ENDBRANCH  37  38
ENDBRANCH  36  37
ENDBRANCH  35  36
ENDBRANCH  24  35
ENDBRANCH   1  24
TORSDOF 15
