REMARK  16 active torsions:
REMARK  status: ('A' for Active; 'I' for Inactive)
REMARK       I    between atoms: C2_2  and  N4_4 
REMARK    1  A    between atoms: N4_4  and  C5_5 
REMARK    2  A    between atoms: C5_5  and  C9_9 
REMARK    3  A    between atoms: C5_5  and  C6_6 
REMARK       I    between atoms: C9_9  and  N11_11 
REMARK    4  A    between atoms: N11_11  and  C12_12 
REMARK    5  A    between atoms: C12_12  and  C20_20 
REMARK    6  A    between atoms: C12_12  and  C13_13 
REMARK    7  A    between atoms: C13_13  and  C14_14 
REMARK    8  A    between atoms: C20_20  and  C22_22 
REMARK    9  A    between atoms: C20_20  and  O21_21 
REMARK   10  A    between atoms: C22_22  and  N23_23 
REMARK   11  A    between atoms: N23_23  and  N31_31 
REMARK   12  A    between atoms: N23_23  and  C24_24 
REMARK   13  A    between atoms: C24_24  and  C25_25 
REMARK       I    between atoms: N31_31  and  C32_32 
REMARK   14  A    between atoms: C32_32  and  C34_34 
REMARK   15  A    between atoms: C34_34  and  C36_36 
REMARK   16  A    between atoms: C34_34  and  N35_35 
REMARK       I    between atoms: N35_35  and  C39_39 
ROOT
ATOM      1  C20 C20 d          17.072  30.015  12.629  0.00  0.00     0.169 C 
ENDROOT
BRANCH   1   2
ATOM      2  C12 C20 d          16.853  31.533  12.416  0.00  0.00     0.119 C 
BRANCH   2   3
ATOM      3  N11 C20 d          17.173  32.313  13.610  0.00  0.00    -0.352 N 
ATOM      4  C9  C20 d          16.304  33.148  14.183  0.00  0.00     0.241 C 
ATOM      5  O10 C20 d          15.163  33.356  13.736  0.00  0.00    -0.271 OA
ATOM      6  H13 C20 d          18.082  32.217  14.015  0.00  0.00     0.163 HD
BRANCH   4   7
ATOM      7  C5  C20 d          16.794  33.868  15.455  0.00  0.00     0.179 C 
BRANCH   7   8
ATOM      8  N4  C20 d          17.098  35.276  15.224  0.00  0.00    -0.348 N 
ATOM      9  C2  C20 d          18.321  35.770  15.416  0.00  0.00     0.214 C 
ATOM     10  C1  C20 d          18.542  37.227  14.994  0.00  0.00     0.117 C 
ATOM     11  O3  C20 d          19.244  35.111  15.921  0.00  0.00    -0.274 OA
ATOM     12  H4  C20 d          16.370  35.887  14.913  0.00  0.00     0.163 HD
ENDBRANCH   7   8
BRANCH   7  13
ATOM     13  C6  C20 d          15.773  33.717  16.622  0.00  0.00     0.009 C 
ATOM     14  C8  C20 d          16.358  34.341  17.912  0.00  0.00     0.012 C 
ATOM     15  C7  C20 d          15.402  32.240  16.869  0.00  0.00     0.012 C 
ENDBRANCH   7  13
ENDBRANCH   4   7
ENDBRANCH   2   3
BRANCH   2  16
ATOM     16  C13 C20 d          17.713  31.996  11.253  0.00  0.00     0.066 C 
BRANCH  16  17
ATOM     17  C14 C20 d          17.670  33.494  11.054  0.00  0.00    -0.056 A 
ATOM     18  C19 C20 d          16.812  34.085   9.999  0.00  0.00     0.007 A 
ATOM     19  C18 C20 d          16.777  35.472   9.850  0.00  0.00     0.001 A 
ATOM     20  C17 C20 d          17.550  36.299  10.679  0.00  0.00     0.000 A 
ATOM     21  C16 C20 d          18.381  35.774  11.693  0.00  0.00     0.001 A 
ATOM     22  C15 C20 d          18.479  34.398  11.909  0.00  0.00     0.007 A 
ENDBRANCH  16  17
ENDBRANCH   2  16
ENDBRANCH   1   2
BRANCH   1  23
ATOM     23  C22 C20 d          16.106  29.424  13.614  0.00  0.00     0.296 C 
BRANCH  23  24
ATOM     24  N23 C20 d          14.808  29.230  13.057  0.00  0.00     0.014 N 
ATOM     25  H26 C20 d          14.327  30.107  12.932  0.00  0.00     0.309 HD
BRANCH  24  26
ATOM     26  N31 C20 d          14.940  28.565  11.776  0.00  0.00    -0.185 N 
ATOM     27  C32 C20 d          14.288  28.996  10.692  0.00  0.00     0.264 C 
ATOM     28  O33 C20 d          13.743  30.107  10.623  0.00  0.00    -0.269 OA
ATOM     29  H40 C20 d          15.534  27.764  11.701  0.00  0.00     0.197 HD
BRANCH  27  30
ATOM     30  C34 C20 d          14.241  28.036   9.501  0.00  0.00     0.181 C 
BRANCH  30  31
ATOM     31  C36 C20 d          14.468  28.809   8.167  0.00  0.00     0.009 C 
ATOM     32  C38 C20 d          14.630  27.813   7.028  0.00  0.00     0.012 C 
ATOM     33  C37 C20 d          15.720  29.682   8.241  0.00  0.00     0.012 C 
ENDBRANCH  30  31
BRANCH  30  34
ATOM     34  N35 C20 d          12.979  27.304   9.480  0.00  0.00    -0.348 N 
ATOM     35  C39 C20 d          12.929  25.981   9.621  0.00  0.00     0.214 C 
ATOM     36  C41 C20 d          11.579  25.288   9.590  0.00  0.00     0.117 C 
ATOM     37  O40 C20 d          13.943  25.276   9.760  0.00  0.00    -0.274 OA
ATOM     38  H42 C20 d          12.126  27.811   9.356  0.00  0.00     0.163 HD
ENDBRANCH  30  34
ENDBRANCH  27  30
ENDBRANCH  24  26
BRANCH  24  39
ATOM     39  C24 C20 d          14.137  28.421  14.049  0.00  0.00     0.267 C 
BRANCH  39  40
ATOM     40  C25 C20 d          12.683  28.379  13.656  0.00  0.00     0.014 C 
ATOM     41  C30 C20 d          12.299  26.945  13.351  0.00  0.00     0.006 C 
ATOM     42  C29 C20 d          10.867  26.839  12.954  0.00  0.00     0.000 C 
ATOM     43  C28 C20 d           9.976  27.385  14.050  0.00  0.00     0.000 C 
ATOM     44  C27 C20 d          10.339  28.793  14.404  0.00  0.00     0.000 C 
ATOM     45  C26 C20 d          11.787  28.873  14.775  0.00  0.00     0.006 C 
ENDBRANCH  39  40
ENDBRANCH  24  39
ENDBRANCH  23  24
ENDBRANCH   1  23
BRANCH   1  46
ATOM     46  O21 C20 d          18.339  29.746  13.215  0.00  0.00    -0.392 OA
ATOM     47  H23 C20 d          19.025  30.088  12.654  0.00  0.00     0.210 HD
ENDBRANCH   1  46
TORSDOF 16
