REMARK  7 active torsions:
REMARK  status: ('A' for Active; 'I' for Inactive)
REMARK    1  A    between atoms: O3_4  and  S1_1 
REMARK    2  A    between atoms: S1_1  and  N1_5 
REMARK    3  A    between atoms: C1_6  and  O3_4 
REMARK    4  A    between atoms: C7_12  and  C4_9 
REMARK    5  A    between atoms: N3_21  and  C7_12 
REMARK    6  A    between atoms: N3_21  and  C12_18 
REMARK    7  A    between atoms: N6_25  and  N3_21 
ROOT
ATOM      1  C8  MOL d          26.282  34.492  21.829  0.00  0.00     0.099 C 
ATOM      2  N2  MOL d          27.300  34.689  22.323  0.00  0.00    -0.191 NA
ATOM      3  C9  MOL d          25.009  34.288  21.198  0.00  0.00     0.044 A 
ATOM      4  C10 MOL d          24.844  33.318  20.177  0.00  0.00     0.025 A 
ATOM      5  C11 MOL d          23.594  33.128  19.567  0.00  0.00     0.033 A 
ATOM      6  C12 MOL d          22.441  33.906  19.958  0.00  0.00     0.051 A 
ATOM      7  C13 MOL d          22.636  34.882  20.992  0.00  0.00     0.033 A 
ATOM      8  C14 MOL d          23.889  35.067  21.597  0.00  0.00     0.025 A 
ENDROOT
BRANCH   6   9
ATOM      9  N3  MOL d          21.141  33.710  19.337  0.00  0.00    -0.280 N 
BRANCH   9  10
ATOM     10  C7  MOL d          20.838  32.715  18.263  0.00  0.00     0.188 C 
BRANCH  10  11
ATOM     11  C4  MOL d          20.939  31.273  18.740  0.00  0.00    -0.037 A 
ATOM     12  C3  MOL d          21.686  30.325  17.984  0.00  0.00     0.012 A 
ATOM     13  C2  MOL d          21.796  29.003  18.432  0.00  0.00     0.040 A 
ATOM     14  C1  MOL d          21.170  28.610  19.634  0.00  0.00     0.108 A 
ATOM     15  C6  MOL d          20.426  29.542  20.387  0.00  0.00     0.046 A 
ATOM     16  C5  MOL d          20.311  30.875  19.938  0.00  0.00     0.031 A 
ATOM     17 BR   MOL d          19.602  29.008  22.002  0.00  0.00    -0.048 Br
BRANCH  14  18
ATOM     18  O3  MOL d          21.285  27.307  20.096  0.00  0.00    -0.215 OA
BRANCH  18  19
ATOM     19  S1  MOL d          20.354  26.127  19.500  0.00  0.00     0.360 S 
ATOM     20  O1  MOL d          20.504  25.073  20.442  0.00  0.00    -0.176 OA
ATOM     21  O2  MOL d          19.088  26.764  19.328  0.00  0.00    -0.176 OA
BRANCH  19  22
ATOM     22  N1  MOL d          20.965  25.680  18.136  0.00  0.00    -0.305 N 
ATOM     23  H1  MOL d          20.528  24.953  17.607  0.00  0.00     0.171 HD
ATOM     24  H2  MOL d          21.794  26.121  17.791  0.00  0.00     0.171 HD
ENDBRANCH  19  22
ENDBRANCH  18  19
ENDBRANCH  14  18
ENDBRANCH  10  11
ENDBRANCH   9  10
BRANCH   9  25
ATOM     25  N6  MOL d          20.188  34.748  19.430  0.00  0.00    -0.237 N 
ATOM     26  C17 MOL d          19.126  34.850  20.289  0.00  0.00     0.258 A 
ATOM     27  N5  MOL d          18.482  35.950  20.061  0.00  0.00    -0.142 NA
ATOM     28  N4  MOL d          19.124  36.609  19.017  0.00  0.00    -0.142 NA
ATOM     29  C15 MOL d          20.132  35.877  18.658  0.00  0.00     0.258 A 
ENDBRANCH   9  25
ENDBRANCH   6   9
TORSDOF 7
