REMARK  8 active torsions:
REMARK  status: ('A' for Active; 'I' for Inactive)
REMARK    1  A    between atoms: O3A_8  and  PB_1 
REMARK    2  A    between atoms: PA_5  and  O3A_8 
REMARK    3  A    between atoms: PA_5  and  O5'_9 
REMARK    4  A    between atoms: O5'_9  and  C5'_10 
REMARK    5  A    between atoms: C5'_10  and  C4'_11 
REMARK    6  A    between atoms: C3'_13  and  O3'_14 
REMARK    7  A    between atoms: C2'_15  and  O2'_16 
REMARK    8  A    between atoms: C1'_17  and  N9_18 
ROOT
ATOM      1  C4' ADP d          -5.453 -31.916 -10.140  0.00  0.00     0.180 C 
ATOM      2  O4' ADP d          -4.983 -32.340  -8.857  0.00  0.00    -0.353 OA
ATOM      3  C3' ADP d          -6.733 -32.654 -10.413  0.00  0.00     0.182 C 
ATOM      4  C2' ADP d          -7.162 -33.205  -9.066  0.00  0.00     0.198 C 
ATOM      5  C1' ADP d          -5.853 -33.328  -8.296  0.00  0.00     0.262 C 
ENDROOT
BRANCH   5   6
ATOM      6  N9  ADP d          -5.988 -33.120  -6.818  0.00  0.00    -0.294 N 
ATOM      7  C8  ADP d          -6.752 -32.198  -6.190  0.00  0.00     0.214 A 
ATOM      8  N7  ADP d          -6.627 -32.297  -4.838  0.00  0.00    -0.236 NA
ATOM      9  C5  ADP d          -5.773 -33.287  -4.566  0.00  0.00     0.149 A 
ATOM     10  C6  ADP d          -5.212 -33.902  -3.343  0.00  0.00     0.155 A 
ATOM     11  C4  ADP d          -5.354 -33.828  -5.874  0.00  0.00     0.167 A 
ATOM     12  N6  ADP d          -5.551 -33.464  -2.113  0.00  0.00    -0.382 N 
ATOM     13  N1  ADP d          -4.339 -34.934  -3.531  0.00  0.00    -0.222 NA
ATOM     14  H   ADP d          -5.146 -33.910  -1.278  0.00  0.00     0.157 HD
ATOM     15  H   ADP d          -6.215 -32.684  -2.009  0.00  0.00     0.157 HD
ATOM     16  C2  ADP d          -4.004 -35.370  -4.772  0.00  0.00     0.237 A 
ATOM     17  N3  ADP d          -4.483 -34.850  -5.913  0.00  0.00    -0.222 NA
ENDBRANCH   5   6
BRANCH   4  18
ATOM     18  O2' ADP d          -7.850 -34.444  -9.127  0.00  0.00    -0.388 OA
ATOM     19  H   ADP d          -8.638 -34.342  -9.647  0.00  0.00     0.210 HD
ENDBRANCH   4  18
BRANCH   1  20
ATOM     20  C5' ADP d          -5.697 -30.432 -10.115  0.00  0.00     0.216 C 
BRANCH  20  21
ATOM     21  O5' ADP d          -4.523 -29.789  -9.660  0.00  0.00    -0.287 OA
BRANCH  21  22
ATOM     22  PA  ADP d          -4.458 -28.185  -9.499  0.00  0.00     0.418 P 
ATOM     23  O1A ADP d          -3.268 -27.873  -8.625  0.00  0.00    -0.624 OA
ATOM     24  O2A ADP d          -5.848 -27.722  -9.143  0.00  0.00    -0.624 OA
BRANCH  22  25
ATOM     25  O3A ADP d          -4.139 -27.800 -11.037  0.00  0.00    -0.173 OA
BRANCH  25  26
ATOM     26  PB  ADP d          -5.074 -26.862 -11.964  0.00  0.00     0.431 P 
ATOM     27  O1B ADP d          -5.035 -25.502 -11.319  0.00  0.00    -0.616 OA
ATOM     28  O2B ADP d          -4.390 -26.937 -13.308  0.00  0.00    -0.616 OA
ATOM     29  O3B ADP d          -6.431 -27.517 -11.917  0.00  0.00    -0.616 OA
ENDBRANCH  25  26
ENDBRANCH  22  25
ENDBRANCH  21  22
ENDBRANCH  20  21
ENDBRANCH   1  20
BRANCH   3  30
ATOM     30  O3' ADP d          -6.485 -33.650 -11.395  0.00  0.00    -0.390 OA
ATOM     31  H   ADP d          -7.289 -34.123 -11.575  0.00  0.00     0.210 HD
ENDBRANCH   3  30
TORSDOF 8
