REMARK  29 active torsions:
REMARK  status: ('A' for Active; 'I' for Inactive)
REMARK    1  A    between atoms: N_1  and  CA_2 
REMARK    2  A    between atoms: CA_2  and  C_3 
REMARK    3  A    between atoms: CA_2  and  CB_5 
REMARK       I    between atoms: C_3  and  N_10 
REMARK    4  A    between atoms: CB_5  and  CG_6 
REMARK    5  A    between atoms: CG_6  and  CD_7 
REMARK       I    between atoms: CD_7  and  NE2_9 
REMARK    6  A    between atoms: N_10  and  CA_11 
REMARK    7  A    between atoms: CA_11  and  C_12 
REMARK    8  A    between atoms: CA_11  and  CB_14 
REMARK       I    between atoms: C_12  and  N_18 
REMARK    9  A    between atoms: CB_14  and  CG_15 
REMARK   10  A    between atoms: N_18  and  CA_19 
REMARK   11  A    between atoms: CA_19  and  C_20 
REMARK   12  A    between atoms: CA_19  and  CB_22 
REMARK       I    between atoms: C_20  and  N_24 
REMARK   13  A    between atoms: CB_22  and  OG_23 
REMARK   14  A    between atoms: CA_25  and  C_26 
REMARK       I    between atoms: C_26  and  N_31 
REMARK   15  A    between atoms: N_31  and  CA_32 
REMARK   16  A    between atoms: CA_32  and  C_33 
REMARK       I    between atoms: C_33  and  N_36 
REMARK   17  A    between atoms: CA_37  and  C_38 
REMARK       I    between atoms: C_38  and  N_43 
REMARK   18  A    between atoms: N_43  and  CA_44 
REMARK   19  A    between atoms: CA_44  and  C_45 
REMARK   20  A    between atoms: CA_44  and  CB_47 
REMARK       I    between atoms: C_45  and  N_54 
REMARK   21  A    between atoms: CB_47  and  CG_48 
REMARK   22  A    between atoms: N_54  and  CA_55 
REMARK   23  A    between atoms: CA_55  and  C_56 
REMARK   24  A    between atoms: CA_55  and  CB_58 
REMARK       I    between atoms: C_56  and  N_62 
REMARK   25  A    between atoms: CB_58  and  CG_59 
REMARK   26  A    between atoms: N_62  and  CA_63 
REMARK   27  A    between atoms: CA_63  and  C_64 
REMARK   28  A    between atoms: CA_63  and  CB_66 
REMARK   29  A    between atoms: CB_66  and  CG_67 
ROOT
ATOM      1  CA  GLN d           8.984 -16.488  -4.369  0.00  0.00     0.172 C 
ATOM      2  CB  GLN d           9.501 -17.817  -3.805  0.00  0.00     0.042 C 
ENDROOT
BRANCH   1   3
ATOM      3  N   GLN d           9.490 -16.281  -5.712  0.00  0.00    -0.346 N 
ATOM      4  C   GLN d           9.139 -15.208  -6.408  0.00  0.00     0.241 C 
ATOM      5  O   GLN d           8.366 -14.350  -5.965  0.00  0.00    -0.271 OA
ATOM      6  H34 GLN d          10.109 -16.953  -6.117  0.00  0.00     0.163 HD
BRANCH   4   7
ATOM      7  CA  GLN d           9.731 -15.085  -7.812  0.00  0.00     0.179 C 
ATOM      8  N   GLN d           8.998 -14.080  -8.580  0.00  0.00    -0.337 N 
ATOM      9  C   GLN d           7.727 -14.306  -8.931  0.00  0.00     0.245 C 
ATOM     10  CD  GLN d           9.838 -12.899  -8.851  0.00  0.00     0.127 C 
ATOM     11  O   GLN d           7.143 -15.350  -8.635  0.00  0.00    -0.271 OA
ATOM     12  CG  GLN d          10.937 -13.051  -7.830  0.00  0.00     0.022 C 
ATOM     13  CB  GLN d          11.155 -14.541  -7.806  0.00  0.00     0.037 C 
BRANCH   9  14
ATOM     14  CA  GLN d           7.024 -13.217  -9.725  0.00  0.00     0.200 C 
BRANCH  14  15
ATOM     15  N   GLN d           5.890 -13.812 -10.411  0.00  0.00    -0.344 N 
ATOM     16  C   GLN d           6.070 -14.633 -11.437  0.00  0.00     0.241 C 
ATOM     17  O   GLN d           7.188 -14.930 -11.870  0.00  0.00    -0.271 OA
ATOM     18  H22 GLN d           4.962 -13.600 -10.106  0.00  0.00     0.163 HD
BRANCH  16  19
ATOM     19  CA  GLN d           4.807 -15.198 -12.073  0.00  0.00     0.177 C 
BRANCH  19  20
ATOM     20  N   GLN d           5.050 -15.635 -13.439  0.00  0.00    -0.346 N 
ATOM     21  C   GLN d           5.077 -14.782 -14.454  0.00  0.00     0.248 C 
ATOM     22  O   GLN d           4.924 -13.568 -14.319  0.00  0.00    -0.271 OA
ATOM     23  H11 GLN d           5.201 -16.607 -13.618  0.00  0.00     0.163 HD
BRANCH  21  24
ATOM     24  CA  GLN d           5.330 -15.391 -15.823  0.00  0.00     0.275 C 
BRANCH  24  25
ATOM     25  N   GLN d           4.779 -14.501 -16.880  0.00  0.00    -0.066 N 
ATOM     26  H1  GLN d           4.949 -14.909 -17.786  0.00  0.00     0.275 HD
ATOM     27  H2  GLN d           5.228 -13.600 -16.828  0.00  0.00     0.275 HD
ATOM     28  H3  GLN d           3.787 -14.391 -16.743  0.00  0.00     0.275 HD
ENDBRANCH  24  25
BRANCH  24  29
ATOM     29  CB  GLN d           6.831 -15.581 -16.021  0.00  0.00     0.052 C 
BRANCH  29  30
ATOM     30  CG  GLN d           7.334 -16.933 -15.564  0.00  0.00     0.105 C 
BRANCH  30  31
ATOM     31  CD  GLN d           6.812 -18.059 -16.425  0.00  0.00     0.215 C 
ATOM     32  OE1 GLN d           7.043 -19.229 -16.142  0.00  0.00    -0.274 OA
ATOM     33  NE2 GLN d           6.102 -17.709 -17.487  0.00  0.00    -0.370 N 
ATOM     34  H9  GLN d           5.731 -18.412 -18.094  0.00  0.00     0.159 HD
ATOM     35  H10 GLN d           5.937 -16.742 -17.682  0.00  0.00     0.159 HD
ENDBRANCH  30  31
ENDBRANCH  29  30
ENDBRANCH  24  29
ENDBRANCH  21  24
ENDBRANCH  19  20
BRANCH  19  36
ATOM     36  CB  GLN d           4.283 -16.373 -11.243  0.00  0.00     0.038 C 
BRANCH  36  37
ATOM     37  CG  GLN d           3.015 -17.070 -11.758  0.00  0.00    -0.020 C 
ATOM     38  CD1 GLN d           2.612 -18.144 -10.766  0.00  0.00     0.009 C 
ATOM     39  CD2 GLN d           1.886 -16.068 -11.934  0.00  0.00     0.009 C 
ENDBRANCH  36  37
ENDBRANCH  19  36
ENDBRANCH  16  19
ENDBRANCH  14  15
BRANCH  14  40
ATOM     40  CB  GLN d           6.568 -12.129  -8.757  0.00  0.00     0.199 C 
BRANCH  40  41
ATOM     41  OG  GLN d           6.099 -12.715  -7.557  0.00  0.00    -0.398 OA
ATOM     42  H26 GLN d           6.799 -13.217  -7.157  0.00  0.00     0.209 HD
ENDBRANCH  40  41
ENDBRANCH  14  40
ENDBRANCH   9  14
ENDBRANCH   4   7
ENDBRANCH   1   3
BRANCH   1  43
ATOM     43  C   GLN d           9.408 -15.326  -3.470  0.00  0.00     0.243 C 
ATOM     44  O   GLN d          10.585 -14.970  -3.400  0.00  0.00    -0.271 OA
ATOM     45  N   GLN d           8.440 -14.714  -2.773  0.00  0.00    -0.337 N 
ATOM     46  CA  GLN d           8.710 -13.592  -1.874  0.00  0.00     0.179 C 
ATOM     47  CD  GLN d           7.010 -15.075  -2.749  0.00  0.00     0.127 C 
ATOM     48  CB  GLN d           7.311 -13.078  -1.550  0.00  0.00     0.037 C 
ATOM     49  CG  GLN d           6.507 -14.339  -1.529  0.00  0.00     0.022 C 
BRANCH  46  50
ATOM     50  C   GLN d           9.467 -14.049  -0.632  0.00  0.00     0.241 C 
ATOM     51  O   GLN d           9.397 -15.217  -0.250  0.00  0.00    -0.271 OA
ATOM     52  N   GLN d          10.203 -13.128  -0.019  0.00  0.00    -0.346 N 
ATOM     53  H46 GLN d          10.238 -12.204  -0.399  0.00  0.00     0.163 HD
BRANCH  52  54
ATOM     54  CA  GLN d          10.963 -13.423   1.193  0.00  0.00     0.180 C 
BRANCH  54  55
ATOM     55  C   GLN d           9.953 -13.746   2.287  0.00  0.00     0.241 C 
ATOM     56  O   GLN d           8.776 -13.425   2.142  0.00  0.00    -0.271 OA
ATOM     57  N   GLN d          10.396 -14.375   3.374  0.00  0.00    -0.345 N 
ATOM     58  H55 GLN d          11.364 -14.614   3.451  0.00  0.00     0.163 HD
BRANCH  57  59
ATOM     59  CA  GLN d           9.473 -14.718   4.455  0.00  0.00     0.186 C 
BRANCH  59  60
ATOM     60  C   GLN d           9.122 -13.537   5.346  0.00  0.00     0.241 C 
ATOM     61  O   GLN d           9.947 -12.663   5.589  0.00  0.00    -0.271 OA
ATOM     62  N   GLN d           7.882 -13.520   5.827  0.00  0.00    -0.345 N 
ATOM     63  H59 GLN d           7.255 -14.257   5.576  0.00  0.00     0.163 HD
BRANCH  62  64
ATOM     64  CA  GLN d           7.410 -12.462   6.707  0.00  0.00     0.185 C 
BRANCH  64  65
ATOM     65  C   GLN d           8.164 -12.518   8.044  0.00  0.00     0.196 C 
ATOM     66  O   GLN d           8.837 -13.539   8.299  0.00  0.00    -0.646 OA
ATOM     67  OXT GLN d           8.073 -11.546   8.818  0.00  0.00    -0.646 OA
ENDBRANCH  64  65
BRANCH  64  68
ATOM     68  CB  GLN d           5.902 -12.629   6.949  0.00  0.00     0.040 C 
BRANCH  68  69
ATOM     69  CG  GLN d           4.896 -11.961   5.997  0.00  0.00    -0.020 C 
ATOM     70  CD1 GLN d           5.424 -11.888   4.572  0.00  0.00     0.009 C 
ATOM     71  CD2 GLN d           3.590 -12.728   6.058  0.00  0.00     0.009 C 
ENDBRANCH  68  69
ENDBRANCH  64  68
ENDBRANCH  62  64
ENDBRANCH  59  60
BRANCH  59  72
ATOM     72  CB  GLN d          10.022 -15.853   5.332  0.00  0.00     0.147 C 
BRANCH  72  73
ATOM     73  CG  GLN d           9.791 -17.233   4.719  0.00  0.00     0.175 C 
ATOM     74  OD1 GLN d           8.734 -17.446   4.076  0.00  0.00    -0.648 OA
ATOM     75  OD2 GLN d          10.658 -18.110   4.893  0.00  0.00    -0.648 OA
ENDBRANCH  72  73
ENDBRANCH  59  72
ENDBRANCH  57  59
ENDBRANCH  54  55
BRANCH  54  76
ATOM     76  CB  GLN d          11.803 -12.202   1.584  0.00  0.00     0.073 C 
BRANCH  76  77
ATOM     77  CG  GLN d          13.010 -11.979   0.703  0.00  0.00    -0.056 A 
ATOM     78  CD1 GLN d          13.729 -10.792   0.774  0.00  0.00     0.007 A 
ATOM     79  CE1 GLN d          14.876 -10.603   0.005  0.00  0.00     0.001 A 
ATOM     80  CZ  GLN d          15.312 -11.611  -0.848  0.00  0.00     0.000 A 
ATOM     81  CE2 GLN d          14.601 -12.798  -0.931  0.00  0.00     0.001 A 
ATOM     82  CD2 GLN d          13.456 -12.976  -0.159  0.00  0.00     0.007 A 
ENDBRANCH  76  77
ENDBRANCH  54  76
ENDBRANCH  52  54
ENDBRANCH  46  50
ENDBRANCH   1  43
TORSDOF 29
