REMARK  4 active torsions:
REMARK  status: ('A' for Active; 'I' for Inactive)
REMARK    1  A    between atoms: C2_2  and  C4_4 
REMARK    2  A    between atoms: C4_4  and  C5_5 
REMARK    3  A    between atoms: C5_5  and  C9_7 
REMARK    4  A    between atoms: C9_7  and  P10_8 
ROOT
ATOM      1  C5  HBU d          47.974  42.967  59.670  0.00  0.00     0.146 C 
ATOM      2  O8  HBU d          48.073  43.991  59.067  0.00  0.00    -0.297 OA
ENDROOT
BRANCH   1   3
ATOM      3  C4  HBU d          48.380  42.723  61.112  0.00  0.00     0.192 C 
BRANCH   3   4
ATOM      4  C2  HBU d          47.603  43.551  62.116  0.00  0.00     0.179 C 
ATOM      5  O1  HBU d          47.433  44.745  61.884  0.00  0.00    -0.648 OA
ATOM      6  O3  HBU d          47.117  43.104  63.127  0.00  0.00    -0.648 OA
ENDBRANCH   3   4
ENDBRANCH   1   3
BRANCH   1   7
ATOM      7  C9  HBU d          47.317  41.806  58.922  0.00  0.00     0.181 C 
BRANCH   7   8
ATOM      8  P10 HBU d          45.482  42.078  58.977  0.00  0.00     0.109 P 
ATOM      9  C15 HBU d          44.868  40.586  58.729  0.00  0.00     0.120 C 
ATOM     10  O14 HBU d          45.112  42.528  60.326  0.00  0.00    -0.667 OA
ATOM     11  O13 HBU d          45.115  43.038  57.908  0.00  0.00    -0.667 OA
ENDBRANCH   7   8
ENDBRANCH   1   7
TORSDOF 4
