REMARK  9 active torsions:
REMARK  status: ('A' for Active; 'I' for Inactive)
REMARK    1  A    between atoms: CAF_6  and  CAD_4 
REMARK    2  A    between atoms: CAG_7  and  CAE_5 
REMARK    3  A    between atoms: CAJ_10  and  CAF_6 
REMARK    4  A    between atoms: NAP_16  and  CAG_7 
REMARK    5  A    between atoms: CAI_9  and  CAH_8 
REMARK    6  A    between atoms: CAH_8  and  NAP_16 
REMARK    7  A    between atoms: NAQ_17  and  CAI_9 
REMARK    8  A    between atoms: CAS_19  and  CAJ_10 
REMARK    9  A    between atoms: CAX_24  and  NAQ_17 
ROOT
ATOM      1  CAH RWZ d         -20.121 -15.631  -8.275  0.00  0.00     0.260 C 
ENDROOT
BRANCH   1   2
ATOM      2  CAI RWZ d         -21.315 -16.398  -7.814  0.00  0.00     0.260 C 
BRANCH   2   3
ATOM      3  NAQ RWZ d         -21.698 -17.276  -8.897  0.00  0.00    -0.069 N 
ATOM      4  H34 RWZ d         -20.996 -17.986  -9.038  0.00  0.00     0.277 HD
ATOM      5  H35 RWZ d         -21.819 -16.750  -9.748  0.00  0.00     0.277 HD
BRANCH   3   6
ATOM      6  CAX RWZ d         -22.947 -17.878  -8.497  0.00  0.00     0.194 C 
ATOM      7  CAV RWZ d         -22.853 -19.372  -8.710  0.00  0.00     0.017 C 
ATOM      8  CAL RWZ d         -21.711 -19.943  -7.903  0.00  0.00     0.011 C 
ATOM      9  CAM RWZ d         -24.102 -20.031  -8.194  0.00  0.00     0.011 C 
ATOM     10  CAT RWZ d         -21.884 -19.583  -6.435  0.00  0.00    -0.013 C 
ATOM     11  CAK RWZ d         -23.140 -20.218  -5.924  0.00  0.00     0.009 C 
ATOM     12  CAN RWZ d         -21.971 -18.074  -6.248  0.00  0.00     0.011 C 
ATOM     13  CAU RWZ d         -24.299 -19.698  -6.729  0.00  0.00    -0.013 C 
ATOM     14  CAO RWZ d         -24.389 -18.213  -6.492  0.00  0.00     0.011 C 
ATOM     15  CAW RWZ d         -23.145 -17.545  -7.031  0.00  0.00     0.017 C 
ENDBRANCH   3   6
ENDBRANCH   2   3
ENDBRANCH   1   2
BRANCH   1  16
ATOM     16  NAP RWZ d         -20.352 -14.220  -8.031  0.00  0.00    -0.070 N 
ATOM     17  H32 RWZ d         -20.555 -14.085  -7.053  0.00  0.00     0.277 HD
ATOM     18  H33 RWZ d         -19.521 -13.704  -8.276  0.00  0.00     0.277 HD
BRANCH  16  19
ATOM     19  CAG RWZ d         -21.468 -13.722  -8.820  0.00  0.00     0.260 C 
BRANCH  19  20
ATOM     20  CAE RWZ d         -22.424 -14.693  -8.884  0.00  0.00     0.003 C 
ATOM     21  CAS RWZ d         -23.775 -14.532  -8.717  0.00  0.00    -0.086 C 
ATOM     22  CAC RWZ d         -24.653 -15.733  -8.815  0.00  0.00     0.043 C 
BRANCH  21  23
ATOM     23  CAJ RWZ d         -24.435 -13.216  -8.424  0.00  0.00     0.037 C 
BRANCH  23  24
ATOM     24  CAF RWZ d         -25.723 -13.457  -7.663  0.00  0.00     0.031 C 
BRANCH  24  25
ATOM     25  CAD RWZ d         -26.743 -12.627  -8.054  0.00  0.00    -0.024 C 
ATOM     26  CAR RWZ d         -27.042 -11.449  -7.437  0.00  0.00    -0.091 C 
ATOM     27  CAA RWZ d         -28.177 -10.554  -7.890  0.00  0.00     0.042 C 
ATOM     28  CAB RWZ d         -26.173 -11.039  -6.292  0.00  0.00     0.042 C 
ENDBRANCH  24  25
ENDBRANCH  23  24
ENDBRANCH  21  23
ENDBRANCH  19  20
ENDBRANCH  16  19
ENDBRANCH   1  16
TORSDOF 9
