REMARK  32 active torsions:
REMARK  status: ('A' for Active; 'I' for Inactive)
REMARK    1  A    between atoms: CA_2  and  N_1 
REMARK    2  A    between atoms: C_3  and  CA_2 
REMARK    3  A    between atoms: CA_2  and  CB_5 
REMARK       I    between atoms: N_12  and  C_3 
REMARK    4  A    between atoms: CB_5  and  CG_6 
REMARK    5  A    between atoms: CG_6  and  CD_7 
REMARK    6  A    between atoms: CD_7  and  NE_8 
REMARK       I    between atoms: NE_8  and  CZ_9 
REMARK       I    between atoms: CZ_9  and  NH1_10 
REMARK    7  A    between atoms: CA_13  and  N_12 
REMARK    8  A    between atoms: C_14  and  CA_13 
REMARK       I    between atoms: N_16  and  C_14 
REMARK    9  A    between atoms: CA_17  and  N_16 
REMARK   10  A    between atoms: C_18  and  CA_17 
REMARK   11  A    between atoms: CA_17  and  CB_20 
REMARK       I    between atoms: N_28  and  C_18 
REMARK   12  A    between atoms: CB_20  and  CG_21 
REMARK   13  A    between atoms: CZ_26  and  OH_27 
REMARK   14  A    between atoms: CA_29  and  N_28 
REMARK   15  A    between atoms: C_30  and  CA_29 
REMARK   16  A    between atoms: CA_29  and  CB_32 
REMARK       I    between atoms: N_35  and  C_30 
REMARK   17  A    between atoms: CA_36  and  N_35 
REMARK   18  A    between atoms: C_37  and  CA_36 
REMARK   19  A    between atoms: CA_36  and  CB_39 
REMARK       I    between atoms: N_47  and  C_37 
REMARK   20  A    between atoms: CB_39  and  CG_40 
REMARK   21  A    between atoms: CZ_45  and  OH_46 
REMARK   22  A    between atoms: CA_48  and  N_47 
REMARK   23  A    between atoms: C_49  and  CA_48 
REMARK   24  A    between atoms: CA_48  and  CB_51 
REMARK       I    between atoms: N_56  and  C_49 
REMARK   25  A    between atoms: CB_51  and  CG_52 
REMARK   26  A    between atoms: CG_52  and  CD_53 
REMARK       I    between atoms: CD_53  and  NE2_55 
REMARK   27  A    between atoms: CA_57  and  N_56 
REMARK   28  A    between atoms: C_58  and  CA_57 
REMARK       I    between atoms: C_58  and  N_60 
REMARK   29  A    between atoms: N_60  and  CA_61 
REMARK   30  A    between atoms: CA_61  and  C_62 
REMARK   31  A    between atoms: CA_61  and  CB_64 
REMARK   32  A    between atoms: CB_64  and  CG_65 
ROOT
ATOM      1  CA  MOL d          42.543  60.494  -3.215  0.00  0.00     0.180 C 
ENDROOT
BRANCH   1   2
ATOM      2  C   MOL d          42.401  60.109  -4.692  0.00  0.00     0.241 C 
ATOM      3  O   MOL d          42.940  60.774  -5.585  0.00  0.00    -0.271 OA
ATOM      4  N   MOL d          41.692  59.013  -4.950  0.00  0.00    -0.346 N 
ATOM      5  H37 MOL d          41.247  58.526  -4.199  0.00  0.00     0.163 HD
BRANCH   4   6
ATOM      6  CA  MOL d          41.554  58.513  -6.310  0.00  0.00     0.180 C 
BRANCH   6   7
ATOM      7  C   MOL d          40.805  59.406  -7.288  0.00  0.00     0.241 C 
ATOM      8  O   MOL d          39.814  60.045  -6.938  0.00  0.00    -0.271 OA
ATOM      9  N   MOL d          41.292  59.404  -8.522  0.00  0.00    -0.346 N 
ATOM     10  H46 MOL d          42.092  58.835  -8.712  0.00  0.00     0.163 HD
BRANCH   9  11
ATOM     11  CA  MOL d          40.727  60.185  -9.617  0.00  0.00     0.177 C 
BRANCH  11  12
ATOM     12  C   MOL d          39.666  59.390 -10.376  0.00  0.00     0.240 C 
ATOM     13  O   MOL d          39.822  58.179 -10.592  0.00  0.00    -0.271 OA
ATOM     14  N   MOL d          38.604  60.084 -10.781  0.00  0.00    -0.351 N 
ATOM     15  H54 MOL d          38.556  61.060 -10.570  0.00  0.00     0.163 HD
BRANCH  14  16
ATOM     16  CA  MOL d          37.513  59.472 -11.519  0.00  0.00     0.225 C 
BRANCH  16  17
ATOM     17  C   MOL d          37.916  58.836 -12.838  0.00  0.00     0.236 C 
ATOM     18  O   MOL d          38.818  59.322 -13.520  0.00  0.00    -0.272 OA
ATOM     19  N   MOL d          37.234  57.749 -13.202  0.00  0.00    -0.345 N 
ATOM     20  H57 MOL d          36.503  57.416 -12.607  0.00  0.00     0.163 HD
BRANCH  19  21
ATOM     21  CA  MOL d          37.520  57.026 -14.445  0.00  0.00     0.185 C 
BRANCH  21  22
ATOM     22  C   MOL d          36.788  57.599 -15.664  0.00  0.00     0.196 C 
ATOM     23  OXT MOL d          37.202  57.292 -16.807  0.00  0.00    -0.646 OA
ATOM     24  O   MOL d          35.783  58.316 -15.470  0.00  0.00    -0.646 OA
ENDBRANCH  21  22
BRANCH  21  25
ATOM     25  CB  MOL d          37.130  55.543 -14.282  0.00  0.00     0.040 C 
BRANCH  25  26
ATOM     26  CG  MOL d          37.801  54.772 -13.138  0.00  0.00    -0.020 C 
ATOM     27  CD2 MOL d          39.309  54.777 -13.326  0.00  0.00     0.009 C 
ATOM     28  CD1 MOL d          37.270  53.321 -13.123  0.00  0.00     0.009 C 
ENDBRANCH  25  26
ENDBRANCH  21  25
ENDBRANCH  19  21
ENDBRANCH  16  17
ENDBRANCH  14  16
ENDBRANCH  11  12
BRANCH  11  29
ATOM     29  CB  MOL d          41.850  60.591 -10.571  0.00  0.00     0.044 C 
BRANCH  29  30
ATOM     30  CG  MOL d          42.927  61.412  -9.891  0.00  0.00     0.105 C 
BRANCH  30  31
ATOM     31  CD  MOL d          42.377  62.711  -9.335  0.00  0.00     0.215 C 
ATOM     32  OE1 MOL d          41.831  63.530 -10.079  0.00  0.00    -0.274 OA
ATOM     33  NE2 MOL d          42.508  62.905  -8.023  0.00  0.00    -0.370 N 
ATOM     34  H52 MOL d          42.163  63.745  -7.605  0.00  0.00     0.159 HD
ATOM     35  H53 MOL d          42.952  62.211  -7.457  0.00  0.00     0.159 HD
ENDBRANCH  30  31
ENDBRANCH  29  30
ENDBRANCH  11  29
ENDBRANCH   9  11
ENDBRANCH   6   7
BRANCH   6  36
ATOM     36  CB  MOL d          40.925  57.105  -6.289  0.00  0.00     0.073 C 
BRANCH  36  37
ATOM     37  CG  MOL d          41.689  56.159  -5.381  0.00  0.00    -0.056 A 
ATOM     38  CD2 MOL d          42.875  55.561  -5.807  0.00  0.00     0.010 A 
ATOM     39  CE2 MOL d          43.632  54.756  -4.947  0.00  0.00     0.037 A 
ATOM     40  CZ  MOL d          43.200  54.545  -3.656  0.00  0.00     0.065 A 
ATOM     41  CE1 MOL d          42.020  55.125  -3.209  0.00  0.00     0.037 A 
ATOM     42  CD1 MOL d          41.271  55.929  -4.077  0.00  0.00     0.010 A 
BRANCH  40  43
ATOM     43  OH  MOL d          43.939  53.762  -2.792  0.00  0.00    -0.361 OA
ATOM     44  H45 MOL d          44.712  53.440  -3.241  0.00  0.00     0.217 HD
ENDBRANCH  40  43
ENDBRANCH  36  37
ENDBRANCH   6  36
ENDBRANCH   4   6
ENDBRANCH   1   2
BRANCH   1  45
ATOM     45  CB  MOL d          42.345  62.023  -3.041  0.00  0.00     0.009 C 
ATOM     46  CG1 MOL d          40.953  62.423  -3.537  0.00  0.00     0.012 C 
ATOM     47  CG2 MOL d          42.513  62.406  -1.569  0.00  0.00     0.012 C 
ENDBRANCH   1  45
BRANCH   1  48
ATOM     48  N   MOL d          43.911  60.080  -2.907  0.00  0.00    -0.346 N 
ATOM     49  C   MOL d          44.174  58.905  -2.336  0.00  0.00     0.241 C 
ATOM     50  O   MOL d          43.297  58.145  -1.943  0.00  0.00    -0.271 OA
ATOM     51  H28 MOL d          44.668  60.694  -3.130  0.00  0.00     0.163 HD
BRANCH  49  52
ATOM     52  CA  MOL d          45.637  58.554  -2.136  0.00  0.00     0.180 C 
BRANCH  52  53
ATOM     53  CB  MOL d          46.223  57.989  -3.425  0.00  0.00     0.073 C 
BRANCH  53  54
ATOM     54  CG  MOL d          46.186  58.912  -4.614  0.00  0.00    -0.056 A 
ATOM     55  CD2 MOL d          45.520  58.541  -5.778  0.00  0.00     0.010 A 
ATOM     56  CE2 MOL d          45.549  59.350  -6.914  0.00  0.00     0.037 A 
ATOM     57  CZ  MOL d          46.255  60.549  -6.880  0.00  0.00     0.065 A 
ATOM     58  CE1 MOL d          46.915  60.939  -5.728  0.00  0.00     0.037 A 
ATOM     59  CD1 MOL d          46.876  60.126  -4.603  0.00  0.00     0.010 A 
BRANCH  57  60
ATOM     60  OH  MOL d          46.317  61.330  -8.017  0.00  0.00    -0.361 OA
ATOM     61  H27 MOL d          45.813  60.920  -8.710  0.00  0.00     0.217 HD
ENDBRANCH  57  60
ENDBRANCH  53  54
ENDBRANCH  52  53
BRANCH  52  62
ATOM     62  N   MOL d          45.765  57.550  -1.101  0.00  0.00    -0.346 N 
ATOM     63  C   MOL d          45.895  57.853   0.179  0.00  0.00     0.236 C 
ATOM     64  O   MOL d          45.915  59.013   0.614  0.00  0.00    -0.272 OA
ATOM     65  H19 MOL d          45.755  56.586  -1.366  0.00  0.00     0.163 HD
BRANCH  63  66
ATOM     66  CA  MOL d          46.028  56.655   1.093  0.00  0.00     0.225 C 
BRANCH  66  67
ATOM     67  N   MOL d          46.403  56.949   2.459  0.00  0.00    -0.351 N 
ATOM     68  C   MOL d          47.671  57.125   2.791  0.00  0.00     0.248 C 
ATOM     69  O   MOL d          48.592  57.092   1.978  0.00  0.00    -0.271 OA
ATOM     70  H16 MOL d          45.694  57.020   3.161  0.00  0.00     0.163 HD
BRANCH  68  71
ATOM     71  CA  MOL d          47.933  57.408   4.253  0.00  0.00     0.274 C 
BRANCH  71  72
ATOM     72  CB  MOL d          47.996  58.936   4.461  0.00  0.00     0.044 C 
BRANCH  72  73
ATOM     73  CG  MOL d          48.258  59.373   5.901  0.00  0.00     0.023 C 
BRANCH  73  74
ATOM     74  CD  MOL d          47.946  60.866   6.085  0.00  0.00     0.138 C 
BRANCH  74  75
ATOM     75  NE  MOL d          46.509  61.113   5.968  0.00  0.00    -0.227 N 
ATOM     76  CZ  MOL d          45.943  62.317   5.914  0.00  0.00     0.665 C 
ATOM     77  NH1 MOL d          46.692  63.413   5.968  0.00  0.00    -0.235 N 
ATOM     78  NH2 MOL d          44.624  62.420   5.789  0.00  0.00    -0.235 N 
ATOM     79  H12 MOL d          46.249  64.342   5.926  0.00  0.00     0.174 HD
ATOM     80  H13 MOL d          47.715  63.334   6.052  0.00  0.00     0.174 HD
ATOM     81  H14 MOL d          44.043  61.571   5.747  0.00  0.00     0.174 HD
ATOM     82  H15 MOL d          44.183  63.349   5.734  0.00  0.00     0.174 HD
ATOM     83  H11 MOL d          45.888  60.293   5.924  0.00  0.00     0.177 HD
ENDBRANCH  74  75
ENDBRANCH  73  74
ENDBRANCH  72  73
ENDBRANCH  71  72
BRANCH  71  84
ATOM     84  N   MOL d          49.216  56.760   4.675  0.00  0.00    -0.067 N 
ATOM     85  H1  MOL d          49.385  56.952   5.650  0.00  0.00     0.275 HD
ATOM     86  H2  MOL d          49.975  57.128   4.124  0.00  0.00     0.275 HD
ATOM     87  H3  MOL d          49.151  55.764   4.535  0.00  0.00     0.275 HD
ENDBRANCH  71  84
ENDBRANCH  68  71
ENDBRANCH  66  67
ENDBRANCH  63  66
ENDBRANCH  52  62
ENDBRANCH  49  52
ENDBRANCH   1  48
TORSDOF 32
