REMARK  19 active torsions:
REMARK  status: ('A' for Active; 'I' for Inactive)
REMARK    1  A    between atoms: BC1'_13  and  BN1_1 
REMARK    2  A    between atoms: BC5'_10  and  BC4'_11 
REMARK    3  A    between atoms: BC5'_10  and  BO5'_20 
REMARK    4  A    between atoms: BC3'_15  and  BO3'_16 
REMARK    5  A    between atoms: BO5'_20  and  PA_17 
REMARK    6  A    between atoms: PA_17  and  O3A_21 
REMARK    7  A    between atoms: O3A_21  and  PB_22 
REMARK    8  A    between atoms: PB_22  and  O3B_25 
REMARK    9  A    between atoms: O3B_25  and  PC_26 
REMARK   10  A    between atoms: PC_26  and  O3C_29 
REMARK   11  A    between atoms: O3C_29  and  PD_30 
REMARK   12  A    between atoms: PD_30  and  O3D_33 
REMARK   13  A    between atoms: O3D_33  and  PE_34 
REMARK   14  A    between atoms: PE_34  and  AO5'_37 
REMARK   15  A    between atoms: AO5'_37  and  AC5'_38 
REMARK   16  A    between atoms: AC5'_38  and  AC4'_39 
REMARK   17  A    between atoms: AC1'_41  and  AN9_46 
REMARK   18  A    between atoms: AC2'_42  and  AO2'_43 
REMARK   19  A    between atoms: AC3'_44  and  AO3'_45 
ROOT
ATOM      1  O3C T5A d          26.233  19.635   5.330  0.00  0.00    -0.180 OA
ENDROOT
BRANCH   1   2
ATOM      2  PC  T5A d          27.259  18.929   6.366  0.00  0.00     0.427 P 
ATOM      3  O1C T5A d          27.191  19.487   7.720  0.00  0.00    -0.624 OA
ATOM      4  O2C T5A d          28.562  18.875   5.702  0.00  0.00    -0.624 OA
BRANCH   2   5
ATOM      5  O3B T5A d          26.778  17.517   6.465  0.00  0.00    -0.180 OA
BRANCH   5   6
ATOM      6  PB  T5A d          25.427  16.769   6.226  0.00  0.00     0.427 P 
ATOM      7  O1B T5A d          24.219  17.613   5.988  0.00  0.00    -0.624 OA
ATOM      8  O2B T5A d          25.748  15.767   5.177  0.00  0.00    -0.624 OA
BRANCH   6   9
ATOM      9  O3A T5A d          25.243  15.961   7.637  0.00  0.00    -0.180 OA
BRANCH   9  10
ATOM     10  PA  T5A d          25.804  14.829   8.255  0.00  0.00     0.417 P 
ATOM     11  O1A T5A d          27.227  14.981   8.368  0.00  0.00    -0.624 OA
ATOM     12  O2A T5A d          25.042  14.979   9.508  0.00  0.00    -0.624 OA
BRANCH  10  13
ATOM     13  BO5 T5A d          25.321  13.409   7.591  0.00  0.00    -0.287 OA
BRANCH  13  14
ATOM     14  BC5 T5A d          24.226  13.399   6.761  0.00  0.00     0.216 C 
BRANCH  14  15
ATOM     15  BC4 T5A d          23.162  12.487   7.376  0.00  0.00     0.177 C 
ATOM     16  BO4 T5A d          23.738  11.181   7.552  0.00  0.00    -0.356 OA
ATOM     17  BC1 T5A d          23.175  10.643   8.786  0.00  0.00     0.235 C 
ATOM     18  BC2 T5A d          23.071  11.925   9.646  0.00  0.00     0.088 C 
ATOM     19  BC3 T5A d          22.682  13.041   8.700  0.00  0.00     0.153 C 
BRANCH  17  20
ATOM     20  BN1 T5A d          24.111   9.625   9.212  0.00  0.00    -0.282 N 
ATOM     21  BC6 T5A d          25.449   9.953   9.314  0.00  0.00     0.110 A 
ATOM     22  BC5 T5A d          26.404   9.071   9.679  0.00  0.00     0.022 A 
ATOM     23  BC4 T5A d          26.001   7.698   9.984  0.00  0.00     0.256 A 
ATOM     24  BC7 T5A d          27.894   9.420   9.791  0.00  0.00     0.056 C 
ATOM     25  BN3 T5A d          24.622   7.452   9.857  0.00  0.00    -0.275 N 
ATOM     26  BO4 T5A d          26.816   6.792  10.333  0.00  0.00    -0.267 OA
ATOM     27  BC2 T5A d          23.623   8.350   9.476  0.00  0.00     0.331 A 
ATOM     28  H2  T5A d          24.321   6.521  10.065  0.00  0.00     0.173 HD
ATOM     29  BO2 T5A d          22.430   7.955   9.390  0.00  0.00    -0.246 OA
ENDBRANCH  17  20
BRANCH  19  30
ATOM     30  BO3 T5A d          21.280  13.256   8.619  0.00  0.00    -0.393 OA
ATOM     31  H13 T5A d          20.966  13.604   9.445  0.00  0.00     0.210 HD
ENDBRANCH  19  30
ENDBRANCH  14  15
ENDBRANCH  13  14
ENDBRANCH  10  13
ENDBRANCH   9  10
ENDBRANCH   6   9
ENDBRANCH   5   6
ENDBRANCH   2   5
ENDBRANCH   1   2
BRANCH   1  32
ATOM     32  PD  T5A d          26.306  20.859   4.208  0.00  0.00     0.427 P 
ATOM     33  O1D T5A d          26.979  22.046   4.821  0.00  0.00    -0.624 OA
ATOM     34  O2D T5A d          24.932  20.898   3.713  0.00  0.00    -0.624 OA
BRANCH  32  35
ATOM     35  O3D T5A d          27.411  20.402   3.133  0.00  0.00    -0.180 OA
BRANCH  35  36
ATOM     36  PE  T5A d          27.465  19.665   1.668  0.00  0.00     0.417 P 
ATOM     37  O1E T5A d          26.545  20.375   0.721  0.00  0.00    -0.624 OA
ATOM     38  O2E T5A d          28.908  19.679   1.392  0.00  0.00    -0.624 OA
BRANCH  36  39
ATOM     39  AO5 T5A d          26.996  18.222   2.035  0.00  0.00    -0.287 OA
BRANCH  39  40
ATOM     40  AC5 T5A d          25.971  17.514   1.316  0.00  0.00     0.216 C 
BRANCH  40  41
ATOM     41  AC4 T5A d          26.468  16.342   0.529  0.00  0.00     0.180 C 
ATOM     42  AO4 T5A d          25.310  15.772  -0.065  0.00  0.00    -0.353 OA
ATOM     43  AC1 T5A d          25.395  15.660  -1.513  0.00  0.00     0.262 C 
ATOM     44  AC2 T5A d          26.892  15.706  -1.801  0.00  0.00     0.198 C 
ATOM     45  AC3 T5A d          27.461  16.653  -0.689  0.00  0.00     0.182 C 
BRANCH  43  46
ATOM     46  AN9 T5A d          24.748  16.790  -2.242  0.00  0.00    -0.294 N 
ATOM     47  AC4 T5A d          24.128  16.691  -3.480  0.00  0.00     0.167 A 
ATOM     48  AN3 T5A d          23.990  15.538  -4.254  0.00  0.00    -0.222 NA
ATOM     49  AC5 T5A d          23.670  17.973  -3.800  0.00  0.00     0.149 A 
ATOM     50  AC2 T5A d          23.338  15.767  -5.422  0.00  0.00     0.237 A 
ATOM     51  AN1 T5A d          22.845  16.984  -5.847  0.00  0.00    -0.222 NA
ATOM     52  AC6 T5A d          22.990  18.111  -5.068  0.00  0.00     0.155 A 
ATOM     53  AN6 T5A d          22.483  19.226  -5.567  0.00  0.00    -0.382 N 
ATOM     54  H23 T5A d          22.555  20.107  -5.038  0.00  0.00     0.157 HD
ATOM     55  H24 T5A d          22.016  19.214  -6.485  0.00  0.00     0.157 HD
ATOM     56  AN7 T5A d          23.995  18.839  -2.786  0.00  0.00    -0.236 NA
ATOM     57  AC8 T5A d          24.618  18.123  -1.899  0.00  0.00     0.214 A 
ENDBRANCH  43  46
BRANCH  44  58
ATOM     58  AO2 T5A d          27.334  14.355  -1.758  0.00  0.00    -0.388 OA
ATOM     59  H19 T5A d          28.267  14.323  -1.932  0.00  0.00     0.210 HD
ENDBRANCH  44  58
BRANCH  45  60
ATOM     60  AO3 T5A d          28.760  16.242  -0.231  0.00  0.00    -0.390 OA
ATOM     61  H21 T5A d          28.704  15.365   0.130  0.00  0.00     0.210 HD
ENDBRANCH  45  60
ENDBRANCH  40  41
ENDBRANCH  39  40
ENDBRANCH  36  39
ENDBRANCH  35  36
ENDBRANCH  32  35
ENDBRANCH   1  32
TORSDOF 19
