3gpo_ligand

Created by X-TOOL on Fri Sep 26 17:34:43 2014
 57 60  0  0  0  0  0  0  0  0999 V2000
   15.2070   39.9840   -9.4250  N 0  0  0  1  0  2
   15.3640   41.2450   -8.9870  C 0  0  0  2  0  3
   15.1580   42.3210   -9.7700  N 0  0  0  1  0  2
   14.7930   42.1800  -11.0660  C 0  0  0  1  0  3
   14.6140   40.8300  -11.6250  C 0  0  0  1  0  3
   14.8490   39.6980  -10.7010  C 0  0  0  1  0  3
   14.7020   38.4150  -11.1110  N 0  0  0  3  0  3
   14.2430   40.9880  -12.9100  N 0  0  0  1  0  2
   14.2120   42.3260  -13.1600  C 0  0  0  2  0  3
   14.5490   43.0330  -12.0540  N 0  0  0  1  0  3
   14.5880   44.5090  -11.8620  C 0  0  0  2  0  4
   14.4950   45.3220  -13.1460  C 0  0  0  2  0  4
   15.7820   45.6850  -13.6600  O 0  0  0  2  0  2
   13.6950   46.5500  -12.7310  C 0  0  0  2  0  4
   14.5820   47.5410  -12.1820  O 0  0  0  2  0  2
   13.3680   44.8000  -11.1530  O 0  0  0  1  0  2
   12.7910   46.0480  -11.6160  C 0  0  0  2  0  4
   11.3450   45.8510  -12.0610  C 0  0  0  3  0  4
   11.3220   45.5520  -13.4610  O 0  0  0  1  0  2
   10.1890   44.6340  -14.1190  P 0  0  0  1  0  4
   10.2250   43.2800  -13.4520  O 0  0  0  1  0  1
   10.3030   44.7180  -15.6140  O 0  0  0  1  0  1
    8.7660   45.2660  -13.6570  O 0  0  0  1  0  2
    7.9370   46.5110  -14.2840  P 0  0  0  1  0  4
    6.9110   46.8390  -13.1920  O 0  0  0  1  0  1
    8.9150   47.5490  -14.7530  O 0  0  0  1  0  1
    7.1290   45.8590  -15.4900  O 0  0  0  1  0  2
    6.1890   44.8180  -15.2360  C 0  0  0  3  0  4
    7.1620   43.3430  -16.8410  O 0  0  0  1  0  2
    7.7820   41.1230  -17.0330  O 0  0  0  2  0  2
    6.7120   42.0250  -17.1990  C 0  0  0  2  0  4
    4.6360   40.7150  -16.6350  O 0  0  0  2  0  2
    5.5400   41.7710  -16.2700  C 0  0  0  2  0  4
    4.2340   43.0030  -17.8150  O 0  0  0  2  0  2
    4.8410   43.0870  -16.5100  C 0  0  0  2  0  4
    5.9770   44.0880  -16.5500  C 0  0  0  2  0  4
   15.6697   41.4026   -7.9590  H 0  0  0  1  0  1
   14.4296   38.2132  -12.0836  H 0  0  0  1  0  1
   14.8627   37.6415  -10.4501  H 0  0  0  1  0  1
   13.9513   42.7688  -14.1202  H 0  0  0  1  0  1
   15.4840   44.7979  -11.2930  H 0  0  0  1  0  1
   13.9549   44.7540  -13.9177  H 0  0  0  1  0  1
   16.2434   46.2079  -13.0149  H 0  0  0  1  0  1
   13.1191   46.9630  -13.5723  H 0  0  0  1  0  1
   15.2235   47.7882  -12.8377  H 0  0  0  1  0  1
   12.7975   46.7795  -10.7946  H 0  0  0  1  0  1
   10.7727   46.7711  -11.8715  H 0  0  0  1  0  1
   10.8969   45.0182  -11.4992  H 0  0  0  1  0  1
    5.2387   45.2440  -14.8820  H 0  0  0  1  0  1
    6.5856   44.1262  -14.4783  H 0  0  0  1  0  1
    8.5032   41.3823  -17.5943  H 0  0  0  1  0  1
    6.3747   41.9932  -18.2455  H 0  0  0  1  0  1
    4.2537   40.9060  -17.4834  H 0  0  0  1  0  1
    5.8694   41.6297  -15.2300  H 0  0  0  1  0  1
    3.6140   42.2834  -17.8289  H 0  0  0  1  0  1
    4.1008   43.3259  -15.7322  H 0  0  0  1  0  1
    5.7835   44.8262  -17.3422  H 0  0  0  1  0  1
  2  1  4  0  0  1
  6  1  4  0  0  1
  3  2  4  0  0  1
  4  3  4  0  0  1
  4  5  4  0  0  1
 10  4  1  0  0  1
  5  6  4  0  0  1
  8  5  1  0  0  1
  6  7  1  0  0  2
  9  8  2  0  0  1
 10  9  1  0  0  1
 11 10  1  0  0  2
 11 12  1  0  0  1
 16 11  1  0  0  1
 12 13  1  0  0  2
 14 12  1  0  0  1
 14 15  1  0  0  2
 17 14  1  0  0  1
 17 16  1  0  0  1
 18 17  1  0  0  2
 19 18  1  0  0  2
 20 19  1  0  0  2
 20 21  2  0  0  2
 20 22  2  0  0  2
 23 20  1  0  0  2
 24 23  1  0  0  2
 24 25  2  0  0  2
 24 26  2  0  0  2
 27 24  1  0  0  2
 28 27  1  0  0  2
 36 28  1  0  0  2
 29 31  1  0  0  1
 29 36  1  0  0  1
 31 30  1  0  0  2
 31 33  1  0  0  1
 33 32  1  0  0  2
 33 35  1  0  0  1
 35 34  1  0  0  2
 35 36  1  0  0  1
  2 37  1  0  0  2
  7 38  1  0  0  2
  7 39  1  0  0  2
  9 40  1  0  0  2
 11 41  1  0  0  2
 12 42  1  0  0  2
 13 43  1  0  0  2
 14 44  1  0  0  2
 15 45  1  0  0  2
 17 46  1  0  0  2
 18 47  1  0  0  2
 18 48  1  0  0  2
 28 49  1  0  0  2
 28 50  1  0  0  2
 30 51  1  0  0  2
 31 52  1  0  0  2
 32 53  1  0  0  2
 33 54  1  0  0  2
 34 55  1  0  0  2
 35 56  1  0  0  2
 36 57  1  0  0  2
M  END
> <MOLECULAR_FORMULA>
C15H21N5O14P2

> <MOLECULAR_WEIGHT>
557.1

> <NUM_HB_ATOMS>
19 

> <NUM_ROTOR>
9  

> <XLOGP2>
-4.70

$$$$
