REMARK  6 active torsions:
REMARK  status: ('A' for Active; 'I' for Inactive)
REMARK    1  A    between atoms: N1_1  and  C1'_9 
REMARK    2  A    between atoms: C4_5  and  O4_6 
REMARK    3  A    between atoms: C2'_10  and  O2'_11 
REMARK    4  A    between atoms: C3'_12  and  O3'_13 
REMARK    5  A    between atoms: C4'_14  and  C5'_16 
REMARK    6  A    between atoms: C5'_16  and  O5'_17 
ROOT
ATOM      1  C1' ZEB d          35.625  50.352   9.364  0.00  0.00     0.263 C 
ATOM      2  C2' ZEB d          35.686  51.799   8.943  0.00  0.00     0.198 C 
ATOM      3  C3' ZEB d          36.041  52.394  10.251  0.00  0.00     0.182 C 
ATOM      4  C4' ZEB d          35.604  51.371  11.288  0.00  0.00     0.179 C 
ATOM      5  O4' ZEB d          35.861  50.087  10.736  0.00  0.00    -0.353 OA
ENDROOT
BRANCH   1   6
ATOM      6  N1  ZEB d          35.176  48.855   8.890  0.00  0.00    -0.280 N 
ATOM      7  C6  ZEB d          33.878  48.548   8.909  0.00  0.00     0.098 A 
ATOM      8  C5  ZEB d          33.435  47.489   8.228  0.00  0.00     0.043 A 
ATOM      9  C4  ZEB d          34.380  46.673   7.423  0.00  0.00     0.247 A 
ATOM     10  N3  ZEB d          35.739  47.154   7.438  0.00  0.00    -0.313 N 
ATOM     11  C2  ZEB d          36.094  48.205   8.194  0.00  0.00     0.326 A 
ATOM     12  H1  ZEB d          36.429  46.697   6.876  0.00  0.00     0.167 HD
ATOM     13  O2  ZEB d          37.258  48.567   8.266  0.00  0.00    -0.247 OA
BRANCH   9  14
ATOM     14  O4  ZEB d          33.648  46.655   5.906  0.00  0.00    -0.373 OA
ATOM     15  H3  ZEB d          32.761  46.326   5.988  0.00  0.00     0.212 HD
ENDBRANCH   9  14
ENDBRANCH   1   6
BRANCH   2  16
ATOM     16  O2' ZEB d          36.720  51.935   7.919  0.00  0.00    -0.388 OA
ATOM     17  H8  ZEB d          37.514  51.505   8.214  0.00  0.00     0.210 HD
ENDBRANCH   2  16
BRANCH   4  18
ATOM     18  C5' ZEB d          34.254  51.551  11.827  0.00  0.00     0.198 C 
BRANCH  18  19
ATOM     19  O5' ZEB d          33.493  51.982  10.706  0.00  0.00    -0.398 OA
ATOM     20  H14 ZEB d          32.592  52.124  10.972  0.00  0.00     0.209 HD
ENDBRANCH  18  19
ENDBRANCH   4  18
BRANCH   3  21
ATOM     21  O3' ZEB d          37.411  52.653  10.373  0.00  0.00    -0.390 OA
ATOM     22  H10 ZEB d          37.671  53.293   9.720  0.00  0.00     0.210 HD
ENDBRANCH   3  21
TORSDOF 6
