REMARK  9 active torsions:
REMARK  status: ('A' for Active; 'I' for Inactive)
REMARK    1  A    between atoms: N_1  and  CA_2 
REMARK    2  A    between atoms: CA_2  and  CB_3 
REMARK    3  A    between atoms: CA_2  and  C_5 
REMARK    4  A    between atoms: CB_3  and  OG_4 
REMARK    5  A    between atoms: C3_11  and  O3_12 
REMARK    6  A    between atoms: C4_13  and  C4A_14 
REMARK    7  A    between atoms: C5_15  and  C5A_17 
REMARK    8  A    between atoms: C5A_17  and  O4P_18 
REMARK    9  A    between atoms: O4P_18  and  P_19 
ROOT
ATOM      1  N1  PLS d          27.129  13.464  14.820  0.00  0.00    -0.262 NA
ATOM      2  C2  PLS d          27.102  13.701  13.491  0.00  0.00     0.064 A 
ATOM      3  C2A PLS d          25.928  13.239  12.660  0.00  0.00     0.073 C 
ATOM      4  C3  PLS d          28.154  14.374  12.894  0.00  0.00     0.102 A 
ATOM      5  C4  PLS d          29.244  14.806  13.653  0.00  0.00     0.026 A 
ATOM      6  C5  PLS d          29.237  14.536  15.023  0.00  0.00    -0.002 A 
ATOM      7  C6  PLS d          28.160  13.857  15.586  0.00  0.00     0.127 A 
ENDROOT
BRANCH   5   8
ATOM      8  C4A PLS d          30.389  15.529  13.019  0.00  0.00     0.126 C 
ATOM      9  N   PLS d          30.401  15.795  11.778  0.00  0.00    -0.282 NA
BRANCH   9  10
ATOM     10  CA  PLS d          31.467  16.468  11.017  0.00  0.00     0.231 C 
BRANCH  10  11
ATOM     11  CB  PLS d          32.463  17.211  11.908  0.00  0.00     0.202 C 
BRANCH  11  12
ATOM     12  OG  PLS d          31.826  18.214  12.702  0.00  0.00    -0.398 OA
ATOM     13  H4  PLS d          31.174  17.807  13.260  0.00  0.00     0.209 HD
ENDBRANCH  11  12
ENDBRANCH  10  11
BRANCH  10  14
ATOM     14  C   PLS d          32.242  15.439  10.232  0.00  0.00     0.201 C 
ATOM     15  O   PLS d          32.184  14.243  10.586  0.00  0.00    -0.646 OA
ATOM     16  OXT PLS d          32.918  15.798   9.247  0.00  0.00    -0.646 OA
ENDBRANCH  10  14
ENDBRANCH   9  10
ENDBRANCH   5   8
BRANCH   4  17
ATOM     17  O3  PLS d          28.090  14.599  11.557  0.00  0.00    -0.358 OA
ATOM     18  H8  PLS d          28.869  15.066  11.278  0.00  0.00     0.217 HD
ENDBRANCH   4  17
BRANCH   6  19
ATOM     19  C5A PLS d          30.371  14.946  15.938  0.00  0.00     0.223 C 
BRANCH  19  20
ATOM     20  O4P PLS d          30.346  16.345  16.154  0.00  0.00    -0.278 OA
BRANCH  20  21
ATOM     21  P   PLS d          31.674  17.200  16.464  0.00  0.00     0.422 P 
ATOM     22  O1P PLS d          32.488  16.453  17.480  0.00  0.00    -0.617 OA
ATOM     23  O2P PLS d          32.334  17.387  15.127  0.00  0.00    -0.617 OA
ATOM     24  O3P PLS d          31.046  18.470  17.006  0.00  0.00    -0.617 OA
ENDBRANCH  20  21
ENDBRANCH  19  20
ENDBRANCH   6  19
TORSDOF 9
