REMARK  5 active torsions:
REMARK  status: ('A' for Active; 'I' for Inactive)
REMARK    1  A    between atoms: C7_7  and  C1_1 
REMARK    2  A    between atoms: C7_7  and  N1_8 
REMARK    3  A    between atoms: C8_12  and  C1'_13 
REMARK    4  A    between atoms: C5'_17  and  C1'_20 
REMARK    5  A    between atoms: C6'_18  and  O6'_19 
ROOT
ATOM      1  C1  MOL d           8.578   0.424  24.997  0.00  0.00     0.030 A 
ATOM      2  C2  MOL d           8.752   0.497  23.585  0.00  0.00     0.050 A 
ATOM      3  C3  MOL d           9.161   1.683  22.966  0.00  0.00     0.055 A 
ATOM      4  C4  MOL d           9.354   2.810  23.744  0.00  0.00     0.044 A 
ATOM      5  C5  MOL d           9.249   2.745  25.095  0.00  0.00    -0.006 A 
ATOM      6  C6  MOL d           8.864   1.583  25.758  0.00  0.00     0.030 A 
ATOM      7  N3  MOL d           9.793   4.011  23.425  0.00  0.00    -0.355 N 
ATOM      8  C9  MOL d           9.555   3.994  25.594  0.00  0.00     0.044 A 
ATOM      9  C8  MOL d           9.864   4.796  24.482  0.00  0.00     0.046 A 
ATOM     10 CL2  MOL d           8.361  -0.835  22.474  0.00  0.00    -0.083 Cl
ATOM     11  H7  MOL d          10.049   4.300  22.470  0.00  0.00     0.166 HD
ENDROOT
BRANCH   9  12
ATOM     12  C1' MOL d          10.215   6.185  24.468  0.00  0.00     0.025 A 
ATOM     13  C6' MOL d          10.708   6.837  23.302  0.00  0.00     0.089 A 
ATOM     14  C5' MOL d          11.027   8.222  23.330  0.00  0.00     0.008 A 
ATOM     15  C4' MOL d          10.823   8.952  24.511  0.00  0.00     0.015 A 
ATOM     16  C3' MOL d          10.331   8.332  25.642  0.00  0.00     0.002 A 
ATOM     17  C2' MOL d          10.022   6.965  25.626  0.00  0.00     0.016 A 
BRANCH  13  18
ATOM     18  O6' MOL d          10.878   6.134  22.125  0.00  0.00    -0.359 OA
ATOM     19  H12 MOL d          11.212   6.718  21.454  0.00  0.00     0.217 HD
ENDBRANCH  13  18
BRANCH  14  20
ATOM     20  C1' MOL d          11.613   8.928  22.261  0.00  0.00    -0.023 A 
ATOM     21  C6' MOL d          11.098  10.147  21.822  0.00  0.00     0.012 A 
ATOM     22  C5' MOL d          11.740  10.860  20.806  0.00  0.00     0.001 A 
ATOM     23  C4' MOL d          12.896  10.361  20.234  0.00  0.00     0.000 A 
ATOM     24  C3' MOL d          13.407   9.142  20.654  0.00  0.00     0.001 A 
ATOM     25  C2' MOL d          12.772   8.435  21.657  0.00  0.00     0.012 A 
ENDBRANCH  14  20
ENDBRANCH   9  12
BRANCH   1  26
ATOM     26  C7  MOL d           8.228  -0.794  25.641  0.00  0.00     0.104 C 
ATOM     27  N2  MOL d           8.613  -1.921  25.109  0.00  0.00    -0.385 N 
ATOM     28  H5  MOL d           9.167  -1.918  24.240  0.00  0.00     0.157 HD
ATOM     29  H6  MOL d           8.363  -2.814  25.558  0.00  0.00     0.157 HD
BRANCH  26  30
ATOM     30  N1  MOL d           7.521  -0.778  26.749  0.00  0.00    -0.385 N 
ATOM     31  H3  MOL d           7.270  -1.663  27.212  0.00  0.00     0.157 HD
ATOM     32  H4  MOL d           7.218   0.119  27.154  0.00  0.00     0.157 HD
ENDBRANCH  26  30
ENDBRANCH   1  26
TORSDOF 5
