2h5a_ligand

Created by X-TOOL on Fri Sep 26 17:34:32 2014
 23 23  0  0  0  0  0  0  0  0999 V2000
  -48.2460  -14.0200   16.3590  C 0  0  0  2  0  4
  -46.9950  -13.3260   16.4110  O 0  0  0  1  0  2
  -46.3920  -12.7730   17.8010  P 0  0  0  1  0  4
  -46.0910  -13.9640   18.6810  O 0  0  0  1  0  1
  -47.3990  -11.8500   18.4640  O 0  0  0  1  0  1
  -45.1440  -12.0070   17.4500  O 0  0  0  1  0  1
  -48.0590  -15.5440   16.2730  C 0  0  0  2  0  4
  -47.3920  -16.0550   17.4250  O 0  0  0  2  0  2
  -47.2970  -15.9240   14.9990  C 0  0  0  2  0  4
  -47.0740  -17.3330   14.9660  O 0  0  0  2  0  2
  -48.1030  -15.4140   13.7980  C 0  0  0  2  0  4
  -47.4240  -15.6170   12.5630  O 0  0  0  2  0  2
  -48.3440  -13.9090   13.9610  C 0  0  0  3  0  4
  -48.9850  -13.5800   15.2080  O 0  0  0  1  0  2
  -48.8167  -13.7847   17.2694  H 0  0  0  1  0  1
  -49.0564  -16.0055   16.2259  H 0  0  0  1  0  1
  -46.5357  -15.6504   17.4993  H 0  0  0  1  0  1
  -46.3179  -15.4227   15.0010  H 0  0  0  1  0  1
  -46.5631  -17.5895   15.7248  H 0  0  0  1  0  1
  -49.0671  -15.9427   13.7680  H 0  0  0  1  0  1
  -47.9591  -15.2870   11.8507  H 0  0  0  1  0  1
  -48.9832  -13.5636   13.1351  H 0  0  0  1  0  1
  -47.3748  -13.3906   13.9162  H 0  0  0  1  0  1
  1  2  1  0  0  2
  1  7  1  0  0  1
  1 14  1  0  0  1
  2  3  1  0  0  2
  3  4  2  0  0  2
  3  5  2  0  0  2
  3  6  2  0  0  2
  7  8  1  0  0  2
  7  9  1  0  0  1
  9 10  1  0  0  2
  9 11  1  0  0  1
 11 12  1  0  0  2
 11 13  1  0  0  1
 13 14  1  0  0  1
  1 15  1  0  0  2
  7 16  1  0  0  2
  8 17  1  0  0  2
  9 18  1  0  0  2
 10 19  1  0  0  2
 11 20  1  0  0  2
 12 21  1  0  0  2
 13 22  1  0  0  2
 13 23  1  0  0  2
M  END
> <MOLECULAR_FORMULA>
C5H9O8P

> <MOLECULAR_WEIGHT>
228.0

> <NUM_HB_ATOMS>
8  

> <NUM_ROTOR>
1  

> <XLOGP2>
-2.66

$$$$
