REMARK  3 active torsions:
REMARK  status: ('A' for Active; 'I' for Inactive)
REMARK    1  A    between atoms: C_1  and  N_2 
REMARK    2  A    between atoms: S_4  and  N1_6 
REMARK    3  A    between atoms: C3_10  and  S_4 
ROOT
ATOM      1  O   VJP d          53.514  40.048  67.384  0.00  0.00    -0.200 OA
ATOM      2  S   VJP d          53.298  39.695  66.015  0.00  0.00     0.267 S 
ATOM      3  O1  VJP d          52.568  38.508  65.693  0.00  0.00    -0.200 OA
ENDROOT
BRANCH   2   4
ATOM      4  N1  VJP d          52.490  41.021  65.343  0.00  0.00    -0.241 N 
ATOM      5  C6  VJP d          51.835  42.040  66.209  0.00  0.00     0.145 C 
ATOM      6  C7  VJP d          51.986  43.438  65.660  0.00  0.00     0.022 C 
ATOM      7  C8  VJP d          51.321  43.564  64.309  0.00  0.00     0.011 C 
ATOM      8  C9  VJP d          51.775  42.484  63.347  0.00  0.00     0.104 C 
ATOM      9  C10 VJP d          52.329  41.224  63.966  0.00  0.00     0.233 C 
ATOM     10  O2  VJP d          52.650  40.295  63.250  0.00  0.00    -0.272 OA
ENDBRANCH   2   4
BRANCH   2  11
ATOM     11  C3  VJP d          54.882  39.577  65.247  0.00  0.00     0.080 A 
ATOM     12  C2  VJP d          55.949  40.304  65.757  0.00  0.00     0.027 A 
ATOM     13  C1  VJP d          57.189  40.217  65.145  0.00  0.00     0.030 A 
ATOM     14  C   VJP d          57.384  39.392  64.029  0.00  0.00     0.025 A 
ATOM     15  C5  VJP d          56.296  38.654  63.550  0.00  0.00     0.030 A 
ATOM     16  C4  VJP d          55.063  38.717  64.171  0.00  0.00     0.027 A 
BRANCH  14  17
ATOM     17  N   VJP d          58.599  39.293  63.442  0.00  0.00    -0.399 N 
ATOM     18  H1  VJP d          59.392  39.842  63.804  0.00  0.00     0.156 HD
ATOM     19  H2  VJP d          58.731  38.669  62.633  0.00  0.00     0.156 HD
ENDBRANCH  14  17
ENDBRANCH   2  11
TORSDOF 3
