REMARK  7 active torsions:
REMARK  status: ('A' for Active; 'I' for Inactive)
REMARK    1  A    between atoms: N14_16  and  C10_5 
REMARK    2  A    between atoms: C5_7  and  S4_21 
REMARK    3  A    between atoms: C3_12  and  C2_9 
REMARK    4  A    between atoms: C17_13  and  C15_10 
REMARK       I    between atoms: C15_10  and  N14_16 
REMARK    5  A    between atoms: C18_14  and  C19_11 
REMARK    6  A    between atoms: S4_21  and  C3_12 
REMARK    7  A    between atoms: C17_13  and  C18_14 
ROOT
ATOM      1  C8  VAB d          21.777  -5.496   1.050  0.00  0.00     0.035 A 
ATOM      2  C9  VAB d          20.489  -5.550   1.565  0.00  0.00     0.032 A 
ATOM      3  C11 VAB d          19.770  -6.882  -0.327  0.00  0.00     0.051 A 
ATOM      4  C7  VAB d          22.078  -6.134  -0.154  0.00  0.00     0.076 A 
ATOM      5  C10 VAB d          19.480  -6.233   0.888  0.00  0.00     0.036 A 
ATOM      6  C12 VAB d          21.062  -6.823  -0.820  0.00  0.00     0.038 A 
ATOM      7  C5  VAB d          23.251  -6.832  -1.873  0.00  0.00     0.136 A 
ATOM      8  N6  VAB d          23.321  -6.162  -0.780  0.00  0.00    -0.233 NA
ATOM      9  S13 VAB d          21.692  -7.517  -2.281  0.00  0.00    -0.061 SA
ENDROOT
BRANCH   5  10
ATOM     10  N14 VAB d          18.169  -6.260   1.456  0.00  0.00    -0.327 N 
ATOM     11  C15 VAB d          17.236  -7.247   1.308  0.00  0.00     0.222 C 
ATOM     12  O16 VAB d          17.525  -8.413   0.983  0.00  0.00    -0.273 OA
ATOM     13  H13 VAB d          17.908  -5.476   2.019  0.00  0.00     0.169 HD
BRANCH  11  14
ATOM     14  C17 VAB d          15.826  -6.818   1.564  0.00  0.00     0.113 C 
BRANCH  14  15
ATOM     15  C18 VAB d          15.208  -7.571   2.744  0.00  0.00     0.122 C 
BRANCH  15  16
ATOM     16  C19 VAB d          13.782  -7.996   2.565  0.00  0.00     0.172 C 
ATOM     17  O20 VAB d          13.047  -7.568   1.679  0.00  0.00    -0.648 OA
ATOM     18  O21 VAB d          13.388  -8.858   3.465  0.00  0.00    -0.648 OA
ENDBRANCH  15  16
ENDBRANCH  14  15
ENDBRANCH  11  14
ENDBRANCH   5  10
BRANCH   7  19
ATOM     19  S4  VAB d          24.638  -7.082  -2.902  0.00  0.00    -0.099 SA
BRANCH  19  20
ATOM     20  C3  VAB d          23.950  -7.687  -4.492  0.00  0.00     0.107 C 
BRANCH  20  21
ATOM     21  C2  VAB d          23.917  -6.653  -5.583  0.00  0.00    -0.026 C 
ATOM     22  C1  VAB d          24.066  -6.922  -6.816  0.00  0.00     0.007 C 
ENDBRANCH  20  21
ENDBRANCH  19  20
ENDBRANCH   7  19
TORSDOF 7
