REMARK  4 active torsions:
REMARK  status: ('A' for Active; 'I' for Inactive)
REMARK    1  A    between atoms: N1_15  and  C1_1 
REMARK    2  A    between atoms: C2_2  and  C_13 
REMARK    3  A    between atoms: N1'_16  and  C1'_7 
REMARK    4  A    between atoms: C4'_10  and  O4'_19 
ROOT
ATOM      1  N1  MHB d          33.045  13.266  -6.389  0.00  0.00    -0.149 NA
ATOM      2  N1' MHB d          32.154  13.014  -7.274  0.00  0.00    -0.150 NA
ENDROOT
BRANCH   1   3
ATOM      3  C1  MHB d          33.351  12.183  -5.443  0.00  0.00     0.096 A 
ATOM      4  C6  MHB d          32.358  11.207  -5.181  0.00  0.00     0.034 A 
ATOM      5  C5  MHB d          32.630  10.187  -4.264  0.00  0.00     0.002 A 
ATOM      6  C4  MHB d          33.879  10.144  -3.630  0.00  0.00     0.001 A 
ATOM      7  C3  MHB d          34.866  11.085  -3.901  0.00  0.00     0.021 A 
ATOM      8  C2  MHB d          34.589  12.105  -4.828  0.00  0.00     0.071 A 
BRANCH   8   9
ATOM      9  C   MHB d          35.659  13.182  -5.041  0.00  0.00     0.211 C 
ATOM     10  OXT MHB d          36.822  13.041  -4.215  0.00  0.00    -0.644 OA
ATOM     11  O   MHB d          35.496  14.161  -5.747  0.00  0.00    -0.644 OA
ENDBRANCH   8   9
ENDBRANCH   1   3
BRANCH   2  12
ATOM     12  C1' MHB d          31.740  14.165  -8.099  0.00  0.00     0.079 A 
ATOM     13  C6' MHB d          30.550  14.010  -8.775  0.00  0.00     0.036 A 
ATOM     14  C5' MHB d          30.022  15.204  -9.659  0.00  0.00     0.039 A 
ATOM     15  C4' MHB d          30.862  16.298  -9.643  0.00  0.00     0.071 A 
ATOM     16  C3' MHB d          32.055  16.422  -8.924  0.00  0.00    -0.027 A 
ATOM     17  C2' MHB d          32.478  15.351  -8.145  0.00  0.00     0.043 A 
ATOM     18  CM3 MHB d          32.848  17.728  -8.948  0.00  0.00     0.051 C 
BRANCH  15  19
ATOM     19  O4' MHB d          30.418  17.468 -10.476  0.00  0.00    -0.360 OA
ATOM     20  H11 MHB d          29.600  17.255 -10.909  0.00  0.00     0.217 HD
ENDBRANCH  15  19
ENDBRANCH   2  12
TORSDOF 4
