REMARK  7 active torsions:
REMARK  status: ('A' for Active; 'I' for Inactive)
REMARK    1  A    between atoms: C15_12  and  O21_13 
REMARK    2  A    between atoms: C1_23  and  C5_24 
REMARK    3  A    between atoms: C1_23  and  O4_28 
REMARK    4  A    between atoms: C5_24  and  O13_25 
REMARK    5  A    between atoms: C5_24  and  C12_26 
REMARK    6  A    between atoms: O4_28  and  C11_29 
REMARK    7  A    between atoms: C11_29  and  C16_31 
ROOT
ATOM      1  fur MOF d          27.781 -56.162 -42.115  0.00  0.00    -0.289 OA
ATOM      2  C34 MOF d          27.311 -55.135 -41.582  0.00  0.00     0.172 A 
ATOM      3  C33 MOF d          28.043 -53.949 -41.580  0.00  0.00     0.052 A 
ATOM      4  C32 MOF d          26.144 -55.253 -40.853  0.00  0.00     0.058 A 
ATOM      5  C29 MOF d          25.611 -54.160 -40.202  0.00  0.00    -0.062 A 
ATOM      6  C26 MOF d          24.332 -54.351 -39.415  0.00  0.00     0.036 C 
ATOM      7  C24 MOF d          26.303 -52.824 -40.180  0.00  0.00     0.022 A 
ATOM      8  C30 MOF d          27.568 -52.830 -40.910  0.00  0.00    -0.007 A 
ATOM      9  C31 MOF d          25.355 -51.868 -40.925  0.00  0.00     0.027 C 
ATOM     10  C19 MOF d          26.612 -52.551 -38.689  0.00  0.00     0.081 C 
ATOM     11 CL25 MOF d          27.644 -53.909 -38.068  0.00  0.00    -0.115 Cl
ATOM     12  C15 MOF d          27.515 -51.333 -38.414  0.00  0.00     0.144 C 
ATOM     13  C14 MOF d          25.297 -52.564 -37.877  0.00  0.00     0.018 C 
ATOM     14  C20 MOF d          24.577 -53.906 -37.978  0.00  0.00     0.011 C 
ATOM     15  C6  MOF d          25.596 -52.306 -36.406  0.00  0.00     0.003 C 
ATOM     16  C9  MOF d          24.449 -52.313 -35.407  0.00  0.00     0.013 C 
ATOM     17  C3  MOF d          25.053 -51.595 -34.205  0.00  0.00     0.020 C 
ATOM     18  C10 MOF d          24.804 -52.506 -33.007  0.00  0.00     0.013 C 
ATOM     19  C2  MOF d          26.347 -51.012 -36.142  0.00  0.00    -0.003 C 
ATOM     20  C7  MOF d          27.671 -51.057 -36.917  0.00  0.00     0.046 C 
ATOM     21  C8  MOF d          25.532 -49.741 -36.460  0.00  0.00     0.019 C 
ATOM     22  C1  MOF d          26.490 -51.155 -34.620  0.00  0.00     0.109 C 
ENDROOT
BRANCH  22  23
ATOM     23  C5  MOF d          26.971 -49.835 -34.045  0.00  0.00     0.168 C 
BRANCH  23  24
ATOM     24  O13 MOF d          26.096 -49.030 -33.468  0.00  0.00    -0.391 OA
ATOM     25  H   MOF d          26.541 -48.250 -33.159  0.00  0.00     0.210 HD
ENDBRANCH  23  24
BRANCH  23  26
ATOM     26  C12 MOF d          28.395 -49.315 -34.074  0.00  0.00     0.149 C 
ATOM     27 CL18 MOF d          28.519 -47.556 -34.642  0.00  0.00    -0.128 Cl
ENDBRANCH  23  26
ENDBRANCH  22  23
BRANCH  22  28
ATOM     28  O4  MOF d          27.472 -52.192 -34.378  0.00  0.00    -0.301 OA
BRANCH  28  29
ATOM     29  C11 MOF d          28.214 -52.577 -33.161  0.00  0.00     0.318 C 
ATOM     30  O17 MOF d          28.242 -51.933 -32.112  0.00  0.00    -0.257 OA
BRANCH  29  31
ATOM     31  C16 MOF d          28.981 -53.821 -33.168  0.00  0.00     0.149 A 
ATOM     32  C22 MOF d          29.208 -54.770 -34.122  0.00  0.00     0.045 A 
ATOM     33  C27 MOF d          30.029 -55.674 -33.490  0.00  0.00     0.027 A 
ATOM     34  C28 MOF d          30.251 -55.258 -32.195  0.00  0.00     0.143 A 
ATOM     35  O23 MOF d          29.594 -54.078 -31.987  0.00  0.00    -0.317 OA
ENDBRANCH  29  31
ENDBRANCH  28  29
ENDBRANCH  22  28
BRANCH  12  36
ATOM     36  O21 MOF d          27.119 -50.131 -39.086  0.00  0.00    -0.394 OA
ATOM     37  H   MOF d          27.723 -49.432 -38.865  0.00  0.00     0.210 HD
ENDBRANCH  12  36
TORSDOF 7
