REMARK  9 active torsions:
REMARK  status: ('A' for Active; 'I' for Inactive)
REMARK    1  A    between atoms: N_1  and  CA_2 
REMARK    2  A    between atoms: CA_2  and  C_3 
REMARK    3  A    between atoms: CA_2  and  CB_5 
REMARK       I    between atoms: C_3  and  N_9 
REMARK    4  A    between atoms: CB_5  and  CG_6 
REMARK    5  A    between atoms: CG_6  and  SD_7 
REMARK    6  A    between atoms: N_9  and  CA_10 
REMARK    7  A    between atoms: CA_10  and  C_11 
REMARK    8  A    between atoms: CA_10  and  CB_13 
REMARK    9  A    between atoms: CB_13  and  CG_14 
ROOT
ATOM      1  C   MET d          12.250  -6.447  11.412  0.00  0.00     0.249 C 
ATOM      2  O   MET d          12.530  -7.234  10.510  0.00  0.00    -0.271 OA
ATOM      3  N   MET d          11.133  -5.736  11.428  0.00  0.00    -0.345 N 
ATOM      4  H12 MET d          10.912  -5.193  12.238  0.00  0.00     0.163 HD
ENDROOT
BRANCH   1   5
ATOM      5  CA  MET d          13.197  -6.217  12.575  0.00  0.00     0.275 C 
BRANCH   5   6
ATOM      6  N   MET d          13.789  -7.453  13.075  0.00  0.00    -0.066 N 
ATOM      7  H1  MET d          14.407  -7.243  13.843  0.00  0.00     0.275 HD
ATOM      8  H2  MET d          14.311  -7.898  12.337  0.00  0.00     0.275 HD
ATOM      9  H3  MET d          13.059  -8.072  13.391  0.00  0.00     0.275 HD
ENDBRANCH   5   6
BRANCH   5  10
ATOM     10  CB  MET d          14.292  -5.245  12.129  0.00  0.00     0.053 C 
BRANCH  10  11
ATOM     11  CG  MET d          14.840  -4.414  13.273  0.00  0.00     0.076 C 
BRANCH  11  12
ATOM     12  SD  MET d          16.423  -3.613  12.895  0.00  0.00    -0.173 SA
ATOM     13  CE  MET d          16.353  -3.472  11.113  0.00  0.00     0.089 C 
ENDBRANCH  11  12
ENDBRANCH  10  11
ENDBRANCH   5  10
ENDBRANCH   1   5
BRANCH   3  14
ATOM     14  CA  MET d          10.222  -5.726  10.300  0.00  0.00     0.185 C 
BRANCH  14  15
ATOM     15  C   MET d          10.840  -4.840   9.232  0.00  0.00     0.196 C 
ATOM     16  O   MET d          11.503  -3.853   9.575  0.00  0.00    -0.646 OA
ATOM     17  OXT MET d          10.695  -5.072   8.022  0.00  0.00    -0.646 OA
ENDBRANCH  14  15
BRANCH  14  18
ATOM     18  CB  MET d           8.877  -5.144  10.728  0.00  0.00     0.040 C 
BRANCH  18  19
ATOM     19  CG  MET d           7.725  -6.053  11.157  0.00  0.00    -0.020 C 
ATOM     20  CD1 MET d           8.213  -7.362  11.729  0.00  0.00     0.009 C 
ATOM     21  CD2 MET d           6.795  -5.316  12.127  0.00  0.00     0.009 C 
ENDBRANCH  18  19
ENDBRANCH  14  18
ENDBRANCH   3  14
TORSDOF 9
