REMARK  7 active torsions:
REMARK  status: ('A' for Active; 'I' for Inactive)
REMARK    1  A    between atoms: CBD_7  and  CAW_8 
REMARK    2  A    between atoms: CAW_8  and  CAZ_10 
REMARK    3  A    between atoms: CAY_11  and  OAF_12 
REMARK    4  A    between atoms: NBJ_15  and  CBF_16 
REMARK    5  A    between atoms: CBB_19  and  CAS_20 
REMARK    6  A    between atoms: CAS_20  and  CAV_21 
REMARK    7  A    between atoms: CBI_26  and  CBE_27 
ROOT
ATOM      1  CAZ MOL d           3.446  20.647   1.365  0.00  0.00     0.058 A 
ATOM      2  CAY MOL d           3.189  19.284   1.175  0.00  0.00     0.133 A 
ATOM      3  CAX MOL d           1.984  19.210   0.505  0.00  0.00     0.216 A 
ATOM      4  OAD MOL d           1.364  18.033   0.120  0.00  0.00    -0.169 OA
ATOM      5  NBJ MOL d           1.537  20.458   0.302  0.00  0.00    -0.309 N 
ATOM      6  CBI MOL d           2.374  21.363   0.837  0.00  0.00     0.165 A 
ENDROOT
BRANCH   5   7
ATOM      7  CBF MOL d           0.341  20.786  -0.493  0.00  0.00     0.037 A 
ATOM      8  CAM MOL d           0.416  21.745  -1.514  0.00  0.00     0.030 A 
ATOM      9  CAK MOL d          -0.727  22.044  -2.262  0.00  0.00     0.010 A 
ATOM     10  CBB MOL d          -1.933  21.375  -1.975  0.00  0.00    -0.048 A 
ATOM     11  CAL MOL d          -2.009  20.422  -0.978  0.00  0.00     0.010 A 
ATOM     12  CAN MOL d          -0.864  20.129  -0.215  0.00  0.00     0.030 A 
BRANCH  10  13
ATOM     13  CAS MOL d          -3.174  21.661  -2.762  0.00  0.00     0.151 C 
BRANCH  13  14
ATOM     14  CAV MOL d          -3.755  20.466  -3.387  0.00  0.00     0.176 C 
ATOM     15  OAE MOL d          -4.827  19.995  -2.949  0.00  0.00    -0.648 OA
ATOM     16  OAB MOL d          -3.158  19.912  -4.347  0.00  0.00    -0.648 OA
ENDBRANCH  13  14
ENDBRANCH  10  13
ENDBRANCH   5   7
BRANCH   6  17
ATOM     17  CBE MOL d           1.772  22.357   1.788  0.00  0.00    -0.026 A 
ATOM     18  CAQ MOL d           1.168  21.811   2.925  0.00  0.00     0.049 A 
ATOM     19  CBG MOL d           0.599  22.646   3.858  0.00  0.00     0.107 A 
ATOM     20  OAT MOL d          -0.056  22.437   5.040  0.00  0.00    -0.323 OA
ATOM     21  CBH MOL d           0.636  24.036   3.663  0.00  0.00     0.126 A 
ATOM     22  CAR MOL d          -0.395  23.622   5.552  0.00  0.00     0.352 A 
ATOM     23  OAU MOL d           0.004  24.594   4.742  0.00  0.00    -0.321 OA
ATOM     24  CBC MOL d           1.241  24.585   2.546  0.00  0.00     0.070 A 
ATOM     25 CLA  MOL d           1.261  26.299   2.368  0.00  0.00    -0.081 Cl
ATOM     26  CAP MOL d           1.820  23.730   1.587  0.00  0.00     0.036 A 
ENDBRANCH   6  17
BRANCH   2  27
ATOM     27  OAF MOL d           3.985  18.171   1.577  0.00  0.00    -0.356 OA
ATOM     28  H8  MOL d           4.839  18.228   1.164  0.00  0.00     0.218 HD
ENDBRANCH   2  27
BRANCH   1  29
ATOM     29  CAW MOL d           4.697  21.320   1.897  0.00  0.00     0.193 C 
ATOM     30  OAC MOL d           4.909  22.474   1.513  0.00  0.00    -0.287 OA
BRANCH  29  31
ATOM     31  CBD MOL d           5.645  20.673   2.865  0.00  0.00     0.015 A 
ATOM     32  CAO MOL d           6.990  21.004   2.797  0.00  0.00     0.022 A 
ATOM     33  CBA MOL d           7.893  20.445   3.674  0.00  0.00    -0.061 A 
ATOM     34  CAA MOL d           9.349  20.818   3.564  0.00  0.00     0.048 C 
ATOM     35  CAI MOL d           7.452  19.558   4.637  0.00  0.00     0.007 A 
ATOM     36  CAH MOL d           6.100  19.230   4.716  0.00  0.00     0.002 A 
ATOM     37  CAJ MOL d           5.201  19.802   3.835  0.00  0.00     0.015 A 
ENDBRANCH  29  31
ENDBRANCH   1  29
TORSDOF 7
