REMARK  5 active torsions:
REMARK  status: ('A' for Active; 'I' for Inactive)
REMARK    1  A    between atoms: C1_15  and  N9_1 
REMARK    2  A    between atoms: C5_11  and  O5_12 
REMARK    3  A    between atoms: C4_13  and  C5_11 
REMARK    4  A    between atoms: C2_16  and  O2_17 
REMARK    5  A    between atoms: C3_18  and  O3_19 
ROOT
ATOM      1  C4  NOS d          32.337  60.363  13.037  0.00  0.00     0.179 C 
ATOM      2  O4  NOS d          32.264  60.465  11.603  0.00  0.00    -0.353 OA
ATOM      3  C1  NOS d          33.581  60.246  11.059  0.00  0.00     0.262 C 
ATOM      4  C2  NOS d          34.509  59.953  12.243  0.00  0.00     0.198 C 
ATOM      5  C3  NOS d          33.793  60.699  13.367  0.00  0.00     0.182 C 
ENDROOT
BRANCH   3   6
ATOM      6  N9  NOS d          33.977  61.489  10.345  0.00  0.00    -0.294 N 
ATOM      7  C4  NOS d          34.728  61.534   9.243  0.00  0.00     0.169 A 
ATOM      8  N3  NOS d          35.352  60.558   8.564  0.00  0.00    -0.223 NA
ATOM      9  C5  NOS d          34.797  62.863   8.839  0.00  0.00     0.172 A 
ATOM     10  C2  NOS d          36.058  60.816   7.474  0.00  0.00     0.212 A 
ATOM     11  N1  NOS d          36.166  62.133   7.005  0.00  0.00    -0.316 N 
ATOM     12  C6  NOS d          35.530  63.176   7.697  0.00  0.00     0.279 A 
ATOM     13  H2  NOS d          36.695  62.329   6.179  0.00  0.00     0.170 HD
ATOM     14  O6  NOS d          35.630  64.338   7.300  0.00  0.00    -0.265 OA
ATOM     15  N7  NOS d          34.085  63.574   9.713  0.00  0.00    -0.234 NA
ATOM     16  C8  NOS d          33.596  62.735  10.626  0.00  0.00     0.214 A 
ENDBRANCH   3   6
BRANCH   4  17
ATOM     17  O2  NOS d          34.530  58.540  12.479  0.00  0.00    -0.388 OA
ATOM     18  H10 NOS d          35.104  58.351  13.212  0.00  0.00     0.210 HD
ENDBRANCH   4  17
BRANCH   1  19
ATOM     19  C5  NOS d          31.341  61.363  13.636  0.00  0.00     0.198 C 
BRANCH  19  20
ATOM     20  O5  NOS d          31.638  62.705  13.234  0.00  0.00    -0.398 OA
ATOM     21  H6  NOS d          31.595  62.768  12.287  0.00  0.00     0.209 HD
ENDBRANCH  19  20
ENDBRANCH   1  19
BRANCH   5  22
ATOM     22  O3  NOS d          34.172  60.097  14.608  0.00  0.00    -0.390 OA
ATOM     23  H12 NOS d          33.916  59.182  14.606  0.00  0.00     0.210 HD
ENDBRANCH   5  22
TORSDOF 5
