REMARK  6 active torsions:
REMARK  status: ('A' for Active; 'I' for Inactive)
REMARK    1  A    between atoms: C6_3  and  N01_2 
REMARK    2  A    between atoms: N9_10  and  C1'_11 
REMARK    3  A    between atoms: C2'_12  and  O2'_13 
REMARK    4  A    between atoms: C22_22  and  O23_23 
REMARK    5  A    between atoms: C32_32  and  N33_33 
REMARK    6  A    between atoms: C40_40  and  N41_41 
ROOT
ATOM      1  C1' 1SY d          50.682   5.019 -18.928  0.00  0.00     0.262 C 
ATOM      2  C2' 1SY d          50.380   4.522 -17.603  0.00  0.00     0.199 C 
ATOM      3  C3' 1SY d          49.138   3.764 -17.764  0.00  0.00     0.198 C 
ATOM      4  C4' 1SY d          49.370   3.094 -19.052  0.00  0.00     0.180 C 
ATOM      5  C16 1SY d          48.077   2.813 -19.760  0.00  0.00     0.216 C 
ATOM      6  O17 1SY d          47.351   4.005 -19.842  0.00  0.00    -0.287 OA
ATOM      7  P18 1SY d          45.831   3.976 -20.336  0.00  0.00     0.408 P 
ATOM      8  O19 1SY d          45.210   5.359 -20.429  0.00  0.00    -0.624 OA
ATOM      9  O20 1SY d          44.941   3.030 -19.356  0.00  0.00    -0.277 OA
ATOM     10  C21 1SY d          45.238   3.102 -17.973  0.00  0.00     0.215 C 
ATOM     11  C22 1SY d          45.225   1.757 -17.318  0.00  0.00     0.183 C 
ATOM     12  C24 1SY d          44.873   2.031 -15.933  0.00  0.00     0.180 C 
ATOM     13  C25 1SY d          46.069   2.169 -15.026  0.00  0.00     0.216 C 
ATOM     14  O26 1SY d          46.821   3.329 -15.275  0.00  0.00    -0.287 OA
ATOM     15  P27 1SY d          48.421   3.298 -15.237  0.00  0.00     0.408 P 
ATOM     16  O28 1SY d          49.055   2.793 -16.676  0.00  0.00    -0.279 OA
ATOM     17  O29 1SY d          48.935   4.647 -14.857  0.00  0.00    -0.624 OA
ATOM     18  O30 1SY d          48.867   2.315 -14.223  0.00  0.00    -0.624 OA
ATOM     19  O31 1SY d          44.051   3.225 -15.940  0.00  0.00    -0.353 OA
ATOM     20  C32 1SY d          44.157   3.838 -17.254  0.00  0.00     0.263 C 
ATOM     21  O44 1SY d          45.826   3.332 -21.655  0.00  0.00    -0.624 OA
ATOM     22  O4' 1SY d          50.154   4.044 -19.820  0.00  0.00    -0.353 OA
ENDROOT
BRANCH  20  23
ATOM     23  N33 1SY d          44.435   5.171 -17.082  0.00  0.00    -0.295 N 
ATOM     24  C34 1SY d          45.479   5.722 -16.498  0.00  0.00     0.214 A 
ATOM     25  N35 1SY d          45.348   7.054 -16.528  0.00  0.00    -0.234 NA
ATOM     26  C37 1SY d          44.175   7.370 -17.126  0.00  0.00     0.171 A 
ATOM     27  C36 1SY d          43.590   6.164 -17.482  0.00  0.00     0.161 A 
ATOM     28  C38 1SY d          43.486   8.666 -17.444  0.00  0.00     0.292 A 
ATOM     29  N42 1SY d          42.319   6.133 -18.156  0.00  0.00    -0.174 N 
ATOM     30  C40 1SY d          41.638   7.385 -18.456  0.00  0.00     0.680 A 
ATOM     31  H23 1SY d          41.895   5.234 -18.424  0.00  0.00     0.186 HD
ATOM     32  N39 1SY d          42.231   8.640 -18.103  0.00  0.00    -0.154 N 
ATOM     33  H20 1SY d          41.761   9.495 -18.321  0.00  0.00     0.187 HD
ATOM     34  O43 1SY d          44.002   9.763 -17.139  0.00  0.00    -0.265 OA
BRANCH  30  35
ATOM     35  N41 1SY d          40.375   7.354 -19.117  0.00  0.00    -0.234 N 
ATOM     36  H21 1SY d          39.949   6.451 -19.371  0.00  0.00     0.174 HD
ATOM     37  H22 1SY d          39.889   8.234 -19.341  0.00  0.00     0.174 HD
ENDBRANCH  30  35
ENDBRANCH  20  23
BRANCH  11  38
ATOM     38  O23 1SY d          44.203   0.940 -17.865  0.00  0.00    -0.390 OA
ATOM     39  H14 1SY d          44.354   0.826 -18.796  0.00  0.00     0.210 HD
ENDBRANCH  11  38
BRANCH   2  40
ATOM     40  O2' 1SY d          51.440   3.630 -17.229  0.00  0.00    -0.388 OA
ATOM     41  H7  1SY d          51.270   3.285 -16.360  0.00  0.00     0.210 HD
ENDBRANCH   2  40
BRANCH   1  42
ATOM     42  N9  1SY d          50.021   6.278 -19.141  0.00  0.00    -0.294 N 
ATOM     43  C4  1SY d          50.707   7.322 -18.571  0.00  0.00     0.167 A 
ATOM     44  N3  1SY d          51.861   7.466 -17.865  0.00  0.00    -0.222 NA
ATOM     45  C5  1SY d          49.932   8.463 -18.884  0.00  0.00     0.149 A 
ATOM     46  C2  1SY d          52.285   8.645 -17.445  0.00  0.00     0.237 A 
ATOM     47  N1  1SY d          51.572   9.746 -17.722  0.00  0.00    -0.222 NA
ATOM     48  C6  1SY d          50.424   9.721 -18.417  0.00  0.00     0.155 A 
ATOM     49  N7  1SY d          48.846   8.028 -19.599  0.00  0.00    -0.236 NA
ATOM     50  C8  1SY d          48.904   6.680 -19.752  0.00  0.00     0.214 A 
BRANCH  48  51
ATOM     51  N01 1SY d          49.671  10.964 -18.686  0.00  0.00    -0.382 N 
ATOM     52  H2  1SY d          48.792  10.928 -19.221  0.00  0.00     0.157 HD
ATOM     53  H3  1SY d          50.026  11.866 -18.338  0.00  0.00     0.157 HD
ENDBRANCH  48  51
ENDBRANCH   1  42
TORSDOF 6
