REMARK  3 active torsions:
REMARK  status: ('A' for Active; 'I' for Inactive)
REMARK    1  A    between atoms: C2'_10  and  O2'_11 
REMARK    2  A    between atoms: C1'_12  and  N9_13 
REMARK    3  A    between atoms: C6_17  and  N6_18 
ROOT
ATOM      1  P   CMP d          31.100  19.097  47.138  0.00  0.00     0.408 P 
ATOM      2  O1P CMP d          31.797  19.440  45.847  0.00  0.00    -0.624 OA
ATOM      3  O2P CMP d          31.510  19.815  48.417  0.00  0.00    -0.624 OA
ATOM      4  O5' CMP d          31.185  17.519  47.401  0.00  0.00    -0.287 OA
ATOM      5  C5' CMP d          30.236  16.894  48.286  0.00  0.00     0.216 C 
ATOM      6  C4' CMP d          28.849  17.250  47.774  0.00  0.00     0.180 C 
ATOM      7  O4' CMP d          27.733  16.806  48.534  0.00  0.00    -0.353 OA
ATOM      8  C3' CMP d          28.621  18.750  47.764  0.00  0.00     0.198 C 
ATOM      9  O3' CMP d          29.540  19.378  46.874  0.00  0.00    -0.279 OA
ATOM     10  C2' CMP d          27.140  18.842  47.467  0.00  0.00     0.199 C 
ATOM     11  C1' CMP d          26.640  17.698  48.321  0.00  0.00     0.262 C 
ENDROOT
BRANCH  11  12
ATOM     12  N9  CMP d          26.134  18.289  49.571  0.00  0.00    -0.294 N 
ATOM     13  C8  CMP d          26.762  18.263  50.790  0.00  0.00     0.214 A 
ATOM     14  N7  CMP d          26.029  18.910  51.702  0.00  0.00    -0.236 NA
ATOM     15  C5  CMP d          24.917  19.392  51.058  0.00  0.00     0.149 A 
ATOM     16  C6  CMP d          23.723  20.168  51.444  0.00  0.00     0.155 A 
ATOM     17  C4  CMP d          25.010  18.979  49.656  0.00  0.00     0.167 A 
ATOM     18  N1  CMP d          22.822  20.413  50.468  0.00  0.00    -0.222 NA
ATOM     19  C2  CMP d          22.961  20.000  49.197  0.00  0.00     0.237 A 
ATOM     20  N3  CMP d          24.028  19.300  48.784  0.00  0.00    -0.222 NA
BRANCH  16  21
ATOM     21  N6  CMP d          23.530  20.620  52.742  0.00  0.00    -0.382 N 
ATOM     22  H9  CMP d          22.685  21.160  52.979  0.00  0.00     0.157 HD
ATOM     23  H10 CMP d          24.232  20.416  53.468  0.00  0.00     0.157 HD
ENDBRANCH  16  21
ENDBRANCH  11  12
BRANCH  10  24
ATOM     24  O2' CMP d          26.817  18.481  46.124  0.00  0.00    -0.388 OA
ATOM     25  H6  CMP d          27.269  19.062  45.524  0.00  0.00     0.210 HD
ENDBRANCH  10  24
TORSDOF 3
