REMARK  5 active torsions:
REMARK  status: ('A' for Active; 'I' for Inactive)
REMARK    1  A    between atoms: C8_16  and  C01_1 
REMARK    2  A    between atoms: C1_3  and  C7_15 
REMARK    3  A    between atoms: S1_6  and  N1_4 
REMARK    4  A    between atoms: N1_4  and  C2_7 
REMARK    5  A    between atoms: S1_6  and  C8_16 
ROOT
ATOM      1  C1  MOL d          78.976   5.833  28.007  0.00  0.00     0.068 A 
ATOM      2  C2  MOL d          79.027   5.994  29.389  0.00  0.00     0.059 A 
ATOM      3  C3  MOL d          79.054   7.269  29.911  0.00  0.00     0.031 A 
ATOM      4  C4  MOL d          79.027   8.356  29.089  0.00  0.00     0.002 A 
ATOM      5  C5  MOL d          78.968   8.209  27.720  0.00  0.00     0.001 A 
ATOM      6  C6  MOL d          78.946   6.956  27.197  0.00  0.00     0.021 A 
ENDROOT
BRANCH   2   7
ATOM      7  N1  MOL d          79.073   4.818  30.147  0.00  0.00    -0.284 N 
ATOM      8  H   MOL d          79.520   4.042  29.703  0.00  0.00     0.178 HD
BRANCH   7   9
ATOM      9  S1  MOL d          78.506   4.528  31.645  0.00  0.00     0.231 S 
ATOM     10  O3  MOL d          77.216   5.094  31.619  0.00  0.00    -0.206 OA
ATOM     11  O4  MOL d          78.719   3.147  31.862  0.00  0.00    -0.206 OA
BRANCH   9  12
ATOM     12  C8  MOL d          79.567   5.424  32.698  0.00  0.00     0.163 C 
BRANCH  12  13
ATOM     13  C01 MOL d          80.497   4.473  33.475  0.00  0.00     0.012 C 
ATOM     14  C02 MOL d          81.230   5.286  34.554  0.00  0.00     0.006 C 
ENDBRANCH  12  13
ENDBRANCH   9  12
ENDBRANCH   7   9
ENDBRANCH   2   7
BRANCH   1  15
ATOM     15  C7  MOL d          78.934   4.474  27.437  0.00  0.00     0.211 C 
ATOM     16  O1  MOL d          78.544   3.498  28.071  0.00  0.00    -0.644 OA
ATOM     17  O2  MOL d          79.326   4.424  26.191  0.00  0.00    -0.644 OA
ENDBRANCH   1  15
TORSDOF 5
