REMARK  10 active torsions:
REMARK  status: ('A' for Active; 'I' for Inactive)
REMARK    1  A    between atoms: PA_1  and  O3A_4 
REMARK    2  A    between atoms: PA_1  and  O5'_5 
REMARK    3  A    between atoms: O3A_4  and  PB_6 
REMARK    4  A    between atoms: O5'_5  and  C5'_14 
REMARK    5  A    between atoms: PB_6  and  O3B_9 
REMARK    6  A    between atoms: O3B_9  and  PC_10 
REMARK    7  A    between atoms: C5'_14  and  C4'_15 
REMARK    8  A    between atoms: C3'_17  and  O3'_18 
REMARK    9  A    between atoms: C2'_19  and  O2'_20 
REMARK   10  A    between atoms: C1'_21  and  N9_22 
ROOT
ATOM      1  C4' MGP d         -16.170 -14.860  -8.649  0.00  0.00     0.180 C 
ATOM      2  O4' MGP d         -15.809 -16.099  -9.317  0.00  0.00    -0.353 OA
ATOM      3  C3' MGP d         -17.674 -14.804  -8.294  0.00  0.00     0.182 C 
ATOM      4  C2' MGP d         -17.963 -16.255  -8.089  0.00  0.00     0.198 C 
ATOM      5  C1' MGP d         -16.996 -16.884  -9.087  0.00  0.00     0.262 C 
ENDROOT
BRANCH   5   6
ATOM      6  N9  MGP d         -16.393 -18.095  -8.517  0.00  0.00    -0.296 N 
ATOM      7  C8  MGP d         -16.626 -18.765  -7.380  0.00  0.00     0.190 A 
ATOM      8  N7  MGP d         -15.765 -19.826  -7.298  0.00  0.00    -0.340 N 
ATOM      9  CM7 MGP d         -15.754 -20.799  -6.145  0.00  0.00     0.157 C 
ATOM     10  C5  MGP d         -14.990 -19.750  -8.400  0.00  0.00     0.149 A 
ATOM     11  C6  MGP d         -13.917 -20.576  -8.937  0.00  0.00     0.290 A 
ATOM     12  C4  MGP d         -15.406 -18.619  -9.214  0.00  0.00     0.159 A 
ATOM     13  O6  MGP d         -13.540 -21.566  -8.289  0.00  0.00    -0.265 OA
ATOM     14  N1  MGP d         -13.378 -20.225 -10.124  0.00  0.00    -0.154 N 
ATOM     15  C2  MGP d         -13.800 -19.130 -10.850  0.00  0.00     0.680 A 
ATOM     16  H13 MGP d         -12.637 -20.785 -10.495  0.00  0.00     0.187 HD
ATOM     17  N2  MGP d         -13.209 -18.858 -12.024  0.00  0.00    -0.234 N 
ATOM     18  N3  MGP d         -14.819 -18.342 -10.432  0.00  0.00    -0.174 N 
ATOM     19  H14 MGP d         -13.513 -18.044 -12.577  0.00  0.00     0.174 HD
ATOM     20  H15 MGP d         -12.451 -19.463 -12.372  0.00  0.00     0.174 HD
ATOM     21  H16 MGP d         -15.148 -17.555 -11.009  0.00  0.00     0.186 HD
ENDBRANCH   5   6
BRANCH   4  22
ATOM     22  O2' MGP d         -19.347 -16.573  -8.357  0.00  0.00    -0.388 OA
ATOM     23  H7  MGP d         -19.904 -16.073  -7.773  0.00  0.00     0.210 HD
ENDBRANCH   4  22
BRANCH   1  24
ATOM     24  C5' MGP d         -15.323 -14.697  -7.400  0.00  0.00     0.216 C 
BRANCH  24  25
ATOM     25  O5' MGP d         -15.076 -15.879  -6.554  0.00  0.00    -0.287 OA
BRANCH  25  26
ATOM     26  PA  MGP d         -15.533 -16.135  -5.046  0.00  0.00     0.417 P 
ATOM     27  O1A MGP d         -15.469 -17.620  -4.722  0.00  0.00    -0.624 OA
ATOM     28  O2A MGP d         -14.829 -15.058  -4.362  0.00  0.00    -0.624 OA
BRANCH  26  29
ATOM     29  O3A MGP d         -17.057 -15.662  -5.084  0.00  0.00    -0.180 OA
BRANCH  29  30
ATOM     30  PB  MGP d         -18.086 -15.304  -3.923  0.00  0.00     0.428 P 
ATOM     31  O1B MGP d         -17.551 -15.216  -2.506  0.00  0.00    -0.624 OA
ATOM     32  O2B MGP d         -18.795 -14.069  -4.418  0.00  0.00    -0.624 OA
BRANCH  30  33
ATOM     33  O3B MGP d         -18.964 -16.654  -3.998  0.00  0.00    -0.173 OA
BRANCH  33  34
ATOM     34  PC  MGP d         -20.500 -16.901  -4.551  0.00  0.00     0.431 P 
ATOM     35  O1C MGP d         -20.603 -18.380  -4.218  0.00  0.00    -0.616 OA
ATOM     36  O2C MGP d         -20.423 -16.757  -6.079  0.00  0.00    -0.616 OA
ATOM     37  O3C MGP d         -21.616 -16.123  -3.768  0.00  0.00    -0.616 OA
ENDBRANCH  33  34
ENDBRANCH  30  33
ENDBRANCH  29  30
ENDBRANCH  26  29
ENDBRANCH  25  26
ENDBRANCH  24  25
ENDBRANCH   1  24
BRANCH   3  38
ATOM     38  O3' MGP d         -18.494 -14.367  -9.433  0.00  0.00    -0.390 OA
ATOM     39  H5  MGP d         -19.408 -14.346  -9.174  0.00  0.00     0.210 HD
ENDBRANCH   3  38
TORSDOF 10
