REMARK  5 active torsions:
REMARK  status: ('A' for Active; 'I' for Inactive)
REMARK    1  A    between atoms: N_1  and  CA_2 
REMARK    2  A    between atoms: CA_2  and  CB_3 
REMARK    3  A    between atoms: CA_2  and  C_10 
REMARK    4  A    between atoms: CB_3  and  OG1_5 
REMARK    5  A    between atoms: OG1_5  and  P_6 
ROOT
ATOM      1  CA  TPO d          18.886  15.325  54.040  0.00  0.00     0.312 C 
ENDROOT
BRANCH   1   2
ATOM      2  N   TPO d          20.260  15.281  54.562  0.00  0.00    -0.063 N 
ATOM      3  H1  TPO d          20.418  14.396  55.018  0.00  0.00     0.275 HD
ATOM      4  H2  TPO d          20.392  16.029  55.225  0.00  0.00     0.275 HD
ATOM      5  H3  TPO d          20.912  15.388  53.801  0.00  0.00     0.275 HD
ENDBRANCH   1   2
BRANCH   1   6
ATOM      6  CB  TPO d          17.896  15.161  55.195  0.00  0.00     0.172 C 
ATOM      7  CG2 TPO d          17.931  13.735  55.749  0.00  0.00     0.043 C 
BRANCH   6   8
ATOM      8  OG1 TPO d          18.193  16.116  56.218  0.00  0.00    -0.275 OA
BRANCH   8   9
ATOM      9  P   TPO d          17.029  16.621  57.210  0.00  0.00     0.422 P 
ATOM     10  O1P TPO d          16.919  15.526  58.397  0.00  0.00    -0.617 OA
ATOM     11  O2P TPO d          15.724  16.844  56.538  0.00  0.00    -0.617 OA
ATOM     12  O3P TPO d          17.578  17.965  57.926  0.00  0.00    -0.617 OA
ENDBRANCH   8   9
ENDBRANCH   6   8
ENDBRANCH   1   6
BRANCH   1  13
ATOM     13  C   TPO d          18.645  16.668  53.348  0.00  0.00     0.207 C 
ATOM     14  O   TPO d          19.449  17.591  53.604  0.00  0.00    -0.646 OA
ATOM     15  OXT TPO d          17.688  16.750  52.589  0.00  0.00    -0.646 OA
ENDBRANCH   1  13
TORSDOF 5
