REMARK  5 active torsions:
REMARK  status: ('A' for Active; 'I' for Inactive)
REMARK    1  A    between atoms: N_1  and  CA_2 
REMARK    2  A    between atoms: CA_2  and  C_3 
REMARK    3  A    between atoms: CA_2  and  CB_5 
REMARK    4  A    between atoms: CB_5  and  CG_6 
REMARK    5  A    between atoms: CG_6  and  CD_7 
ROOT
ATOM      1  CA  GLU d          19.375  15.647  32.533  0.00  0.00     0.283 C 
ENDROOT
BRANCH   1   2
ATOM      2  N   GLU d          19.127  16.316  33.852  0.00  0.00    -0.065 N 
ATOM      3  H1  GLU d          18.136  16.449  33.980  0.00  0.00     0.275 HD
ATOM      4  H2  GLU d          19.591  17.211  33.867  0.00  0.00     0.275 HD
ATOM      5  H3  GLU d          19.488  15.738  34.595  0.00  0.00     0.275 HD
ENDBRANCH   1   2
BRANCH   1   6
ATOM      6  C   GLU d          20.857  15.435  32.314  0.00  0.00     0.204 C 
ATOM      7  O   GLU d          21.236  14.896  31.268  0.00  0.00    -0.646 OA
ATOM      8  OXT GLU d          21.651  15.804  33.189  0.00  0.00    -0.646 OA
ENDBRANCH   1   6
BRANCH   1   9
ATOM      9  CB  GLU d          18.789  16.453  31.370  0.00  0.00     0.054 C 
BRANCH   9  10
ATOM     10  CG  GLU d          17.292  16.276  31.175  0.00  0.00     0.116 C 
BRANCH  10  11
ATOM     11  CD  GLU d          16.855  14.908  30.657  0.00  0.00     0.172 C 
ATOM     12  OE1 GLU d          15.633  14.624  30.791  0.00  0.00    -0.648 OA
ATOM     13  OE2 GLU d          17.682  14.116  30.117  0.00  0.00    -0.648 OA
ENDBRANCH  10  11
ENDBRANCH   9  10
ENDBRANCH   1   9
TORSDOF 5
