REMARK  25 active torsions:
REMARK  status: ('A' for Active; 'I' for Inactive)
REMARK    1  A    between atoms: CA_2  and  C_3 
REMARK       I    between atoms: C_3  and  N_8 
REMARK    2  A    between atoms: N_8  and  CA_9 
REMARK    3  A    between atoms: CA_9  and  C_10 
REMARK    4  A    between atoms: CA_9  and  CB_12 
REMARK       I    between atoms: C_10  and  N_15 
REMARK    5  A    between atoms: CB_12  and  OG1_13 
REMARK    6  A    between atoms: N_15  and  CA_16 
REMARK    7  A    between atoms: CA_16  and  C_17 
REMARK    8  A    between atoms: CA_16  and  CB_19 
REMARK       I    between atoms: C_17  and  N_22 
REMARK    9  A    between atoms: N_22  and  CA_23 
REMARK   10  A    between atoms: CA_23  and  C_24 
REMARK   11  A    between atoms: CA_23  and  CB_26 
REMARK       I    between atoms: C_24  and  N_31 
REMARK   12  A    between atoms: CB_26  and  CG_27 
REMARK   13  A    between atoms: CG_27  and  CD_28 
REMARK   14  A    between atoms: N_31  and  CA_32 
REMARK   15  A    between atoms: CA_32  and  C_33 
REMARK   16  A    between atoms: CA_32  and  CB_35 
REMARK       I    between atoms: C_33  and  N_40 
REMARK   17  A    between atoms: CB_35  and  CG_36 
REMARK   18  A    between atoms: CG_36  and  CD_37 
REMARK   19  A    between atoms: N_40  and  CA_41 
REMARK   20  A    between atoms: CA_41  and  C_42 
REMARK   21  A    between atoms: CA_41  and  CB_44 
REMARK       I    between atoms: C_42  and  N_47 
REMARK   22  A    between atoms: N_47  and  CA_48 
REMARK   23  A    between atoms: CA_48  and  C_49 
REMARK   24  A    between atoms: CA_48  and  CB_51 
REMARK   25  A    between atoms: CB_51  and  CG_52 
ROOT
ATOM      1  CA  PRO d           8.150 -22.459  15.085  0.00  0.00     0.177 C 
ENDROOT
BRANCH   1   2
ATOM      2  N   PRO d           7.512 -21.707  16.178  0.00  0.00    -0.346 N 
ATOM      3  C   PRO d           7.585 -20.376  16.365  0.00  0.00     0.241 C 
ATOM      4  O   PRO d           8.115 -19.610  15.573  0.00  0.00    -0.271 OA
ATOM      5  H26 PRO d           6.977 -22.232  16.840  0.00  0.00     0.163 HD
BRANCH   3   6
ATOM      6  CA  PRO d           6.795 -19.785  17.590  0.00  0.00     0.180 C 
BRANCH   6   7
ATOM      7  N   PRO d           5.848 -20.770  18.082  0.00  0.00    -0.346 N 
ATOM      8  C   PRO d           4.758 -21.072  17.380  0.00  0.00     0.243 C 
ATOM      9  O   PRO d           4.583 -20.726  16.218  0.00  0.00    -0.271 OA
ATOM     10  H17 PRO d           6.016 -21.226  18.956  0.00  0.00     0.163 HD
BRANCH   8  11
ATOM     11  CA  PRO d           3.763 -22.005  18.018  0.00  0.00     0.205 C 
BRANCH  11  12
ATOM     12  N   PRO d           4.346 -22.999  18.897  0.00  0.00    -0.344 N 
ATOM     13  C   PRO d           5.240 -23.858  18.458  0.00  0.00     0.249 C 
ATOM     14  O   PRO d           5.768 -23.755  17.361  0.00  0.00    -0.271 OA
ATOM     15  H10 PRO d           4.063 -23.032  19.856  0.00  0.00     0.163 HD
BRANCH  13  16
ATOM     16  CA  PRO d           5.561 -25.024  19.388  0.00  0.00     0.277 C 
ATOM     17  N   PRO d           6.418 -25.909  18.664  0.00  0.00    -0.062 N 
ATOM     18  CD  PRO d           7.496 -26.439  19.496  0.00  0.00     0.233 C 
ATOM     19  H1  PRO d           6.823 -25.407  17.889  0.00  0.00     0.278 HD
ATOM     20  H2  PRO d           5.869 -26.679  18.315  0.00  0.00     0.278 HD
ATOM     21  CG  PRO d           7.163 -25.920  20.876  0.00  0.00     0.030 C 
ATOM     22  CB  PRO d           6.420 -24.633  20.590  0.00  0.00     0.044 C 
ENDBRANCH  13  16
ENDBRANCH  11  12
BRANCH  11  23
ATOM     23  CB  PRO d           2.675 -21.236  18.821  0.00  0.00     0.146 C 
ATOM     24  CG2 PRO d           2.184 -19.907  18.154  0.00  0.00     0.042 C 
BRANCH  23  25
ATOM     25  OG1 PRO d           1.636 -22.171  19.110  0.00  0.00    -0.393 OA
ATOM     26  H13 PRO d           0.949 -21.737  19.602  0.00  0.00     0.210 HD
ENDBRANCH  23  25
ENDBRANCH  11  23
ENDBRANCH   8  11
ENDBRANCH   6   7
BRANCH   6  27
ATOM     27  CB  PRO d           7.808 -19.289  18.664  0.00  0.00     0.009 C 
ATOM     28  CG1 PRO d           7.148 -18.612  19.759  0.00  0.00     0.012 C 
ATOM     29  CG2 PRO d           8.677 -20.433  19.185  0.00  0.00     0.012 C 
ENDBRANCH   6  27
ENDBRANCH   3   6
ENDBRANCH   1   2
BRANCH   1  30
ATOM     30  C   PRO d           7.201 -22.822  13.925  0.00  0.00     0.241 C 
ATOM     31  O   PRO d           7.602 -23.486  12.949  0.00  0.00    -0.271 OA
ATOM     32  N   PRO d           5.948 -22.419  14.042  0.00  0.00    -0.346 N 
ATOM     33  H32 PRO d           5.718 -21.808  14.799  0.00  0.00     0.163 HD
BRANCH  32  34
ATOM     34  CA  PRO d           4.901 -22.807  13.147  0.00  0.00     0.177 C 
BRANCH  34  35
ATOM     35  C   PRO d           4.353 -21.632  12.368  0.00  0.00     0.241 C 
ATOM     36  O   PRO d           4.286 -20.540  12.907  0.00  0.00    -0.271 OA
ATOM     37  N   PRO d           4.097 -21.834  11.072  0.00  0.00    -0.346 N 
ATOM     38  H38 PRO d           4.404 -22.685  10.646  0.00  0.00     0.163 HD
BRANCH  37  39
ATOM     39  CA  PRO d           3.382 -20.851  10.254  0.00  0.00     0.180 C 
BRANCH  39  40
ATOM     40  C   PRO d           2.231 -21.577   9.550  0.00  0.00     0.241 C 
ATOM     41  O   PRO d           2.242 -22.815   9.448  0.00  0.00    -0.271 OA
ATOM     42  N   PRO d           1.240 -20.806   9.104  0.00  0.00    -0.344 N 
ATOM     43  H47 PRO d           1.307 -19.814   9.215  0.00  0.00     0.163 HD
BRANCH  42  44
ATOM     44  CA  PRO d           0.047 -21.377   8.450  0.00  0.00     0.195 C 
BRANCH  44  45
ATOM     45  C   PRO d           0.061 -21.192   6.924  0.00  0.00     0.197 C 
ATOM     46  O   PRO d           0.521 -20.152   6.410  0.00  0.00    -0.646 OA
ATOM     47  OXT PRO d          -0.357 -22.117   6.167  0.00  0.00    -0.646 OA
ENDBRANCH  44  45
BRANCH  44  48
ATOM     48  CB  PRO d          -1.182 -20.715   9.051  0.00  0.00     0.149 C 
BRANCH  48  49
ATOM     49  CG  PRO d          -1.481 -21.231  10.454  0.00  0.00     0.175 C 
ATOM     50  OD1 PRO d          -2.253 -22.202  10.603  0.00  0.00    -0.648 OA
ATOM     51  OD2 PRO d          -0.897 -20.705  11.415  0.00  0.00    -0.648 OA
ENDBRANCH  48  49
ENDBRANCH  44  48
ENDBRANCH  42  44
ENDBRANCH  39  40
BRANCH  39  52
ATOM     52  CB  PRO d           4.245 -20.154   9.198  0.00  0.00     0.009 C 
ATOM     53  CG1 PRO d           5.206 -19.094   9.865  0.00  0.00     0.012 C 
ATOM     54  CG2 PRO d           5.029 -21.182   8.347  0.00  0.00     0.012 C 
ENDBRANCH  39  52
ENDBRANCH  37  39
ENDBRANCH  34  35
BRANCH  34  55
ATOM     55  CB  PRO d           3.775 -23.458  13.931  0.00  0.00     0.045 C 
BRANCH  55  56
ATOM     56  CG  PRO d           4.224 -24.650  14.717  0.00  0.00     0.116 C 
BRANCH  56  57
ATOM     57  CD  PRO d           4.233 -25.905  13.913  0.00  0.00     0.172 C 
ATOM     58  OE1 PRO d           4.359 -26.989  14.551  0.00  0.00    -0.648 OA
ATOM     59  OE2 PRO d           4.135 -25.823  12.658  0.00  0.00    -0.648 OA
ENDBRANCH  56  57
ENDBRANCH  55  56
ENDBRANCH  34  55
ENDBRANCH  32  34
ENDBRANCH   1  30
BRANCH   1  60
ATOM     60  CB  PRO d           8.773 -23.787  15.637  0.00  0.00     0.045 C 
BRANCH  60  61
ATOM     61  CG  PRO d           9.537 -23.618  16.916  0.00  0.00     0.116 C 
BRANCH  61  62
ATOM     62  CD  PRO d          10.845 -22.792  16.757  0.00  0.00     0.172 C 
ATOM     63  OE1 PRO d          11.508 -22.583  17.802  0.00  0.00    -0.648 OA
ATOM     64  OE2 PRO d          11.229 -22.348  15.620  0.00  0.00    -0.648 OA
ENDBRANCH  61  62
ENDBRANCH  60  61
ENDBRANCH   1  60
TORSDOF 25
