REMARK  5 active torsions:
REMARK  status: ('A' for Active; 'I' for Inactive)
REMARK    1  A    between atoms: N02_2  and  C03_3 
REMARK    2  A    between atoms: C07_7  and  C08_8 
REMARK    3  A    between atoms: C10_10  and  N11_11 
REMARK    4  A    between atoms: N11_11  and  C12_12 
REMARK    5  A    between atoms: C16_16  and  N17_17 
ROOT
ATOM      1  C08 T3C d           7.951  21.588  22.704  0.00  0.00     0.117 A 
ATOM      2  N09 T3C d           7.336  22.399  23.612  0.00  0.00    -0.060 NA
ATOM      3  C10 T3C d           8.041  23.108  24.500  0.00  0.00     0.727 A 
ATOM      4  N25 T3C d           9.405  23.031  24.527  0.00  0.00    -0.073 NA
ATOM      5  C26 T3C d          10.079  22.238  23.634  0.00  0.00     0.161 A 
ATOM      6  C27 T3C d           9.364  21.503  22.703  0.00  0.00     0.093 A 
ATOM      7  C28 T3C d          10.088  20.643  21.729  0.00  0.00     0.103 C 
ATOM      8  N29 T3C d          10.641  19.985  20.988  0.00  0.00    -0.191 NA
ENDROOT
BRANCH   1   9
ATOM      9  C07 T3C d           7.155  20.895  21.790  0.00  0.00     0.063 A 
ATOM     10  C05 T3C d           7.131  19.527  21.437  0.00  0.00     0.053 A 
ATOM     11  N04 T3C d           6.227  19.169  20.499  0.00  0.00    -0.228 NA
ATOM     12  C06 T3C d           8.065  18.477  22.072  0.00  0.00     0.072 C 
ATOM     13  C03 T3C d           5.457  20.155  20.010  0.00  0.00     0.167 A 
ATOM     14  S30 T3C d           5.937  21.616  20.815  0.00  0.00    -0.048 SA
BRANCH  13  15
ATOM     15  N02 T3C d           4.431  20.039  19.013  0.00  0.00    -0.373 N 
ATOM     16  C01 T3C d           3.697  21.209  18.626  0.00  0.00     0.148 C 
ATOM     17  H4  T3C d           4.224  19.127  18.581  0.00  0.00     0.161 HD
ENDBRANCH  13  15
ENDBRANCH   1   9
BRANCH   3  18
ATOM     18  N11 T3C d           7.345  23.965  25.480  0.00  0.00    -0.188 N 
ATOM     19  H8  T3C d           7.784  24.115  26.400  0.00  0.00     0.184 HD
BRANCH  18  20
ATOM     20  C12 T3C d           6.105  24.590  25.217  0.00  0.00     0.051 A 
ATOM     21  C13 T3C d           5.761  25.777  25.946  0.00  0.00     0.030 A 
ATOM     22  C14 T3C d           4.540  26.418  25.712  0.00  0.00     0.004 A 
ATOM     23  C15 T3C d           3.642  25.895  24.759  0.00  0.00     0.029 A 
ATOM     24  C16 T3C d           3.972  24.724  24.037  0.00  0.00     0.032 A 
ATOM     25  C24 T3C d           5.219  24.074  24.279  0.00  0.00     0.059 A 
BRANCH  24  26
ATOM     26  N17 T3C d           3.020  24.179  23.043  0.00  0.00    -0.379 N 
ATOM     27  C18 T3C d           2.211  22.990  23.147  0.00  0.00     0.124 C 
ATOM     28  C19 T3C d           0.751  23.291  23.068  0.00  0.00     0.047 C 
ATOM     29  C20 T3C d           0.411  23.965  21.772  0.00  0.00     0.234 C 
ATOM     30  N21 T3C d           1.374  23.666  20.750  0.00  0.00    -0.074 N 
ATOM     31  C22 T3C d           2.445  24.615  20.674  0.00  0.00     0.252 C 
ATOM     32  H18 T3C d           0.900  23.649  19.861  0.00  0.00     0.277 HD
ATOM     33  H19 T3C d           1.767  22.757  20.939  0.00  0.00     0.277 HD
ATOM     34  C23 T3C d           3.514  24.453  21.722  0.00  0.00     0.150 C 
ENDBRANCH  24  26
ENDBRANCH  18  20
ENDBRANCH   3  18
TORSDOF 5
