REMARK  9 active torsions:
REMARK  status: ('A' for Active; 'I' for Inactive)
REMARK    1  A    between atoms: O3A_8  and  PB_1 
REMARK    2  A    between atoms: PA_5  and  O3A_8 
REMARK    3  A    between atoms: PA_5  and  O5'_9 
REMARK    4  A    between atoms: O5'_9  and  C5'_10 
REMARK    5  A    between atoms: C5'_10  and  C4'_11 
REMARK    6  A    between atoms: C3'_13  and  O3'_14 
REMARK    7  A    between atoms: C2'_15  and  O2'_16 
REMARK    8  A    between atoms: C1'_17  and  N9_18 
REMARK    9  A    between atoms: C6_22  and  N6_23 
ROOT
ATOM      1  C4' ADP d          34.731   0.991 -13.797  0.00  0.00     0.180 C 
ATOM      2  O4' ADP d          35.348   0.424 -14.936  0.00  0.00    -0.353 OA
ATOM      3  C3' ADP d          35.694   1.981 -13.202  0.00  0.00     0.182 C 
ATOM      4  C2' ADP d          36.679   2.209 -14.220  0.00  0.00     0.198 C 
ATOM      5  C1' ADP d          36.671   0.971 -15.057  0.00  0.00     0.262 C 
ENDROOT
BRANCH   5   6
ATOM      6  N9  ADP d          36.986   1.189 -16.459  0.00  0.00    -0.294 N 
ATOM      7  C8  ADP d          36.260   1.924 -17.325  0.00  0.00     0.214 A 
ATOM      8  N7  ADP d          36.850   1.888 -18.531  0.00  0.00    -0.236 NA
ATOM      9  C5  ADP d          37.967   1.120 -18.415  0.00  0.00     0.149 A 
ATOM     10  C6  ADP d          38.955   0.738 -19.327  0.00  0.00     0.155 A 
ATOM     11  C4  ADP d          38.059   0.674 -17.105  0.00  0.00     0.167 A 
ATOM     12  N1  ADP d          39.966  -0.044 -18.922  0.00  0.00    -0.222 NA
ATOM     13  C2  ADP d          40.027  -0.463 -17.643  0.00  0.00     0.237 A 
ATOM     14  N3  ADP d          39.092  -0.118 -16.738  0.00  0.00    -0.222 NA
BRANCH  10  15
ATOM     15  N6  ADP d          38.889   1.170 -20.667  0.00  0.00    -0.382 N 
ATOM     16  H10 ADP d          39.619   0.886 -21.336  0.00  0.00     0.157 HD
ATOM     17  H11 ADP d          38.111   1.769 -20.977  0.00  0.00     0.157 HD
ENDBRANCH  10  15
ENDBRANCH   5   6
BRANCH   4  18
ATOM     18  O2' ADP d          37.949   2.490 -13.707  0.00  0.00    -0.388 OA
ATOM     19  H7  ADP d          38.245   1.758 -13.180  0.00  0.00     0.210 HD
ENDBRANCH   4  18
BRANCH   1  20
ATOM     20  C5' ADP d          33.352   1.562 -14.070  0.00  0.00     0.216 C 
BRANCH  20  21
ATOM     21  O5' ADP d          33.239   2.807 -14.677  0.00  0.00    -0.287 OA
BRANCH  21  22
ATOM     22  PA  ADP d          31.866   3.511 -14.989  0.00  0.00     0.418 P 
ATOM     23  O1A ADP d          31.561   2.179 -15.654  0.00  0.00    -0.624 OA
ATOM     24  O2A ADP d          32.616   4.578 -15.865  0.00  0.00    -0.624 OA
BRANCH  22  25
ATOM     25  O3A ADP d          31.752   3.761 -13.440  0.00  0.00    -0.173 OA
BRANCH  25  26
ATOM     26  PB  ADP d          30.676   4.835 -12.989  0.00  0.00     0.431 P 
ATOM     27  O1B ADP d          29.912   5.337 -14.171  0.00  0.00    -0.616 OA
ATOM     28  O2B ADP d          29.715   4.172 -12.020  0.00  0.00    -0.616 OA
ATOM     29  O3B ADP d          31.361   5.948 -12.268  0.00  0.00    -0.616 OA
ENDBRANCH  25  26
ENDBRANCH  22  25
ENDBRANCH  21  22
ENDBRANCH  20  21
ENDBRANCH   1  20
BRANCH   3  30
ATOM     30  O3' ADP d          36.323   1.548 -12.029  0.00  0.00    -0.390 OA
ATOM     31  H5  ADP d          36.912   2.226 -11.718  0.00  0.00     0.210 HD
ENDBRANCH   3  30
TORSDOF 9
