REMARK  11 active torsions:
REMARK  status: ('A' for Active; 'I' for Inactive)
REMARK    1  A    between atoms: C4_4  and  C13_8 
REMARK    2  A    between atoms: C6_6  and  O60_33 
REMARK       I    between atoms: C13_8  and  N14_9 
REMARK    3  A    between atoms: N14_9  and  C15_10 
REMARK    4  A    between atoms: C15_10  and  C16_11 
REMARK    5  A    between atoms: C15_10  and  C17_12 
REMARK    6  A    between atoms: C16_11  and  C27_19 
REMARK    7  A    between atoms: C17_12  and  C19_13 
REMARK    8  A    between atoms: C17_12  and  O41_25 
REMARK       I    between atoms: C19_13  and  N20_14 
REMARK    9  A    between atoms: C21_15  and  C53_29 
REMARK       I    between atoms: C53_29  and  N55_30 
REMARK   10  A    between atoms: N55_30  and  C56_31 
REMARK   11  A    between atoms: C56_31  and  C63_35 
ROOT
ATOM      1  C17 K64 d          15.024  23.672  18.627  0.00  0.00     0.233 C 
ENDROOT
BRANCH   1   2
ATOM      2  C15 K64 d          14.813  22.705  17.449  0.00  0.00     0.127 C 
BRANCH   2   3
ATOM      3  N14 K64 d          13.902  21.662  17.896  0.00  0.00    -0.349 N 
ATOM      4  C13 K64 d          14.314  20.426  18.325  0.00  0.00     0.252 C 
ATOM      5  O62 K64 d          15.510  20.129  18.413  0.00  0.00    -0.268 OA
ATOM      6  H7  K64 d          12.921  21.857  17.890  0.00  0.00     0.163 HD
BRANCH   4   7
ATOM      7  C4  K64 d          13.225  19.484  18.669  0.00  0.00     0.040 A 
ATOM      8  C3  K64 d          12.220  19.228  17.688  0.00  0.00     0.018 A 
ATOM      9  C2  K64 d          11.160  18.333  17.947  0.00  0.00     0.004 A 
ATOM     10  C1  K64 d          11.087  17.681  19.187  0.00  0.00     0.037 A 
ATOM     11  C6  K64 d          12.066  17.918  20.173  0.00  0.00     0.072 A 
ATOM     12  C5  K64 d          13.149  18.817  19.943  0.00  0.00    -0.013 A 
ATOM     13  C9  K64 d          14.177  19.033  21.045  0.00  0.00     0.052 C 
BRANCH  11  14
ATOM     14  O60 K64 d          11.966  17.265  21.372  0.00  0.00    -0.360 OA
ATOM     15  H30 K64 d          11.196  16.709  21.365  0.00  0.00     0.217 HD
ENDBRANCH  11  14
ENDBRANCH   4   7
ENDBRANCH   2   3
BRANCH   2  16
ATOM     16  C16 K64 d          14.238  23.343  16.153  0.00  0.00     0.066 C 
BRANCH  16  17
ATOM     17  C27 K64 d          13.998  22.299  15.085  0.00  0.00    -0.056 A 
ATOM     18  C30 K64 d          15.072  21.719  14.364  0.00  0.00     0.007 A 
ATOM     19  C31 K64 d          14.824  20.737  13.377  0.00  0.00     0.001 A 
ATOM     20  C32 K64 d          13.493  20.324  13.103  0.00  0.00     0.000 A 
ATOM     21  C33 K64 d          12.414  20.896  13.819  0.00  0.00     0.001 A 
ATOM     22  C34 K64 d          12.668  21.880  14.806  0.00  0.00     0.007 A 
ENDBRANCH  16  17
ENDBRANCH   2  16
ENDBRANCH   1   2
BRANCH   1  23
ATOM     23  C19 K64 d          16.350  24.459  18.522  0.00  0.00     0.252 C 
ATOM     24  N20 K64 d          17.505  23.809  18.883  0.00  0.00    -0.326 N 
ATOM     25  C21 K64 d          18.782  24.577  18.868  0.00  0.00     0.198 C 
ATOM     26  C24 K64 d          17.479  22.905  20.074  0.00  0.00     0.201 C 
ATOM     27  C22 K64 d          19.669  24.144  20.095  0.00  0.00     0.032 C 
ATOM     28  S23 K64 d          19.184  22.450  20.360  0.00  0.00    -0.137 SA
ATOM     29  C45 K64 d          19.377  24.963  21.374  0.00  0.00     0.029 C 
ATOM     30  C49 K64 d          21.189  24.168  19.794  0.00  0.00     0.029 C 
ATOM     31  O44 K64 d          16.311  25.633  18.147  0.00  0.00    -0.270 OA
BRANCH  25  32
ATOM     32  C53 K64 d          19.405  24.299  17.480  0.00  0.00     0.242 C 
ATOM     33  N55 K64 d          20.212  25.282  17.028  0.00  0.00    -0.355 N 
ATOM     34  H27 K64 d          20.359  26.099  17.585  0.00  0.00     0.162 HD
ATOM     35  O57 K64 d          19.154  23.259  16.878  0.00  0.00    -0.271 OA
BRANCH  33  36
ATOM     36  C56 K64 d          20.869  25.162  15.738  0.00  0.00     0.161 C 
BRANCH  36  37
ATOM     37  C63 K64 d          20.635  26.379  14.886  0.00  0.00    -0.035 A 
ATOM     38  C66 K64 d          21.717  27.284  14.706  0.00  0.00     0.009 A 
ATOM     39  C67 K64 d          21.565  28.445  13.918  0.00  0.00     0.001 A 
ATOM     40  C68 K64 d          20.325  28.715  13.301  0.00  0.00     0.001 A 
ATOM     41  C69 K64 d          19.235  27.829  13.468  0.00  0.00     0.007 A 
ATOM     42  C70 K64 d          19.368  26.657  14.257  0.00  0.00    -0.054 A 
ATOM     43  C75 K64 d          18.161  25.750  14.396  0.00  0.00     0.049 C 
ENDBRANCH  36  37
ENDBRANCH  33  36
ENDBRANCH  25  32
ENDBRANCH   1  23
BRANCH   1  44
ATOM     44  O41 K64 d          13.955  24.584  18.656  0.00  0.00    -0.384 OA
ATOM     45  H20 K64 d          13.960  25.101  17.859  0.00  0.00     0.210 HD
ENDBRANCH   1  44
TORSDOF 11
