REMARK  4 active torsions:
REMARK  status: ('A' for Active; 'I' for Inactive)
REMARK    1  A    between atoms: CA_5  and  C_11 
REMARK    2  A    between atoms: CB_6  and  CB1_7 
REMARK    3  A    between atoms: CB1_7  and  CG1_9 
REMARK    4  A    between atoms: CG_8  and  CG2_10 
ROOT
ATOM      1  N   KAI d          12.584   7.241  24.664  0.00  0.00    -0.060 N 
ATOM      2  CD  KAI d          13.002   8.642  24.383  0.00  0.00     0.238 C 
ATOM      3  CA  KAI d          13.707   6.365  24.855  0.00  0.00     0.290 C 
ATOM      4  CB  KAI d          14.913   7.157  24.462  0.00  0.00     0.043 C 
ATOM      5  CG  KAI d          14.520   8.581  24.559  0.00  0.00     0.021 C 
ATOM      6  H1  KAI d          12.038   6.903  23.887  0.00  0.00     0.278 HD
ATOM      7  H2  KAI d          12.020   7.232  25.500  0.00  0.00     0.278 HD
ENDROOT
BRANCH   4   8
ATOM      8  CB1 KAI d          15.039   6.970  22.940  0.00  0.00     0.121 C 
BRANCH   8   9
ATOM      9  CG1 KAI d          15.745   5.741  22.405  0.00  0.00     0.172 C 
ATOM     10  OD1 KAI d          15.733   5.537  21.059  0.00  0.00    -0.648 OA
ATOM     11  OD2 KAI d          16.331   4.999  23.179  0.00  0.00    -0.648 OA
ENDBRANCH   8   9
ENDBRANCH   4   8
BRANCH   3  12
ATOM     12  C   KAI d          13.813   6.116  26.368  0.00  0.00     0.205 C 
ATOM     13  O   KAI d          12.965   6.424  27.229  0.00  0.00    -0.646 OA
ATOM     14  OXT KAI d          14.905   5.572  26.823  0.00  0.00    -0.646 OA
ENDBRANCH   3  12
BRANCH   5  15
ATOM     15  CG2 KAI d          15.489   9.665  24.082  0.00  0.00    -0.017 C 
ATOM     16  CD1 KAI d          15.092  10.347  22.818  0.00  0.00     0.010 C 
ATOM     17  CD2 KAI d          16.969   9.374  24.283  0.00  0.00     0.010 C 
ENDBRANCH   5  15
TORSDOF 4
