REMARK  4 active torsions:
REMARK  status: ('A' for Active; 'I' for Inactive)
REMARK    1  A    between atoms: C09_9  and  N10_10 
REMARK    2  A    between atoms: N10_10  and  C11_11 
REMARK    3  A    between atoms: N17_17  and  C18_18 
REMARK    4  A    between atoms: C18_18  and  C19_19 
ROOT
ATOM      1  N01 P45 d          20.120   9.496  19.763  0.00  0.00    -0.162 NA
ATOM      2  C02 P45 d          20.389   9.772  18.463  0.00  0.00     0.166 A 
ATOM      3  C03 P45 d          21.394   8.892  18.026  0.00  0.00     0.112 A 
ATOM      4  C04 P45 d          21.697   8.064  19.172  0.00  0.00     0.210 A 
ATOM      5  N05 P45 d          20.903   8.473  20.207  0.00  0.00    -0.041 N 
ATOM      6  N06 P45 d          22.553   7.051  19.374  0.00  0.00    -0.040 NA
ATOM      7  C07 P45 d          22.582   6.502  20.583  0.00  0.00     0.740 A 
ATOM      8  N08 P45 d          21.825   6.886  21.607  0.00  0.00     0.130 NA
ATOM      9  C09 P45 d          20.980   7.891  21.394  0.00  0.00     0.745 A 
ATOM     10  N17 P45 d          23.451   5.482  20.778  0.00  0.00    -0.218 N 
ATOM     11  C25 P45 d          21.988   8.867  16.723  0.00  0.00     0.105 C 
ATOM     12  N26 P45 d          22.492   8.946  15.682  0.00  0.00    -0.191 NA
ATOM     13  H8  P45 d          24.017   5.156  19.982  0.00  0.00     0.178 HD
ENDROOT
BRANCH   9  14
ATOM     14  N10 P45 d          20.211   8.343  22.417  0.00  0.00    -0.188 N 
ATOM     15  H2  P45 d          19.492   9.042  22.183  0.00  0.00     0.184 HD
BRANCH  14  16
ATOM     16  C11 P45 d          20.297   7.963  23.722  0.00  0.00     0.049 A 
ATOM     17  C12 P45 d          20.634   6.669  24.119  0.00  0.00     0.030 A 
ATOM     18  C13 P45 d          20.612   6.293  25.462  0.00  0.00     0.002 A 
ATOM     19  C14 P45 d          20.248   7.220  26.439  0.00  0.00     0.000 A 
ATOM     20  C15 P45 d          19.958   8.530  26.055  0.00  0.00     0.002 A 
ATOM     21  C16 P45 d          19.989   8.902  24.712  0.00  0.00     0.030 A 
ENDBRANCH  14  16
ENDBRANCH   9  14
BRANCH  10  22
ATOM     22  C18 P45 d          23.617   4.826  22.071  0.00  0.00     0.176 C 
BRANCH  22  23
ATOM     23  C19 P45 d          22.594   3.760  22.385  0.00  0.00    -0.040 A 
ATOM     24  C20 P45 d          22.359   3.421  23.716  0.00  0.00     0.010 A 
ATOM     25  C21 P45 d          21.436   2.426  24.033  0.00  0.00     0.024 A 
ATOM     26  C22 P45 d          20.740   1.750  23.031  0.00  0.00     0.034 A 
ATOM     27  C23 P45 d          20.953   2.122  21.706  0.00  0.00     0.024 A 
ATOM     28 CL27 P45 d          19.654   0.456  23.437  0.00  0.00    -0.084 Cl
ATOM     29  C24 P45 d          21.879   3.113  21.377  0.00  0.00     0.010 A 
ENDBRANCH  22  23
ENDBRANCH  10  22
TORSDOF 4
