REMARK  6 active torsions:
REMARK  status: ('A' for Active; 'I' for Inactive)
REMARK    1  A    between atoms: CAW_13  and  CAV_14 
REMARK    2  A    between atoms: CAU_19  and  CAS_20 
REMARK    3  A    between atoms: CAS_20  and  CBB_21 
REMARK    4  A    between atoms: CBB_21  and  PBC_22 
REMARK    5  A    between atoms: CBB_21  and  PBD_26 
REMARK    6  A    between atoms: CBB_21  and  OAC_30 
ROOT
ATOM      1  CAV B29 d          -5.524 -15.796  21.138  0.00  0.00    -0.023 A 
ATOM      2  CAR B29 d          -6.529 -16.814  21.252  0.00  0.00     0.019 A 
ATOM      3  CAM B29 d          -4.986 -15.518  19.844  0.00  0.00     0.012 A 
ATOM      4  CAJ B29 d          -5.436 -16.229  18.710  0.00  0.00     0.001 A 
ATOM      5  CAL B29 d          -6.422 -17.230  18.834  0.00  0.00     0.007 A 
ATOM      6  CAU B29 d          -6.982 -17.533  20.109  0.00  0.00    -0.053 A 
ENDROOT
BRANCH   1   7
ATOM      7  CAW B29 d          -5.044 -15.069  22.281  0.00  0.00     0.009 A 
ATOM      8  CBA B29 d          -5.098 -15.638  23.606  0.00  0.00     0.098 A 
ATOM      9  OAT B29 d          -5.565 -16.845  24.070  0.00  0.00    -0.308 OA
ATOM     10  CAZ B29 d          -4.605 -14.911  24.723  0.00  0.00     0.012 A 
ATOM     11  CAX B29 d          -5.394 -16.918  25.422  0.00  0.00     0.087 A 
ATOM     12  CAY B29 d          -4.787 -15.709  25.850  0.00  0.00     0.011 A 
ATOM     13  CAO B29 d          -5.707 -17.934  26.362  0.00  0.00     0.038 A 
ATOM     14  CAP B29 d          -4.491 -15.517  27.229  0.00  0.00     0.015 A 
ATOM     15  CAI B29 d          -4.804 -16.532  28.171  0.00  0.00     0.001 A 
ATOM     16  fur B29 d          -5.412 -17.741  27.739  0.00  0.00     0.003 A 
ATOM     17  CAQ B29 d          -4.055 -13.615  24.542  0.00  0.00     0.015 A 
ATOM     18  CAK B29 d          -4.002 -13.046  23.250  0.00  0.00     0.002 A 
ATOM     19  CAN B29 d          -4.487 -13.761  22.130  0.00  0.00     0.015 A 
ENDBRANCH   1   7
BRANCH   6  20
ATOM     20  CAS B29 d          -8.062 -18.630  20.285  0.00  0.00     0.106 C 
BRANCH  20  21
ATOM     21  CBB B29 d          -9.211 -18.707  19.243  0.00  0.00     0.289 C 
BRANCH  21  22
ATOM     22  PBC B29 d         -10.352 -20.137  19.688  0.00  0.00     0.310 P 
ATOM     23  OAD B29 d         -10.453 -20.229  21.296  0.00  0.00    -0.637 OA
ATOM     24  OAE B29 d         -11.821 -19.768  19.166  0.00  0.00    -0.637 OA
ATOM     25  OAA B29 d          -9.889 -21.406  19.082  0.00  0.00    -0.637 OA
ENDBRANCH  21  22
BRANCH  21  26
ATOM     26  PBD B29 d         -10.284 -17.156  19.151  0.00  0.00     0.310 P 
ATOM     27  OAF B29 d         -11.361 -17.298  20.354  0.00  0.00    -0.637 OA
ATOM     28  OAG B29 d          -9.409 -15.848  19.473  0.00  0.00    -0.637 OA
ATOM     29  OAB B29 d         -10.938 -17.089  17.823  0.00  0.00    -0.637 OA
ENDBRANCH  21  26
BRANCH  21  30
ATOM     30  OAC B29 d          -8.664 -18.957  17.940  0.00  0.00    -0.365 OA
ATOM     31  H   B29 d          -9.370 -19.020  17.308  0.00  0.00     0.212 HD
ENDBRANCH  21  30
ENDBRANCH  20  21
ENDBRANCH   6  20
TORSDOF 6
