REMARK  12 active torsions:
REMARK  status: ('A' for Active; 'I' for Inactive)
REMARK    1  A    between atoms: S_1  and  C4_8 
REMARK    2  A    between atoms: S_1  and  N1_4 
REMARK    3  A    between atoms: C1_5  and  C7_11 
REMARK       I    between atoms: C7_11  and  N2_13 
REMARK    4  A    between atoms: N2_13  and  C8_14 
REMARK    5  A    between atoms: C8_14  and  C9_15 
REMARK    6  A    between atoms: C9_15  and  O4_16 
REMARK    7  A    between atoms: O4_16  and  C10_17 
REMARK    8  A    between atoms: C10_17  and  C11_18 
REMARK    9  A    between atoms: C11_18  and  O5_19 
REMARK   10  A    between atoms: O5_19  and  C12_20 
REMARK   11  A    between atoms: C12_20  and  C13_21 
REMARK   12  A    between atoms: C13_21  and  N3_22 
ROOT
ATOM      1  C7  EG2 d          -4.314   5.504  13.775  0.00  0.00     0.251 C 
ATOM      2  O3  EG2 d          -4.991   6.422  13.422  0.00  0.00    -0.268 OA
ATOM      3  N2  EG2 d          -2.965   5.546  13.351  0.00  0.00    -0.355 N 
ATOM      4  H7  EG2 d          -2.346   4.821  13.652  0.00  0.00     0.162 HD
ENDROOT
BRANCH   1   5
ATOM      5  C1  EG2 d          -4.706   4.378  14.623  0.00  0.00     0.032 A 
ATOM      6  C2  EG2 d          -3.755   3.378  14.906  0.00  0.00     0.018 A 
ATOM      7  C3  EG2 d          -4.213   2.293  15.683  0.00  0.00     0.026 A 
ATOM      8  C4  EG2 d          -5.538   2.210  16.177  0.00  0.00     0.079 A 
ATOM      9  C5  EG2 d          -6.428   3.253  15.824  0.00  0.00     0.026 A 
ATOM     10  C6  EG2 d          -6.012   4.337  15.047  0.00  0.00     0.018 A 
BRANCH   8  11
ATOM     11  S   EG2 d          -5.990   0.917  17.096  0.00  0.00     0.256 S 
ATOM     12  O2  EG2 d          -7.448   0.959  16.954  0.00  0.00    -0.201 OA
ATOM     13  O1  EG2 d          -5.510   0.917  18.367  0.00  0.00    -0.201 OA
BRANCH  11  14
ATOM     14  N1  EG2 d          -5.337  -0.209  16.389  0.00  0.00    -0.324 N 
ATOM     15  H1  EG2 d          -5.441  -1.143  16.732  0.00  0.00     0.169 HD
ATOM     16  H2  EG2 d          -4.792  -0.036  15.569  0.00  0.00     0.169 HD
ENDBRANCH  11  14
ENDBRANCH   8  11
ENDBRANCH   1   5
BRANCH   3  17
ATOM     17  C8  EG2 d          -2.446   6.589  12.504  0.00  0.00     0.149 C 
BRANCH  17  18
ATOM     18  C9  EG2 d          -2.209   7.923  13.069  0.00  0.00     0.187 C 
BRANCH  18  19
ATOM     19  O4  EG2 d          -1.307   7.881  14.199  0.00  0.00    -0.387 OA
BRANCH  19  20
ATOM     20  C10 EG2 d          -1.486   9.007  15.047  0.00  0.00     0.193 C 
BRANCH  20  21
ATOM     21  C11 EG2 d          -0.381  10.008  14.906  0.00  0.00     0.193 C 
BRANCH  21  22
ATOM     22  O5  EG2 d          -0.817  11.262  15.502  0.00  0.00    -0.387 OA
BRANCH  22  23
ATOM     23  C12 EG2 d          -0.164  12.298  14.809  0.00  0.00     0.195 C 
BRANCH  23  24
ATOM     24  C13 EG2 d           0.149  13.385  15.705  0.00  0.00     0.255 C 
BRANCH  24  25
ATOM     25  N3  EG2 d           0.389  14.615  14.972  0.00  0.00    -0.077 N 
ATOM     26  H20 EG2 d           0.605  15.356  15.620  0.00  0.00     0.274 HD
ATOM     27  H21 EG2 d          -0.435  14.859  14.446  0.00  0.00     0.274 HD
ATOM     28  H22 EG2 d           1.164  14.484  14.341  0.00  0.00     0.274 HD
ENDBRANCH  24  25
ENDBRANCH  23  24
ENDBRANCH  22  23
ENDBRANCH  21  22
ENDBRANCH  20  21
ENDBRANCH  19  20
ENDBRANCH  18  19
ENDBRANCH  17  18
ENDBRANCH   3  17
TORSDOF 12
