REMARK  7 active torsions:
REMARK  status: ('A' for Active; 'I' for Inactive)
REMARK    1  A    between atoms: CE_10  and  N1_1 
REMARK    2  A    between atoms: CA_3  and  N_2 
REMARK    3  A    between atoms: CA_3  and  C_4 
REMARK    4  A    between atoms: CB_7  and  CA_3 
REMARK    5  A    between atoms: CG_8  and  CB_7 
REMARK    6  A    between atoms: CD_9  and  CG_8 
REMARK    7  A    between atoms: CD_9  and  CE_10 
ROOT
ATOM      1  CA  MOL d          21.648 -17.099   7.003  0.00  0.00     0.283 C 
ENDROOT
BRANCH   1   2
ATOM      2  N   MOL d          21.728 -17.394   5.547  0.00  0.00    -0.065 N 
ATOM      3  H1  MOL d          22.467 -18.059   5.379  0.00  0.00     0.275 HD
ATOM      4  H2  MOL d          21.921 -16.543   5.042  0.00  0.00     0.275 HD
ATOM      5  H3  MOL d          20.851 -17.780   5.234  0.00  0.00     0.275 HD
ENDBRANCH   1   2
BRANCH   1   6
ATOM      6  C   MOL d          20.521 -16.083   7.270  0.00  0.00     0.204 C 
ATOM      7  OXT MOL d          19.827 -15.644   6.305  0.00  0.00    -0.646 OA
ATOM      8  O   MOL d          20.288 -15.689   8.452  0.00  0.00    -0.646 OA
ENDBRANCH   1   6
BRANCH   1   9
ATOM      9  CB  MOL d          23.021 -16.585   7.493  0.00  0.00     0.044 C 
BRANCH   9  10
ATOM     10  CG  MOL d          23.281 -15.135   7.083  0.00  0.00     0.004 C 
BRANCH  10  11
ATOM     11  CD  MOL d          24.635 -14.687   7.596  0.00  0.00     0.026 C 
BRANCH  11  12
ATOM     12  CE  MOL d          24.815 -13.234   7.188  0.00  0.00     0.201 C 
BRANCH  12  13
ATOM     13  N1  MOL d          26.102 -12.961   6.595  0.00  0.00    -0.156 N 
ATOM     14  O2  MOL d          26.688 -11.806   6.848  0.00  0.00    -0.537 OA
ATOM     15  O1  MOL d          26.675 -13.818   5.777  0.00  0.00    -0.537 OA
ENDBRANCH  12  13
ENDBRANCH  11  12
ENDBRANCH  10  11
ENDBRANCH   9  10
ENDBRANCH   1   9
TORSDOF 7
