REMARK  5 active torsions:
REMARK  status: ('A' for Active; 'I' for Inactive)
REMARK    1  A    between atoms: C8_9  and  S_12 
REMARK    2  A    between atoms: S_12  and  N1'_15 
REMARK    3  A    between atoms: N1'_15  and  C1'_16 
REMARK    4  A    between atoms: C1'_16  and  C2'_17 
REMARK    5  A    between atoms: C2'_17  and  N2'_18 
ROOT
ATOM      1  C1  CKI d         -26.036  52.544  48.707  0.00  0.00     0.130 A 
ATOM      2  N2  CKI d         -26.328  53.860  48.674  0.00  0.00    -0.272 NA
ATOM      3  C3  CKI d         -25.960  54.658  49.755  0.00  0.00     0.117 A 
ATOM      4  C4  CKI d         -25.262  54.186  50.905  0.00  0.00     0.033 A 
ATOM      5  C5  CKI d         -24.245  52.174  52.021  0.00  0.00     0.045 A 
ATOM      6 CL5  CKI d         -23.754  53.072  53.316  0.00  0.00    -0.083 Cl
ATOM      7  C6  CKI d         -23.913  50.801  51.975  0.00  0.00     0.026 A 
ATOM      8  C7  CKI d         -24.298  50.015  50.864  0.00  0.00     0.028 A 
ATOM      9  C8  CKI d         -24.997  50.623  49.794  0.00  0.00     0.092 A 
ATOM     10  C9  CKI d         -25.332  51.998  49.813  0.00  0.00     0.017 A 
ATOM     11  C10 CKI d         -24.943  52.794  50.923  0.00  0.00     0.000 A 
ENDROOT
BRANCH   9  12
ATOM     12  S   CKI d         -25.559  49.660  48.432  0.00  0.00     0.259 S 
ATOM     13  O2S CKI d         -26.912  49.647  48.661  0.00  0.00    -0.201 OA
ATOM     14  O1S CKI d         -24.903  48.427  48.452  0.00  0.00    -0.201 OA
BRANCH  12  15
ATOM     15  N1' CKI d         -25.444  50.418  46.910  0.00  0.00    -0.314 N 
ATOM     16  H6  CKI d         -26.209  51.036  46.730  0.00  0.00     0.172 HD
BRANCH  15  17
ATOM     17  C1' CKI d         -24.461  50.372  45.779  0.00  0.00     0.159 C 
BRANCH  17  18
ATOM     18  C2' CKI d         -24.323  48.946  45.169  0.00  0.00     0.249 C 
BRANCH  18  19
ATOM     19  N2' CKI d         -24.410  47.660  45.921  0.00  0.00    -0.078 N 
ATOM     20  H11 CKI d         -24.285  46.889  45.284  0.00  0.00     0.274 HD
ATOM     21  H12 CKI d         -25.314  47.589  46.362  0.00  0.00     0.274 HD
ATOM     22  H13 CKI d         -23.690  47.633  46.626  0.00  0.00     0.274 HD
ENDBRANCH  18  19
ENDBRANCH  17  18
ENDBRANCH  15  17
ENDBRANCH  12  15
ENDBRANCH   9  12
TORSDOF 5
