REMARK  19 active torsions:
REMARK  status: ('A' for Active; 'I' for Inactive)
REMARK    1  A    between atoms: C1_1  and  O9_9 
REMARK    2  A    between atoms: C4_4  and  C7_7 
REMARK    3  A    between atoms: C6_6  and  C27_27 
REMARK    4  A    between atoms: C7_7  and  C8_8 
REMARK    5  A    between atoms: C8_8  and  C11_11 
REMARK    6  A    between atoms: C8_8  and  N10_10 
REMARK    7  A    between atoms: O9_9  and  C23_23 
REMARK       I    between atoms: N10_10  and  C12_12 
REMARK       I    between atoms: C11_11  and  N13_13 
REMARK    8  A    between atoms: C12_12  and  C21_21 
REMARK    9  A    between atoms: N13_13  and  C15_15 
REMARK   10  A    between atoms: C15_15  and  C16_16 
REMARK   11  A    between atoms: C16_16  and  C17_17 
REMARK   12  A    between atoms: C17_17  and  C18_18 
REMARK   13  A    between atoms: C21_21  and  C30_30 
REMARK   14  A    between atoms: C21_21  and  N22_22 
REMARK       I    between atoms: N22_22  and  C37_37 
REMARK   15  A    between atoms: C23_23  and  C24_24 
REMARK   16  A    between atoms: C30_30  and  C31_31 
REMARK   17  A    between atoms: C37_37  and  C38_38 
REMARK   18  A    between atoms: C38_38  and  C39_39 
REMARK   19  A    between atoms: C39_39  and  C40_40 
ROOT
ATOM      1  C8  INX d           9.237  18.473   9.577  0.00  0.00     0.180 C 
ENDROOT
BRANCH   1   2
ATOM      2  C7  INX d           9.953  17.149   9.506  0.00  0.00     0.073 C 
BRANCH   2   3
ATOM      3  C4  INX d          11.209  17.044  10.296  0.00  0.00    -0.055 A 
ATOM      4  C3  INX d          12.445  16.640   9.687  0.00  0.00     0.010 A 
ATOM      5  C2  INX d          13.609  16.524  10.488  0.00  0.00     0.038 A 
ATOM      6  C1  INX d          13.579  16.795  11.896  0.00  0.00     0.086 A 
ATOM      7  C6  INX d          12.313  17.215  12.515  0.00  0.00     0.074 A 
ATOM      8  C5  INX d          11.184  17.323  11.689  0.00  0.00     0.028 A 
BRANCH   6   9
ATOM      9  O9  INX d          14.756  16.644  12.556  0.00  0.00    -0.340 OA
BRANCH   9  10
ATOM     10  C23 INX d          15.855  17.516  12.615  0.00  0.00     0.288 C 
BRANCH  10  11
ATOM     11  C24 INX d          17.012  16.723  13.263  0.00  0.00     0.198 C 
ATOM     12  O26 INX d          16.916  15.639  13.760  0.00  0.00    -0.646 OA
ATOM     13  O25 INX d          18.104  17.434  13.164  0.00  0.00    -0.646 OA
ENDBRANCH  10  11
ENDBRANCH   9  10
ENDBRANCH   6   9
BRANCH   7  14
ATOM     14  C27 INX d          12.200  17.544  13.970  0.00  0.00     0.212 C 
ATOM     15  O29 INX d          11.427  18.550  14.212  0.00  0.00    -0.644 OA
ATOM     16  O28 INX d          12.805  17.000  14.838  0.00  0.00    -0.644 OA
ENDBRANCH   7  14
ENDBRANCH   2   3
ENDBRANCH   1   2
BRANCH   1  17
ATOM     17  C11 INX d          10.032  19.634   8.938  0.00  0.00     0.240 C 
ATOM     18  O14 INX d          10.794  20.335   9.668  0.00  0.00    -0.271 OA
ATOM     19  N13 INX d           9.958  19.579   7.606  0.00  0.00    -0.359 N 
ATOM     20  H8  INX d           9.265  18.956   7.242  0.00  0.00     0.162 HD
BRANCH  19  21
ATOM     21  C15 INX d          10.729  20.285   6.617  0.00  0.00     0.122 C 
BRANCH  21  22
ATOM     22  C16 INX d          11.883  19.329   6.169  0.00  0.00     0.020 C 
BRANCH  22  23
ATOM     23  C17 INX d          11.272  17.925   5.911  0.00  0.00     0.001 C 
BRANCH  23  24
ATOM     24  C18 INX d          11.552  17.394   4.502  0.00  0.00    -0.004 C 
ATOM     25  C19 INX d          12.518  16.208   4.523  0.00  0.00     0.005 C 
ENDBRANCH  23  24
ENDBRANCH  22  23
ENDBRANCH  21  22
ENDBRANCH  19  21
ENDBRANCH   1  17
BRANCH   1  26
ATOM     26  N10 INX d           7.920  18.349   8.893  0.00  0.00    -0.346 N 
ATOM     27  C12 INX d           7.062  19.387   9.046  0.00  0.00     0.241 C 
ATOM     28  O20 INX d           7.230  20.330   9.812  0.00  0.00    -0.271 OA
ATOM     29  H7  INX d           7.682  17.544   8.350  0.00  0.00     0.163 HD
BRANCH  27  30
ATOM     30  C21 INX d           5.693  19.286   8.405  0.00  0.00     0.180 C 
BRANCH  30  31
ATOM     31  C30 INX d           5.645  20.421   7.361  0.00  0.00     0.073 C 
BRANCH  31  32
ATOM     32  C31 INX d           4.331  20.224   6.612  0.00  0.00    -0.056 A 
ATOM     33  C36 INX d           3.156  20.817   7.151  0.00  0.00     0.007 A 
ATOM     34  C35 INX d           1.927  20.620   6.415  0.00  0.00     0.001 A 
ATOM     35  C34 INX d           1.928  19.849   5.214  0.00  0.00     0.000 A 
ATOM     36  C33 INX d           3.108  19.246   4.704  0.00  0.00     0.001 A 
ATOM     37  C32 INX d           4.346  19.433   5.400  0.00  0.00     0.007 A 
ENDBRANCH  31  32
ENDBRANCH  30  31
BRANCH  30  38
ATOM     38  N22 INX d           4.698  19.513   9.483  0.00  0.00    -0.347 N 
ATOM     39  C37 INX d           3.913  18.502   9.900  0.00  0.00     0.218 C 
ATOM     40  O43 INX d           4.001  17.373   9.352  0.00  0.00    -0.274 OA
ATOM     41  H21 INX d           4.611  20.418   9.900  0.00  0.00     0.163 HD
BRANCH  39  42
ATOM     42  C38 INX d           2.813  18.770  10.925  0.00  0.00     0.113 C 
BRANCH  42  43
ATOM     43  C39 INX d           2.015  17.497  11.297  0.00  0.00     0.122 C 
BRANCH  43  44
ATOM     44  C40 INX d           0.686  17.329  10.515  0.00  0.00     0.172 C 
ATOM     45  O42 INX d           0.373  16.018  10.289  0.00  0.00    -0.648 OA
ATOM     46  O41 INX d          -0.037  18.225  10.114  0.00  0.00    -0.648 OA
ENDBRANCH  43  44
ENDBRANCH  42  43
ENDBRANCH  39  42
ENDBRANCH  30  38
ENDBRANCH  27  30
ENDBRANCH   1  26
TORSDOF 19
