REMARK  7 active torsions:
REMARK  status: ('A' for Active; 'I' for Inactive)
REMARK    1  A    between atoms: C7B_14  and  C1_1 
REMARK    2  A    between atoms: C1_1  and  C2_16 
REMARK    3  A    between atoms: C2B_3  and  O2B_8 
REMARK    4  A    between atoms: C3B_4  and  O3B_9 
REMARK    5  A    between atoms: C4B_5  and  O4B_10 
REMARK    6  A    between atoms: C5B_6  and  C6B_7 
REMARK    7  A    between atoms: C6B_7  and  O6B_12 
ROOT
ATOM      1  C1B GI4 d          -0.985  10.753  10.669  0.00  0.00     0.138 A 
ATOM      2  C2B GI4 d           0.005  11.523   9.799  0.00  0.00     0.219 C 
ATOM      3  C3B GI4 d          -0.579  11.799   8.411  0.00  0.00     0.185 C 
ATOM      4  C4B GI4 d          -1.371  10.556   7.929  0.00  0.00     0.175 C 
ATOM      5  C5B GI4 d          -2.628  10.366   8.832  0.00  0.00     0.145 C 
ATOM      6  N1B GI4 d          -2.206  10.192  10.236  0.00  0.00    -0.332 N 
ATOM      7  N2B GI4 d          -0.866  10.441  11.935  0.00  0.00    -0.235 NA
ATOM      8  C7B GI4 d          -1.914   9.717  12.332  0.00  0.00     0.062 A 
ATOM      9  C8B GI4 d          -2.748   9.570  11.299  0.00  0.00     0.120 A 
ENDROOT
BRANCH   8  10
ATOM     10  C1  GI4 d          -2.029   9.328  13.813  0.00  0.00     0.173 C 
BRANCH  10  11
ATOM     11  C2  GI4 d          -1.491   7.981  14.236  0.00  0.00     0.178 C 
ATOM     12  O1  GI4 d          -0.359   7.663  13.849  0.00  0.00    -0.648 OA
ATOM     13  O5  GI4 d          -2.227   7.317  14.996  0.00  0.00    -0.648 OA
ENDBRANCH  10  11
ENDBRANCH   8  10
BRANCH   2  14
ATOM     14  O2B GI4 d           0.368  12.758  10.424  0.00  0.00    -0.385 OA
ATOM     15  H9  GI4 d           0.730  12.582  11.285  0.00  0.00     0.210 HD
ENDBRANCH   2  14
BRANCH   5  16
ATOM     16  C6B GI4 d          -3.544   9.226   8.401  0.00  0.00     0.192 C 
BRANCH  16  17
ATOM     17  O6B GI4 d          -2.903   7.979   8.638  0.00  0.00    -0.399 OA
ATOM     18  H12 GI4 d          -2.709   7.895   9.564  0.00  0.00     0.209 HD
ENDBRANCH  16  17
ENDBRANCH   5  16
BRANCH   3  19
ATOM     19  O3B GI4 d           0.541  12.079   7.594  0.00  0.00    -0.390 OA
ATOM     20  H10 GI4 d           0.250  12.244   6.705  0.00  0.00     0.210 HD
ENDBRANCH   3  19
BRANCH   4  21
ATOM     21  O4B GI4 d          -1.818  10.761   6.605  0.00  0.00    -0.391 OA
ATOM     22  H11 GI4 d          -1.068  10.880   6.034  0.00  0.00     0.210 HD
ENDBRANCH   4  21
TORSDOF 7
