REMARK  12 active torsions:
REMARK  status: ('A' for Active; 'I' for Inactive)
REMARK    1  A    between atoms: C7_7  and  O2_15 
REMARK    2  A    between atoms: C15_17  and  C9_10 
REMARK    3  A    between atoms: C16_18  and  C15_17 
REMARK    4  A    between atoms: C17_19  and  C16_18 
REMARK    5  A    between atoms: C18_20  and  C17_19 
REMARK    6  A    between atoms: C20_22  and  C18_20 
REMARK    7  A    between atoms: C21_23  and  C20_22 
REMARK    8  A    between atoms: C23_25  and  C22_24 
REMARK    9  A    between atoms: C23_25  and  C24_26 
REMARK   10  A    between atoms: C24_26  and  C25_27 
REMARK   11  A    between atoms: C25_27  and  C26_28 
REMARK   12  A    between atoms: C26_28  and  C27_29 
ROOT
ATOM      1  C2  VIT d          15.625  22.883  46.672  0.00  0.00    -0.019 A 
ATOM      2  C3  VIT d          15.238  22.624  45.314  0.00  0.00    -0.015 A 
ATOM      3  C4  VIT d          16.179  22.102  44.381  0.00  0.00     0.083 A 
ATOM      4  C5  VIT d          17.532  21.829  44.784  0.00  0.00    -0.019 A 
ATOM      5  C6  VIT d          17.932  22.088  46.154  0.00  0.00    -0.020 A 
ATOM      6  C7  VIT d          16.975  22.615  47.090  0.00  0.00     0.078 A 
ATOM      7  C8  VIT d          14.619  23.394  47.680  0.00  0.00     0.052 C 
ATOM      8  O1  VIT d          15.737  21.857  43.044  0.00  0.00    -0.339 OA
ATOM      9  C9  VIT d          14.812  22.759  42.256  0.00  0.00     0.064 C 
ATOM     10  C10 VIT d          13.777  22.890  44.774  0.00  0.00     0.045 C 
ATOM     11  C11 VIT d          13.595  23.201  43.229  0.00  0.00     0.043 C 
ATOM     12  C12 VIT d          18.497  21.340  43.706  0.00  0.00     0.052 C 
ATOM     13  C13 VIT d          19.307  21.744  46.315  0.00  0.00     0.052 C 
ATOM     14  C14 VIT d          14.855  23.900  41.274  0.00  0.00     0.046 C 
ENDROOT
BRANCH   9  15
ATOM     15  C15 VIT d          13.653  21.368  42.015  0.00  0.00     0.038 C 
BRANCH  15  16
ATOM     16  C16 VIT d          12.596  19.832  41.243  0.00  0.00     0.003 C 
BRANCH  16  17
ATOM     17  C17 VIT d          12.548  18.917  39.594  0.00  0.00     0.004 C 
BRANCH  17  18
ATOM     18  C18 VIT d          11.170  19.132  38.455  0.00  0.00    -0.015 C 
ATOM     19  C19 VIT d           9.912  19.966  38.542  0.00  0.00     0.010 C 
BRANCH  18  20
ATOM     20  C20 VIT d          10.731  17.622  38.565  0.00  0.00     0.031 C 
BRANCH  20  21
ATOM     21  C21 VIT d           9.511  16.930  38.660  0.00  0.00    -0.030 C 
ATOM     22  C22 VIT d           9.010  15.742  38.153  0.00  0.00    -0.023 C 
BRANCH  22  23
ATOM     23  C23 VIT d           7.482  15.299  37.907  0.00  0.00     0.026 C 
ATOM     24  C1  VIT d           6.410  15.409  39.000  0.00  0.00     0.018 C 
BRANCH  23  25
ATOM     25  C24 VIT d           7.399  13.767  37.666  0.00  0.00    -0.023 C 
BRANCH  25  26
ATOM     26  C25 VIT d           5.943  13.297  37.442  0.00  0.00    -0.030 C 
BRANCH  26  27
ATOM     27  C26 VIT d           5.922  11.805  37.225  0.00  0.00     0.030 C 
BRANCH  27  28
ATOM     28  C27 VIT d           4.469  11.305  36.996  0.00  0.00    -0.019 C 
ATOM     29  C29 VIT d           4.468   9.777  36.800  0.00  0.00     0.010 C 
ATOM     30  C28 VIT d           3.860  11.962  35.732  0.00  0.00     0.010 C 
ENDBRANCH  27  28
ENDBRANCH  26  27
ENDBRANCH  25  26
ENDBRANCH  23  25
ENDBRANCH  22  23
ENDBRANCH  20  21
ENDBRANCH  18  20
ENDBRANCH  17  18
ENDBRANCH  16  17
ENDBRANCH  15  16
ENDBRANCH   9  15
BRANCH   6  31
ATOM     31  O2  VIT d          17.202  22.826  48.477  0.00  0.00    -0.360 OA
ATOM     32  H17 VIT d          18.109  22.631  48.681  0.00  0.00     0.217 HD
ENDBRANCH   6  31
TORSDOF 12
