REMARK  6 active torsions:
REMARK  status: ('A' for Active; 'I' for Inactive)
REMARK    1  A    between atoms: O41_41  and  C1_1 
REMARK    2  A    between atoms: C39_39  and  C7_7 
REMARK    3  A    between atoms: C9_9  and  O41_41 
REMARK    4  A    between atoms: C37_37  and  C13_13 
REMARK       I    between atoms: C34_34  and  N19_19 
REMARK    5  A    between atoms: C20_20  and  C37_37 
REMARK       I    between atoms: N27_27  and  C34_34 
REMARK    6  A    between atoms: N38_38  and  C31_31 
REMARK       I    between atoms: N38_38  and  C39_39 
ROOT
ATOM      1  N19 N53 d          44.842  23.180  16.869  0.00  0.00    -0.227 NA
ATOM      2  C20 N53 d          45.540  23.891  15.784  0.00  0.00     0.097 C 
ATOM      3  C21 N53 d          45.197  23.190  14.421  0.00  0.00     0.255 C 
ATOM      4  N22 N53 d          43.737  23.292  14.211  0.00  0.00    -0.072 N 
ATOM      5  C23 N53 d          43.024  22.594  15.316  0.00  0.00     0.249 C 
ATOM      6  C24 N53 d          43.373  23.254  16.646  0.00  0.00     0.128 C 
ATOM      7  C25 N53 d          44.661  22.189  21.425  0.00  0.00     0.067 A 
ATOM      8  C26 N53 d          44.642  21.457  19.219  0.00  0.00     0.173 C 
ATOM      9  N27 N53 d          44.948  22.928  19.295  0.00  0.00    -0.320 N 
ATOM     10  C28 N53 d          45.081  23.445  20.692  0.00  0.00     0.074 C 
ATOM     11  N29 N53 d          44.417  21.967  22.720  0.00  0.00    -0.277 N 
ATOM     12  N30 N53 d          44.053  20.619  22.817  0.00  0.00    -0.156 NA
ATOM     13  C31 N53 d          44.080  20.082  21.578  0.00  0.00     0.160 A 
ATOM     14  C32 N53 d          46.521  23.895  21.031  0.00  0.00     0.045 C 
ATOM     15  C33 N53 d          44.083  24.567  21.054  0.00  0.00     0.045 C 
ATOM     16  C34 N53 d          45.073  23.735  18.223  0.00  0.00     0.300 C 
ATOM     17  O35 N53 d          45.393  24.922  18.354  0.00  0.00    -0.254 OA
ATOM     18  C36 N53 d          43.348  22.816  12.874  0.00  0.00     0.269 C 
ATOM     19  C42 N53 d          44.461  21.083  20.640  0.00  0.00     0.034 A 
ATOM     20  H18 N53 d          43.487  24.267  14.260  0.00  0.00     0.279 HD
ATOM     21  H25 N53 d          44.483  22.648  23.489  0.00  0.00     0.189 HD
ENDROOT
BRANCH  13  22
ATOM     22  N38 N53 d          43.726  18.676  21.241  0.00  0.00    -0.305 N 
ATOM     23  C39 N53 d          44.021  18.134  20.052  0.00  0.00     0.257 C 
ATOM     24  O40 N53 d          44.607  18.777  19.188  0.00  0.00    -0.267 OA
ATOM     25  H37 N53 d          43.253  18.119  21.924  0.00  0.00     0.170 HD
BRANCH  23  26
ATOM     26  C7  N53 d          43.617  16.738  19.868  0.00  0.00     0.035 A 
ATOM     27  C8  N53 d          43.566  16.178  18.560  0.00  0.00     0.054 A 
ATOM     28  C9  N53 d          43.156  14.821  18.380  0.00  0.00     0.077 A 
ATOM     29  C10 N53 d          42.814  14.018  19.523  0.00  0.00     0.037 A 
ATOM     30  C11 N53 d          42.888  14.568  20.833  0.00  0.00     0.004 A 
ATOM     31  C12 N53 d          43.296  15.927  21.004  0.00  0.00     0.017 A 
BRANCH  28  32
ATOM     32  O41 N53 d          43.040  14.409  16.985  0.00  0.00    -0.311 OA
BRANCH  32  33
ATOM     33  C1  N53 d          43.297  13.082  16.466  0.00  0.00     0.076 A 
ATOM     34  C2  N53 d          42.409  12.669  15.423  0.00  0.00     0.037 A 
ATOM     35  C3  N53 d          42.641  11.442  14.734  0.00  0.00     0.003 A 
ATOM     36  C4  N53 d          43.754  10.628  15.112  0.00  0.00     0.000 A 
ATOM     37  C5  N53 d          44.633  11.013  16.168  0.00  0.00     0.003 A 
ATOM     38  C6  N53 d          44.401  12.240  16.850  0.00  0.00     0.037 A 
ENDBRANCH  32  33
ENDBRANCH  28  32
ENDBRANCH  23  26
ENDBRANCH  13  22
BRANCH   2  39
ATOM     39  C37 N53 d          47.055  24.034  16.110  0.00  0.00     0.060 C 
BRANCH  39  40
ATOM     40  C13 N53 d          47.865  24.888  15.213  0.00  0.00    -0.057 A 
ATOM     41  C14 N53 d          47.302  25.977  14.467  0.00  0.00     0.007 A 
ATOM     42  C15 N53 d          48.154  26.849  13.724  0.00  0.00     0.001 A 
ATOM     43  C16 N53 d          49.565  26.619  13.719  0.00  0.00     0.000 A 
ATOM     44  C17 N53 d          50.135  25.521  14.444  0.00  0.00     0.001 A 
ATOM     45  C18 N53 d          49.277  24.649  15.186  0.00  0.00     0.007 A 
ENDBRANCH  39  40
ENDBRANCH   2  39
TORSDOF 6
