REMARK  4 active torsions:
REMARK  status: ('A' for Active; 'I' for Inactive)
REMARK    1  A    between atoms: C30_2  and  C19_4 
REMARK       I    between atoms: C19_4  and  N18_6 
REMARK    2  A    between atoms: N18_6  and  C20_7 
REMARK    3  A    between atoms: N18_6  and  C11_16 
REMARK    4  A    between atoms: C25_12  and  C31_13 
ROOT
ATOM      1  C19 MOL d          34.943  27.662  23.143  0.00  0.00     0.329 C 
ATOM      2  O34 MOL d          34.868  26.739  23.979  0.00  0.00    -0.260 OA
ATOM      3  N18 MOL d          34.901  27.466  21.672  0.00  0.00    -0.272 N 
ENDROOT
BRANCH   3   4
ATOM      4  C20 MOL d          34.748  26.133  21.145  0.00  0.00     0.060 A 
ATOM      5  C21 MOL d          33.511  25.834  20.436  0.00  0.00     0.031 A 
ATOM      6  C22 MOL d          33.255  24.536  19.884  0.00  0.00     0.002 A 
ATOM      7  C23 MOL d          34.208  23.502  20.024  0.00  0.00     0.001 A 
ATOM      8  C24 MOL d          35.429  23.730  20.711  0.00  0.00     0.021 A 
ATOM      9  C25 MOL d          35.752  25.025  21.287  0.00  0.00     0.068 A 
BRANCH   9  10
ATOM     10  C31 MOL d          37.073  25.161  21.986  0.00  0.00     0.211 C 
ATOM     11  O32 MOL d          37.834  24.185  22.088  0.00  0.00    -0.644 OA
ATOM     12  O33 MOL d          37.377  26.228  22.440  0.00  0.00    -0.644 OA
ENDBRANCH   9  10
ENDBRANCH   3   4
BRANCH   3  13
ATOM     13  C11 MOL d          34.998  28.563  20.785  0.00  0.00     0.054 A 
ATOM     14  C12 MOL d          36.249  28.781  20.109  0.00  0.00     0.031 A 
ATOM     15  C13 MOL d          36.427  29.869  19.193  0.00  0.00     0.003 A 
ATOM     16  C14 MOL d          35.350  30.762  18.938  0.00  0.00     0.012 A 
ATOM     17  C2  MOL d          34.083  30.589  19.590  0.00  0.00    -0.024 A 
ATOM     18  C1  MOL d          33.885  29.478  20.530  0.00  0.00     0.001 A 
ATOM     19  C3  MOL d          33.021  31.494  19.324  0.00  0.00     0.012 A 
ATOM     20  C6  MOL d          32.594  29.326  21.172  0.00  0.00     0.014 A 
ATOM     21  C5  MOL d          31.553  30.251  20.883  0.00  0.00     0.001 A 
ATOM     22  C4  MOL d          31.766  31.336  19.957  0.00  0.00     0.001 A 
ENDBRANCH   3  13
BRANCH   1  23
ATOM     23  C30 MOL d          35.069  29.048  23.796  0.00  0.00     0.270 C 
ATOM     24  O35 MOL d          36.061  29.830  23.553  0.00  0.00    -0.640 OA
ATOM     25  O36 MOL d          34.127  29.405  24.536  0.00  0.00    -0.640 OA
ENDBRANCH   1  23
TORSDOF 4
