REMARK  20 active torsions:
REMARK  status: ('A' for Active; 'I' for Inactive)
REMARK    1  A    between atoms: CAX_5  and  CAW_6 
REMARK    2  A    between atoms: CAW_6  and  CAV_7 
REMARK    3  A    between atoms: CAV_7  and  CAT_8 
REMARK    4  A    between atoms: CAT_8  and  CAS_10 
REMARK    5  A    between atoms: CAS_10  and  CAR_11 
REMARK    6  A    between atoms: CAR_11  and  CAQ_12 
REMARK    7  A    between atoms: CAQ_12  and  CAO_13 
REMARK    8  A    between atoms: CAO_13  and  CAN_15 
REMARK    9  A    between atoms: CAN_15  and  CAM_16 
REMARK   10  A    between atoms: CAM_16  and  CAL_17 
REMARK   11  A    between atoms: CAL_17  and  CAK_18 
REMARK   12  A    between atoms: CAK_18  and  CAJ_19 
REMARK   13  A    between atoms: CAJ_19  and  CAI_21 
REMARK   14  A    between atoms: CAI_21  and  CAH_22 
REMARK   15  A    between atoms: CAH_22  and  CAG_23 
REMARK   16  A    between atoms: CAG_23  and  CAF_24 
REMARK   17  A    between atoms: CAF_24  and  CAE_26 
REMARK   18  A    between atoms: CAE_26  and  CAD_27 
REMARK   19  A    between atoms: CAD_27  and  CAC_28 
REMARK   20  A    between atoms: CAC_28  and  CAB_29 
ROOT
ATOM      1  CAM MOL d          93.136   7.604   8.139  0.00  0.00     0.000 C 
ENDROOT
BRANCH   1   2
ATOM      2  CAN MOL d          92.919   6.668   9.327  0.00  0.00     0.004 C 
BRANCH   2   3
ATOM      3  CAO MOL d          93.651   5.366   9.266  0.00  0.00    -0.019 C 
ATOM      4  CAP MOL d          94.577   5.071   8.101  0.00  0.00     0.010 C 
BRANCH   3   5
ATOM      5  CAQ MOL d          93.483   4.357  10.373  0.00  0.00     0.004 C 
BRANCH   5   6
ATOM      6  CAR MOL d          92.880   3.097   9.777  0.00  0.00     0.001 C 
BRANCH   6   7
ATOM      7  CAS MOL d          91.416   3.390   9.506  0.00  0.00     0.004 C 
BRANCH   7   8
ATOM      8  CAT MOL d          90.533   2.165   9.410  0.00  0.00    -0.019 C 
ATOM      9  CAU MOL d          91.150   0.792   9.654  0.00  0.00     0.010 C 
BRANCH   8  10
ATOM     10  CAV MOL d          89.023   2.366   9.258  0.00  0.00     0.007 C 
BRANCH  10  11
ATOM     11  CAW MOL d          88.338   1.494   8.241  0.00  0.00     0.035 C 
BRANCH  11  12
ATOM     12  CAX MOL d          86.829   1.558   8.501  0.00  0.00     0.156 A 
ATOM     13  CAY MOL d          86.036   1.096   7.346  0.00  0.00     0.080 A 
ATOM     14  CBA MOL d          84.621   1.606   7.060  0.00  0.00     0.048 C 
ATOM     15  CBB MOL d          86.864   0.836   6.105  0.00  0.00     0.048 C 
ATOM     16  OAZ MOL d          86.137   0.250   8.524  0.00  0.00    -0.370 OA
ENDBRANCH  11  12
ENDBRANCH  10  11
ENDBRANCH   8  10
ENDBRANCH   7   8
ENDBRANCH   6   7
ENDBRANCH   5   6
ENDBRANCH   3   5
ENDBRANCH   2   3
ENDBRANCH   1   2
BRANCH   1  17
ATOM     17  CAL MOL d          91.760   8.172   7.906  0.00  0.00     0.000 C 
BRANCH  17  18
ATOM     18  CAK MOL d          91.666   9.088   6.689  0.00  0.00     0.004 C 
BRANCH  18  19
ATOM     19  CAJ MOL d          91.285  10.509   7.053  0.00  0.00    -0.019 C 
ATOM     20  CBC MOL d          91.022  10.906   8.508  0.00  0.00     0.010 C 
BRANCH  19  21
ATOM     21  CAI MOL d          91.024  11.514   5.966  0.00  0.00     0.004 C 
BRANCH  21  22
ATOM     22  CAH MOL d          89.511  11.749   5.987  0.00  0.00     0.001 C 
BRANCH  22  23
ATOM     23  CAG MOL d          89.001  12.116   4.608  0.00  0.00     0.004 C 
BRANCH  23  24
ATOM     24  CAF MOL d          87.919  13.185   4.522  0.00  0.00    -0.019 C 
ATOM     25  CBD MOL d          87.338  13.838   5.767  0.00  0.00     0.010 C 
BRANCH  24  26
ATOM     26  CAE MOL d          87.327  13.531   3.163  0.00  0.00     0.004 C 
BRANCH  26  27
ATOM     27  CAD MOL d          86.208  12.505   2.913  0.00  0.00     0.001 C 
BRANCH  27  28
ATOM     28  CAC MOL d          84.994  12.854   3.780  0.00  0.00     0.004 C 
BRANCH  28  29
ATOM     29  CAB MOL d          84.323  11.703   4.531  0.00  0.00    -0.023 C 
ATOM     30  CBE MOL d          84.867  10.275   4.436  0.00  0.00     0.009 C 
ATOM     31  CAA MOL d          83.104  11.989   5.406  0.00  0.00     0.009 C 
ENDBRANCH  28  29
ENDBRANCH  27  28
ENDBRANCH  26  27
ENDBRANCH  24  26
ENDBRANCH  23  24
ENDBRANCH  22  23
ENDBRANCH  21  22
ENDBRANCH  19  21
ENDBRANCH  18  19
ENDBRANCH  17  18
ENDBRANCH   1  17
TORSDOF 20
