REMARK  6 active torsions:
REMARK  status: ('A' for Active; 'I' for Inactive)
REMARK    1  A    between atoms: C6_6  and  O25_25 
REMARK    2  A    between atoms: C10_10  and  O28_28 
REMARK    3  A    between atoms: C11_11  and  O30_30 
REMARK    4  A    between atoms: C15_15  and  O33_33 
REMARK    5  A    between atoms: C16_16  and  O37_37 
REMARK    6  A    between atoms: O33_33  and  C34_34 
REMARK       I    between atoms: C34_34  and  N36_36 
ROOT
ATOM      1  C1  GMY d          25.894 -34.136  -5.636  0.00  0.00     0.099 A 
ATOM      2  C2  GMY d          26.024 -33.919  -4.129  0.00  0.00     0.183 A 
ATOM      3  C3  GMY d          25.439 -32.657  -3.495  0.00  0.00     0.085 A 
ATOM      4  C4  GMY d          24.768 -31.641  -4.310  0.00  0.00     0.086 A 
ATOM      5  C5  GMY d          24.650 -31.848  -5.822  0.00  0.00     0.181 A 
ATOM      6  C6  GMY d          25.217 -33.124  -6.449  0.00  0.00     0.206 A 
ATOM      7  C7  GMY d          25.931 -35.585  -6.141  0.00  0.00     0.020 C 
ATOM      8  C8  GMY d          24.492 -36.083  -5.944  0.00  0.00    -0.015 C 
ATOM      9  C9  GMY d          23.789 -36.146  -7.314  0.00  0.00     0.038 C 
ATOM     10  C10 GMY d          22.519 -37.000  -7.199  0.00  0.00     0.150 C 
ATOM     11  C11 GMY d          21.550 -36.524  -8.295  0.00  0.00     0.154 C 
ATOM     12  C12 GMY d          21.041 -35.092  -8.000  0.00  0.00     0.035 C 
ATOM     13  C13 GMY d          20.362 -35.026  -6.623  0.00  0.00    -0.015 C 
ATOM     14  C14 GMY d          20.380 -33.824  -5.787  0.00  0.00    -0.055 C 
ATOM     15  C15 GMY d          19.633 -33.895  -4.450  0.00  0.00     0.191 C 
ATOM     16  C16 GMY d          20.646 -33.873  -3.295  0.00  0.00     0.154 C 
ATOM     17  C17 GMY d          21.113 -35.298  -2.990  0.00  0.00     0.035 C 
ATOM     18  C18 GMY d          22.214 -35.448  -2.029  0.00  0.00     0.004 C 
ATOM     19  C19 GMY d          23.498 -34.667  -2.308  0.00  0.00     0.013 C 
ATOM     20  C20 GMY d          24.651 -34.750  -1.402  0.00  0.00     0.074 C 
ATOM     21  C21 GMY d          25.294 -33.412  -1.028  0.00  0.00     0.226 C 
ATOM     22  N22 GMY d          25.562 -32.420  -2.059  0.00  0.00    -0.324 N 
ATOM     23  O23 GMY d          26.571 -34.751  -3.449  0.00  0.00    -0.290 OA
ATOM     24  O24 GMY d          24.103 -31.037  -6.511  0.00  0.00    -0.290 OA
ATOM     25  C27 GMY d          24.512 -37.434  -5.222  0.00  0.00     0.010 C 
ATOM     26  C31 GMY d          19.967 -34.717  -9.041  0.00  0.00     0.017 C 
ATOM     27  C32 GMY d          21.088 -32.522  -6.213  0.00  0.00     0.046 C 
ATOM     28  C39 GMY d          24.792 -35.922  -0.425  0.00  0.00     0.020 C 
ATOM     29  O40 GMY d          25.560 -33.145   0.110  0.00  0.00    -0.273 OA
ATOM     30  H22 GMY d          25.851 -31.510  -1.762  0.00  0.00     0.169 HD
ENDROOT
BRANCH  15  31
ATOM     31  O33 GMY d          18.798 -32.745  -4.292  0.00  0.00    -0.292 OA
BRANCH  31  32
ATOM     32  C34 GMY d          17.640 -32.715  -5.123  0.00  0.00     0.359 C 
ATOM     33  O35 GMY d          17.361 -33.610  -5.869  0.00  0.00    -0.239 OA
ATOM     34  N36 GMY d          16.784 -31.531  -5.020  0.00  0.00    -0.346 N 
ATOM     35  H39 GMY d          15.959 -31.460  -5.581  0.00  0.00     0.161 HD
ATOM     36  H40 GMY d          17.024 -30.794  -4.389  0.00  0.00     0.161 HD
ENDBRANCH  31  32
ENDBRANCH  15  31
BRANCH  16  37
ATOM     37  O37 GMY d          19.995 -33.384  -2.121  0.00  0.00    -0.388 OA
ATOM     38  C38 GMY d          18.976 -34.305  -1.710  0.00  0.00     0.202 C 
ENDBRANCH  16  37
BRANCH  11  39
ATOM     39  O30 GMY d          22.282 -36.509  -9.527  0.00  0.00    -0.392 OA
ATOM     40  H32 GMY d          22.599 -37.384  -9.717  0.00  0.00     0.210 HD
ENDBRANCH  11  39
BRANCH  10  41
ATOM     41  O28 GMY d          22.908 -38.366  -7.442  0.00  0.00    -0.388 OA
ATOM     42  C29 GMY d          21.775 -39.236  -7.485  0.00  0.00     0.202 C 
ENDBRANCH  10  41
BRANCH   6  43
ATOM     43  O25 GMY d          25.107 -33.296  -7.849  0.00  0.00    -0.382 OA
ATOM     44  C26 GMY d          26.233 -32.621  -8.422  0.00  0.00     0.202 C 
ENDBRANCH   6  43
TORSDOF 6
