REMARK  5 active torsions:
REMARK  status: ('A' for Active; 'I' for Inactive)
REMARK    1  A    between atoms: C3_3  and  C6_5 
REMARK    2  A    between atoms: C4_4  and  C7_6 
REMARK    3  A    between atoms: C14_9  and  O33_19 
REMARK    4  A    between atoms: C21_12  and  O30_18 
REMARK    5  A    between atoms: C23_14  and  O29_17 
ROOT
ATOM      1  N1  YI0 d          30.123   9.024  28.013  0.00  0.00    -0.110 NA
ATOM      2  N2  YI0 d          30.009   9.918  27.077  0.00  0.00    -0.141 NA
ATOM      3  C3  YI0 d          30.821   9.608  26.027  0.00  0.00     0.112 A 
ATOM      4  C4  YI0 d          31.609   8.449  26.171  0.00  0.00     0.067 A 
ATOM      5  S1  YI0 d          31.167   7.815  27.750  0.00  0.00     0.037 SA
ENDROOT
BRANCH   3   6
ATOM      6  C6  YI0 d          30.882  10.436  24.848  0.00  0.00     0.031 C 
ATOM      7  C21 YI0 d          29.744  10.838  24.178  0.00  0.00     0.081 C 
ATOM      8  C22 YI0 d          29.738  11.592  22.957  0.00  0.00     0.075 C 
ATOM      9  C23 YI0 d          31.004  12.083  22.596  0.00  0.00     0.090 C 
ATOM     10  C24 YI0 d          32.132  11.689  23.322  0.00  0.00     0.068 C 
ATOM     11  C25 YI0 d          32.159  10.908  24.424  0.00  0.00     0.043 C 
ATOM     12 CL   YI0 d          33.721  12.374  22.791  0.00  0.00    -0.081 Cl
BRANCH   7  13
ATOM     13  O30 YI0 d          28.537  10.435  24.606  0.00  0.00    -0.360 OA
ATOM     14  H8  YI0 d          28.636   9.947  25.415  0.00  0.00     0.217 HD
ENDBRANCH   7  13
BRANCH   9  15
ATOM     15  O29 YI0 d          31.140  12.729  21.409  0.00  0.00    -0.359 OA
ATOM     16  H7  YI0 d          30.280  12.921  21.054  0.00  0.00     0.217 HD
ENDBRANCH   9  15
ENDBRANCH   3   6
BRANCH   4  17
ATOM     17  C7  YI0 d          32.556   7.824  25.341  0.00  0.00    -0.015 A 
ATOM     18  C12 YI0 d          32.205   7.414  24.078  0.00  0.00     0.015 A 
ATOM     19  C13 YI0 d          33.039   6.812  23.184  0.00  0.00     0.037 A 
ATOM     20  C14 YI0 d          34.376   6.692  23.511  0.00  0.00     0.068 A 
ATOM     21  C15 YI0 d          34.802   7.088  24.770  0.00  0.00     0.037 A 
ATOM     22  C16 YI0 d          33.894   7.647  25.649  0.00  0.00     0.015 A 
BRANCH  20  23
ATOM     23  O33 YI0 d          35.339   6.107  22.755  0.00  0.00    -0.356 OA
ATOM     24  C34 YI0 d          34.962   5.745  21.402  0.00  0.00     0.210 C 
ENDBRANCH  20  23
ENDBRANCH   4  17
TORSDOF 5
