REMARK  7 active torsions:
REMARK  status: ('A' for Active; 'I' for Inactive)
REMARK    1  A    between atoms: N3_2  and  C11_3 
REMARK    2  A    between atoms: C10_4  and  S1_24 
REMARK    3  A    between atoms: C13_7  and  C16_9 
REMARK    4  A    between atoms: C18_13  and  N1_14 
REMARK       I    between atoms: N2_17  and  C23_20 
REMARK    5  A    between atoms: S1_24  and  C1_25 
REMARK    6  A    between atoms: C2_26  and  O7_31 
REMARK    7  A    between atoms: O7_31  and  C9_32 
ROOT
ATOM      1  C11 L08 d           2.049  -4.793  -6.919  0.00  0.00     0.120 A 
ATOM      2  C10 L08 d           3.229  -5.687  -6.861  0.00  0.00     0.038 A 
ATOM      3  C15 L08 d           3.029  -7.140  -7.106  0.00  0.00     0.022 A 
ATOM      4  C14 L08 d           1.744  -7.697  -7.392  0.00  0.00     0.014 A 
ATOM      5  C13 L08 d           0.542  -6.851  -7.462  0.00  0.00    -0.023 A 
ATOM      6  C12 L08 d           0.708  -5.424  -7.226  0.00  0.00     0.049 A 
ENDROOT
BRANCH   5   7
ATOM      7  C16 L08 d          -0.809  -7.493  -7.763  0.00  0.00    -0.021 A 
ATOM      8  C8  L08 d          -1.887  -6.801  -8.473  0.00  0.00     0.031 A 
ATOM      9  C35 L08 d          -3.112  -7.534  -8.679  0.00  0.00     0.120 A 
ATOM     10  N20 L08 d          -3.281  -8.894  -8.206  0.00  0.00    -0.243 NA
ATOM     11  C18 L08 d          -2.355  -9.552  -7.570  0.00  0.00     0.126 A 
ATOM     12  C17 L08 d          -1.019  -8.855  -7.307  0.00  0.00     0.062 A 
BRANCH  11  13
ATOM     13  N1  L08 d          -2.520 -10.903  -7.087  0.00  0.00    -0.364 N 
ATOM     14  C19 L08 d          -3.302 -10.987  -5.864  0.00  0.00     0.139 C 
ATOM     15  C20 L08 d          -4.414 -11.963  -6.092  0.00  0.00     0.118 C 
ATOM     16  N2  L08 d          -3.849 -13.246  -6.662  0.00  0.00    -0.251 NA
ATOM     17  C21 L08 d          -3.062 -13.109  -7.965  0.00  0.00     0.118 C 
ATOM     18  C23 L08 d          -4.897 -14.193  -6.872  0.00  0.00     0.195 C 
ATOM     19  C22 L08 d          -1.899 -12.036  -7.794  0.00  0.00     0.139 C 
ATOM     20  O2  L08 d          -4.890 -15.321  -6.292  0.00  0.00    -0.280 OA
ATOM     21  C24 L08 d          -6.083 -13.861  -7.806  0.00  0.00     0.110 C 
ENDBRANCH  11  13
ENDBRANCH   5   7
BRANCH   1  22
ATOM     22  N3  L08 d           2.156  -3.381  -6.693  0.00  0.00    -0.114 N 
ATOM     23  O4  L08 d           1.290  -2.597  -7.052  0.00  0.00    -0.532 OA
ATOM     24  O3  L08 d           3.116  -2.829  -6.113  0.00  0.00    -0.532 OA
ENDBRANCH   1  22
BRANCH   2  25
ATOM     25  S1  L08 d           4.869  -4.979  -6.493  0.00  0.00    -0.085 SA
BRANCH  25  26
ATOM     26  C1  L08 d           5.770  -6.298  -5.788  0.00  0.00     0.039 A 
ATOM     27  C2  L08 d           6.444  -7.273  -6.697  0.00  0.00     0.085 A 
ATOM     28  C3  L08 d           7.210  -8.394  -6.069  0.00  0.00     0.038 A 
ATOM     29  C4  L08 d           7.268  -8.494  -4.578  0.00  0.00     0.003 A 
ATOM     30  C5  L08 d           6.573  -7.495  -3.713  0.00  0.00     0.002 A 
ATOM     31  C6  L08 d           5.832  -6.407  -4.318  0.00  0.00     0.021 A 
BRANCH  27  32
ATOM     32  O7  L08 d           6.307  -7.069  -8.149  0.00  0.00    -0.350 OA
BRANCH  32  33
ATOM     33  C9  L08 d           6.369  -8.212  -9.106  0.00  0.00     0.171 C 
ATOM     34  C33 L08 d           5.806  -7.728 -10.470  0.00  0.00     0.034 C 
ENDBRANCH  32  33
ENDBRANCH  27  32
ENDBRANCH  25  26
ENDBRANCH   2  25
TORSDOF 7
