REMARK  4 active torsions:
REMARK  status: ('A' for Active; 'I' for Inactive)
REMARK    1  A    between atoms: C1_1  and  C14_14 
REMARK    2  A    between atoms: C2_2  and  C15_15 
REMARK    3  A    between atoms: C8_8  and  C10_10 
REMARK       I    between atoms: C10_10  and  N12_12 
REMARK    4  A    between atoms: C15_15  and  N16_16 
ROOT
ATOM      1  C1  MOL d          48.154  50.310  35.288  0.00  0.00     0.078 A 
ATOM      2  C2  MOL d          47.201  51.041  34.622  0.00  0.00     0.021 A 
ATOM      3  C3  MOL d          47.477  51.453  33.291  0.00  0.00     0.060 A 
ATOM      4  N4  MOL d          48.600  51.227  32.621  0.00  0.00    -0.067 NA
ATOM      5  N5  MOL d          49.329  50.091  34.643  0.00  0.00    -0.150 N 
ATOM      6  C6  MOL d          49.576  50.518  33.308  0.00  0.00     0.734 A 
ATOM      7  N7  MOL d          50.815  50.137  32.885  0.00  0.00    -0.055 NA
ATOM      8  C8  MOL d          51.335  49.463  33.998  0.00  0.00     0.160 A 
ATOM      9  C9  MOL d          50.466  49.417  35.068  0.00  0.00     0.153 A 
ATOM     10  C13 MOL d          46.476  52.245  32.526  0.00  0.00     0.072 C 
ENDROOT
BRANCH   1  11
ATOM     11  C14 MOL d          48.045  49.854  36.684  0.00  0.00     0.014 A 
ATOM     12  C17 MOL d          47.508  48.608  36.953  0.00  0.00     0.017 A 
ATOM     13  C18 MOL d          47.438  48.176  38.273  0.00  0.00     0.025 A 
ATOM     14  C19 MOL d          47.918  49.008  39.287  0.00  0.00     0.035 A 
ATOM     15  C20 MOL d          48.448  50.240  39.053  0.00  0.00     0.048 A 
ATOM     16 CL23 MOL d          47.896  48.469  40.897  0.00  0.00    -0.084 Cl
ATOM     17  C21 MOL d          48.514  50.643  37.748  0.00  0.00     0.048 A 
ATOM     18 CL22 MOL d          49.194  52.167  37.445  0.00  0.00    -0.083 Cl
ENDBRANCH   1  11
BRANCH   2  19
ATOM     19  C15 MOL d          45.856  51.318  35.236  0.00  0.00     0.272 C 
BRANCH  19  20
ATOM     20  N16 MOL d          45.979  52.482  36.067  0.00  0.00    -0.075 N 
ATOM     21  H7  MOL d          45.088  52.688  36.491  0.00  0.00     0.274 HD
ATOM     22  H8  MOL d          46.273  53.266  35.506  0.00  0.00     0.274 HD
ATOM     23  H9  MOL d          46.662  52.309  36.788  0.00  0.00     0.274 HD
ENDBRANCH  19  20
ENDBRANCH   2  19
BRANCH   8  24
ATOM     24  C10 MOL d          52.683  48.849  33.977  0.00  0.00     0.274 C 
ATOM     25  O11 MOL d          52.922  47.917  33.182  0.00  0.00    -0.266 OA
ATOM     26  N12 MOL d          53.498  49.097  35.094  0.00  0.00    -0.343 N 
ATOM     27  C24 MOL d          53.699  50.430  35.703  0.00  0.00     0.152 C 
ATOM     28  C28 MOL d          54.605  48.169  35.407  0.00  0.00     0.152 C 
ATOM     29  C25 MOL d          55.061  51.046  35.193  0.00  0.00     0.187 C 
ATOM     30  O26 MOL d          56.177  50.134  35.295  0.00  0.00    -0.388 OA
ATOM     31  C27 MOL d          55.927  48.774  34.857  0.00  0.00     0.187 C 
ENDBRANCH   8  24
TORSDOF 4
