REMARK  3 active torsions:
REMARK  status: ('A' for Active; 'I' for Inactive)
REMARK    1  A    between atoms: CAQ_6  and  CAP_7 
REMARK    2  A    between atoms: CAP_7  and  NAE_8 
REMARK    3  A    between atoms: CAA_16  and  CAJ_17 
ROOT
ATOM      1  NAE 18F d          19.211 -18.102  12.690  0.00  0.00    -0.325 N 
ATOM      2  CAD 18F d          20.296 -18.622  12.067  0.00  0.00     0.065 A 
ATOM      3  CAI 18F d          21.446 -19.274  12.548  0.00  0.00     0.032 A 
ATOM      4  CAH 18F d          22.444 -19.682  11.626  0.00  0.00     0.002 A 
ATOM      5  CAG 18F d          22.236 -19.421  10.249  0.00  0.00     0.002 A 
ATOM      6  CAF 18F d          21.084 -18.753   9.787  0.00  0.00     0.034 A 
ATOM      7  CAC 18F d          20.104 -18.370  10.710  0.00  0.00     0.086 A 
ATOM      8  NAB 18F d          18.904 -17.677  10.553  0.00  0.00    -0.228 NA
ATOM      9  CAA 18F d          18.374 -17.519  11.770  0.00  0.00     0.141 A 
ENDROOT
BRANCH   1  10
ATOM     10  CAP 18F d          19.033 -18.133  14.175  0.00  0.00     0.169 C 
BRANCH  10  11
ATOM     11  CAQ 18F d          19.646 -16.878  14.875  0.00  0.00    -0.040 A 
ATOM     12  CAR 18F d          19.493 -16.744  16.251  0.00  0.00     0.009 A 
ATOM     13  CAS 18F d          20.037 -15.606  16.868  0.00  0.00     0.001 A 
ATOM     14  CAT 18F d          20.725 -14.617  16.179  0.00  0.00     0.000 A 
ATOM     15  CAU 18F d          20.919 -14.767  14.799  0.00  0.00     0.001 A 
ATOM     16  CAV 18F d          20.367 -15.899  14.173  0.00  0.00     0.009 A 
ENDBRANCH  10  11
ENDBRANCH   1  10
BRANCH   9  17
ATOM     17  CAJ 18F d          17.102 -16.992  12.036  0.00  0.00     0.010 A 
ATOM     18  CAK 18F d          16.034 -17.597  11.361  0.00  0.00     0.015 A 
ATOM     19  CAL 18F d          14.704 -17.178  11.588  0.00  0.00     0.001 A 
ATOM     20  CAM 18F d          14.516 -16.194  12.563  0.00  0.00     0.000 A 
ATOM     21  CAN 18F d          15.567 -15.597  13.233  0.00  0.00     0.001 A 
ATOM     22  CAO 18F d          16.882 -16.000  12.986  0.00  0.00     0.015 A 
ENDBRANCH   9  17
TORSDOF 3
