REMARK  11 active torsions:
REMARK  status: ('A' for Active; 'I' for Inactive)
REMARK    1  A    between atoms: C_1  and  CT_3 
REMARK       I    between atoms: N_7  and  C_1 
REMARK    2  A    between atoms: N_7  and  CA_8 
REMARK    3  A    between atoms: CA_8  and  CB_11 
REMARK    4  A    between atoms: CA_8  and  C_9 
REMARK       I    between atoms: C_9  and  N_16 
REMARK    5  A    between atoms: CB_11  and  CG_12 
REMARK    6  A    between atoms: CG_12  and  CD_13 
REMARK    7  A    between atoms: CD_13  and  CE_14 
REMARK    8  A    between atoms: CE_14  and  NZ_15 
REMARK    9  A    between atoms: CA_17  and  C_18 
REMARK       I    between atoms: C_18  and  N1_23 
REMARK   10  A    between atoms: N1_23  and  C1_24 
REMARK   11  A    between atoms: C4_27  and  C1'_30 
ROOT
ATOM      1  C   MOL d          39.424  20.959  37.385  0.00  0.00     0.243 C 
ATOM      2  O   MOL d          38.700  21.374  38.277  0.00  0.00    -0.271 OA
ATOM      3  N   MOL d          38.836  20.590  36.235  0.00  0.00    -0.337 N 
ATOM      4  CA  MOL d          37.382  20.377  36.114  0.00  0.00     0.179 C 
ATOM      5  CB  MOL d          37.146  20.459  34.608  0.00  0.00     0.037 C 
ATOM      6  CG  MOL d          38.448  19.987  33.986  0.00  0.00     0.022 C 
ATOM      7  CD  MOL d          39.543  20.435  34.962  0.00  0.00     0.127 C 
ENDROOT
BRANCH   1   8
ATOM      8  CA  MOL d          40.950  20.967  37.624  0.00  0.00     0.177 C 
BRANCH   8   9
ATOM      9  N   MOL d          41.355  22.273  38.107  0.00  0.00    -0.340 N 
ATOM     10  C   MOL d          41.026  23.457  37.552  0.00  0.00     0.326 C 
ATOM     11  O   MOL d          40.508  23.491  36.429  0.00  0.00    -0.263 OA
ATOM     12  H1  MOL d          41.930  22.298  38.925  0.00  0.00     0.163 HD
BRANCH  10  13
ATOM     13  CT  MOL d          41.357  24.777  38.354  0.00  0.00     0.472 C 
ATOM     14  F1  MOL d          40.321  25.610  38.369  0.00  0.00    -0.162 F 
ATOM     15  F2  MOL d          41.655  24.614  39.651  0.00  0.00    -0.162 F 
ATOM     16  F3  MOL d          42.364  25.482  37.848  0.00  0.00    -0.162 F 
ENDBRANCH  10  13
ENDBRANCH   8   9
BRANCH   8  17
ATOM     17  CB  MOL d          41.424  19.985  38.716  0.00  0.00     0.035 C 
BRANCH  17  18
ATOM     18  CG  MOL d          40.682  18.670  38.880  0.00  0.00     0.004 C 
BRANCH  18  19
ATOM     19  CD  MOL d          41.588  17.443  38.738  0.00  0.00     0.027 C 
BRANCH  19  20
ATOM     20  CE  MOL d          40.676  16.238  38.470  0.00  0.00     0.229 C 
BRANCH  20  21
ATOM     21  NZ  MOL d          41.407  14.990  38.487  0.00  0.00    -0.079 N 
ATOM     22  H11 MOL d          40.773  14.227  38.307  0.00  0.00     0.274 HD
ATOM     23  H12 MOL d          41.837  14.864  39.390  0.00  0.00     0.274 HD
ATOM     24  H13 MOL d          42.120  15.009  37.775  0.00  0.00     0.274 HD
ENDBRANCH  20  21
ENDBRANCH  19  20
ENDBRANCH  18  19
ENDBRANCH  17  18
ENDBRANCH   8  17
ENDBRANCH   1   8
BRANCH   4  25
ATOM     25  C   MOL d          36.925  19.066  36.788  0.00  0.00     0.245 C 
ATOM     26  O   MOL d          36.944  17.956  36.222  0.00  0.00    -0.271 OA
ATOM     27  N1  MOL d          36.585  19.363  38.067  0.00  0.00    -0.325 N 
ATOM     28  H21 MOL d          36.601  20.325  38.341  0.00  0.00     0.169 HD
BRANCH  27  29
ATOM     29  C1  MOL d          36.223  18.444  39.004  0.00  0.00     0.034 A 
ATOM     30  C2  MOL d          36.670  17.106  38.964  0.00  0.00     0.030 A 
ATOM     31  C3  MOL d          36.375  16.227  40.016  0.00  0.00     0.010 A 
ATOM     32  C4  MOL d          35.630  16.670  41.126  0.00  0.00    -0.055 A 
ATOM     33  C5  MOL d          35.181  17.995  41.162  0.00  0.00     0.010 A 
ATOM     34  C6  MOL d          35.470  18.869  40.108  0.00  0.00     0.030 A 
BRANCH  32  35
ATOM     35  C1' MOL d          35.334  15.738  42.312  0.00  0.00     0.010 C 
ATOM     36  C2' MOL d          36.111  14.405  42.232  0.00  0.00     0.015 C 
ATOM     37  C3' MOL d          33.864  15.485  42.285  0.00  0.00     0.015 C 
ENDBRANCH  32  35
ENDBRANCH  27  29
ENDBRANCH   4  25
TORSDOF 11
