REMARK  14 active torsions:
REMARK  status: ('A' for Active; 'I' for Inactive)
REMARK    1  A    between atoms: C2_2  and  N1_1 
REMARK    2  A    between atoms: S8_8  and  C5_5 
REMARK    3  A    between atoms: N11_11  and  S8_8 
REMARK    4  A    between atoms: N11_11  and  C12_12 
REMARK    5  A    between atoms: C16_16  and  N11_11 
REMARK    6  A    between atoms: C12_12  and  C13_13 
REMARK    7  A    between atoms: C17_17  and  C16_16 
REMARK    8  A    between atoms: C17_17  and  O18_18 
REMARK    9  A    between atoms: C19_19  and  C17_17 
REMARK   10  A    between atoms: C19_19  and  N20_20 
REMARK   11  A    between atoms: C32_32  and  C19_19 
REMARK       I    between atoms: N20_20  and  C21_21 
REMARK   12  A    between atoms: C21_21  and  O23_23 
REMARK   13  A    between atoms: O23_23  and  C24_24 
REMARK   14  A    between atoms: C38_38  and  C32_32 
ROOT
ATOM      1  C17 MOL d          -9.963  17.403  26.975  0.00  0.00     0.155 C 
ENDROOT
BRANCH   1   2
ATOM      2  C16 MOL d         -10.244  17.003  28.431  0.00  0.00     0.141 C 
BRANCH   2   3
ATOM      3  N11 MOL d         -10.206  15.534  28.505  0.00  0.00    -0.204 NA
BRANCH   3   4
ATOM      4  S8  MOL d          -9.012  15.002  29.482  0.00  0.00     0.243 S 
ATOM      5  O9  MOL d          -7.798  15.708  29.198  0.00  0.00    -0.206 OA
ATOM      6  O10 MOL d          -8.777  13.609  29.232  0.00  0.00    -0.206 OA
BRANCH   4   7
ATOM      7  C5  MOL d          -9.332  15.162  31.031  0.00  0.00     0.074 A 
ATOM      8  C4  MOL d          -9.004  16.361  31.661  0.00  0.00     0.027 A 
ATOM      9  C3  MOL d          -9.272  16.537  33.004  0.00  0.00     0.030 A 
ATOM     10  C2  MOL d          -9.868  15.525  33.729  0.00  0.00     0.025 A 
ATOM     11  C7  MOL d         -10.193  14.310  33.116  0.00  0.00     0.030 A 
ATOM     12  C6  MOL d          -9.928  14.132  31.754  0.00  0.00     0.027 A 
BRANCH  10  13
ATOM     13  N1  MOL d         -10.118  15.739  35.041  0.00  0.00    -0.399 N 
ATOM     14  H   MOL d          -9.870  16.641  35.472  0.00  0.00     0.156 HD
ATOM     15  H   MOL d         -10.556  15.000  35.609  0.00  0.00     0.156 HD
ENDBRANCH  10  13
ENDBRANCH   4   7
ENDBRANCH   3   4
BRANCH   3  16
ATOM     16  C12 MOL d         -11.545  14.996  28.826  0.00  0.00     0.111 C 
BRANCH  16  17
ATOM     17  C13 MOL d         -12.385  14.740  27.567  0.00  0.00    -0.009 C 
ATOM     18  C14 MOL d         -11.583  14.143  26.412  0.00  0.00     0.011 C 
ATOM     19  C15 MOL d         -13.554  13.820  27.892  0.00  0.00     0.011 C 
ENDBRANCH  16  17
ENDBRANCH   3  16
ENDBRANCH   2   3
ENDBRANCH   1   2
BRANCH   1  20
ATOM     20  O18 MOL d         -10.309  18.770  26.761  0.00  0.00    -0.392 OA
ATOM     21  H   MOL d         -11.233  18.894  26.944  0.00  0.00     0.210 HD
ENDBRANCH   1  20
BRANCH   1  22
ATOM     22  C19 MOL d          -8.520  17.136  26.530  0.00  0.00     0.120 C 
BRANCH  22  23
ATOM     23  N20 MOL d          -8.496  17.379  25.093  0.00  0.00    -0.329 N 
ATOM     24  C21 MOL d          -8.380  16.449  24.139  0.00  0.00     0.361 C 
ATOM     25  O22 MOL d          -8.280  15.243  24.303  0.00  0.00    -0.238 OA
ATOM     26  H   MOL d          -8.573  18.330  24.793  0.00  0.00     0.165 HD
BRANCH  24  27
ATOM     27  O23 MOL d          -8.383  16.951  22.782  0.00  0.00    -0.296 OA
BRANCH  27  28
ATOM     28  C24 MOL d          -7.964  16.066  21.763  0.00  0.00     0.166 C 
ATOM     29  C25 MOL d          -8.976  16.306  20.672  0.00  0.00     0.204 C 
ATOM     30  O26 MOL d          -8.446  17.401  19.905  0.00  0.00    -0.358 OA
ATOM     31  C27 MOL d          -7.103  17.707  20.291  0.00  0.00     0.266 C 
ATOM     32  O28 MOL d          -7.008  18.916  21.068  0.00  0.00    -0.361 OA
ATOM     33  C31 MOL d          -6.656  16.592  21.202  0.00  0.00     0.075 C 
ATOM     34  C29 MOL d          -6.127  18.765  22.196  0.00  0.00     0.171 C 
ATOM     35  C30 MOL d          -5.728  17.274  22.203  0.00  0.00     0.038 C 
ENDBRANCH  27  28
ENDBRANCH  24  27
ENDBRANCH  22  23
BRANCH  22  36
ATOM     36  C32 MOL d          -7.518  18.128  27.118  0.00  0.00     0.066 C 
BRANCH  36  37
ATOM     37  C38 MOL d          -6.143  17.799  26.591  0.00  0.00    -0.056 A 
ATOM     38  C33 MOL d          -5.504  18.674  25.712  0.00  0.00     0.007 A 
ATOM     39  C34 MOL d          -4.230  18.374  25.227  0.00  0.00     0.001 A 
ATOM     40  C35 MOL d          -3.602  17.196  25.611  0.00  0.00     0.000 A 
ATOM     41  C36 MOL d          -4.240  16.322  26.487  0.00  0.00     0.001 A 
ATOM     42  C37 MOL d          -5.504  16.624  26.985  0.00  0.00     0.007 A 
ENDBRANCH  36  37
ENDBRANCH  22  36
ENDBRANCH   1  22
TORSDOF 14
