REMARK  8 active torsions:
REMARK  status: ('A' for Active; 'I' for Inactive)
REMARK    1  A    between atoms: CA_4  and  CB_5 
REMARK    2  A    between atoms: NAV_24  and  SAN_16 
REMARK    3  A    between atoms: SAN_16  and  CBL_40 
REMARK    4  A    between atoms: CAO_17  and  CBO_43 
REMARK    5  A    between atoms: NBP_44  and  CAO_17 
REMARK       I    between atoms: CAQ_19  and  NBP_44 
REMARK    6  A    between atoms: CBY_49  and  CAQ_19 
REMARK    7  A    between atoms: CAW_25  and  CAS_21 
REMARK       I    between atoms: CBO_43  and  NAV_24 
REMARK    8  A    between atoms: CBJ_38  and  OBB_30 
ROOT
ATOM      1  C   SUE d          15.921  -8.630 -14.673  0.00  0.00     0.244 C 
ATOM      2  N   SUE d          18.260  -8.674 -15.054  0.00  0.00    -0.323 N 
ATOM      3  O   SUE d          15.660  -7.824 -15.569  0.00  0.00    -0.271 OA
ATOM      4  CA  SUE d          17.178  -8.558 -14.038  0.00  0.00     0.186 C 
ATOM      5  CAB SUE d          18.649  -9.917 -15.581  0.00  0.00     0.361 C 
ATOM      6  NAC SUE d          12.598 -14.062 -13.981  0.00  0.00    -0.221 NA
ATOM      7  CAD SUE d          11.516 -17.131 -15.657  0.00  0.00     0.037 A 
ATOM      8  CAE SUE d          10.969 -15.661 -13.343  0.00  0.00     0.070 A 
ATOM      9  CAF SUE d          20.554 -11.415 -18.367  0.00  0.00     0.040 A 
ATOM     10  CAG SUE d          19.349 -12.150 -17.788  0.00  0.00     0.018 A 
ATOM     11  CAH SUE d          20.174 -11.210 -16.893  0.00  0.00     0.138 A 
ATOM     12  CAT SUE d          12.207 -15.947 -15.389  0.00  0.00     0.086 A 
ATOM     13  CAU SUE d          19.480 -13.665 -17.465  0.00  0.00     0.007 C 
ATOM     14  CAX SUE d          17.081 -13.655 -17.052  0.00  0.00     0.000 C 
ATOM     15  CAY SUE d          10.548 -17.572 -14.759  0.00  0.00     0.039 A 
ATOM     16  OAZ SUE d          14.247 -12.470 -14.671  0.00  0.00    -0.326 OA
ATOM     17  CBC SUE d          18.418 -14.039 -16.455  0.00  0.00     0.000 C 
ATOM     18  CBD SUE d          16.060 -14.562 -16.442  0.00  0.00     0.006 C 
ATOM     19  CBE SUE d          13.530 -13.623 -14.850  0.00  0.00     0.190 A 
ATOM     20  CBF SUE d          13.806 -14.365 -16.006  0.00  0.00     0.088 A 
ATOM     21  CBG SUE d          11.939 -15.210 -14.232  0.00  0.00     0.091 A 
ATOM     22  NBH SUE d          13.133 -15.502 -16.248  0.00  0.00    -0.247 NA
ATOM     23  CBI SUE d          14.753 -13.969 -16.925  0.00  0.00     0.064 C 
ATOM     24  CBJ SUE d          10.267 -16.841 -13.607  0.00  0.00     0.070 A 
ATOM     25  OBR SUE d          18.085 -10.939 -15.184  0.00  0.00    -0.238 OA
ATOM     26  OBT SUE d          19.640  -9.909 -16.526  0.00  0.00    -0.298 OA
ATOM     27  CBX SUE d          12.751 -10.530 -14.114  0.00  0.00     0.069 C 
ATOM     28  CBY SUE d          13.585  -9.593 -14.970  0.00  0.00     0.181 C 
ATOM     29  NBZ SUE d          14.967  -9.520 -14.336  0.00  0.00    -0.334 N 
ATOM     30  CCA SUE d          15.034 -10.594 -13.311  0.00  0.00     0.159 C 
ATOM     31  CCB SUE d          13.846 -11.499 -13.637  0.00  0.00     0.151 C 
ATOM     32  H1  SUE d          18.722  -7.845 -15.370  0.00  0.00     0.165 HD
ENDROOT
BRANCH  28  33
ATOM     33  CAQ SUE d          13.075  -8.274 -15.023  0.00  0.00     0.241 C 
ATOM     34  OAP SUE d          13.186  -7.542 -14.040  0.00  0.00    -0.271 OA
ATOM     35  NBP SUE d          12.558  -7.849 -16.205  0.00  0.00    -0.341 N 
ATOM     36  H35 SUE d          12.430  -8.517 -16.938  0.00  0.00     0.163 HD
BRANCH  35  37
ATOM     37  CAO SUE d          12.174  -6.432 -16.457  0.00  0.00     0.119 A 
ATOM     38  CAW SUE d          13.356  -5.492 -16.718  0.00  0.00     0.026 A 
ATOM     39  CBN SUE d          12.472  -5.950 -17.828  0.00  0.00     0.049 A 
BRANCH  38  40
ATOM     40  CAS SUE d          13.289  -4.023 -16.313  0.00  0.00     0.003 C 
ATOM     41  CBQ SUE d          14.453  -3.385 -15.538  0.00  0.00     0.005 C 
ENDBRANCH  38  40
BRANCH  37  42
ATOM     42  CBO SUE d          10.852  -5.871 -15.884  0.00  0.00     0.259 C 
ATOM     43  NAV SUE d          10.213  -6.652 -15.017  0.00  0.00    -0.251 N 
ATOM     44  H18 SUE d          10.548  -7.561 -14.769  0.00  0.00     0.181 HD
ATOM     45  OBM SUE d          10.374  -4.807 -16.288  0.00  0.00    -0.270 OA
BRANCH  43  46
ATOM     46  SAN SUE d           8.930  -6.065 -14.425  0.00  0.00     0.243 S 
ATOM     47  OAM SUE d           7.978  -5.564 -15.502  0.00  0.00    -0.205 OA
ATOM     48  OBK SUE d           9.379  -4.922 -13.496  0.00  0.00    -0.205 OA
BRANCH  46  49
ATOM     49  CBL SUE d           7.975  -7.342 -13.324  0.00  0.00     0.174 A 
ATOM     50  CAK SUE d           6.542  -7.239 -13.284  0.00  0.00    -0.004 A 
ATOM     51  CAL SUE d           7.130  -8.313 -14.034  0.00  0.00    -0.004 A 
ENDBRANCH  46  49
ENDBRANCH  43  46
ENDBRANCH  37  42
ENDBRANCH  35  37
ENDBRANCH  28  33
BRANCH   4  52
ATOM     52  CB  SUE d          17.323  -7.234 -13.246  0.00  0.00    -0.022 C 
ATOM     53  CAR SUE d          18.569  -7.325 -12.355  0.00  0.00     0.017 C 
ATOM     54  CG1 SUE d          16.082  -7.018 -12.366  0.00  0.00     0.017 C 
ATOM     55  CG2 SUE d          17.473  -6.010 -14.163  0.00  0.00     0.017 C 
ENDBRANCH   4  52
BRANCH  24  56
ATOM     56  OBB SUE d           9.323 -17.313 -12.747  0.00  0.00    -0.356 OA
ATOM     57  CBA SUE d           8.840 -16.375 -11.784  0.00  0.00     0.210 C 
ENDBRANCH  24  56
TORSDOF 8
