REMARK  4 active torsions:
REMARK  status: ('A' for Active; 'I' for Inactive)
REMARK    1  A    between atoms: C05_5  and  C07_7 
REMARK    2  A    between atoms: N08_8  and  C12_12 
REMARK    3  A    between atoms: C09_9  and  S18_18 
REMARK    4  A    between atoms: C20_20  and  C22_22 
ROOT
ATOM      1  C07 1EJ d          13.777  -8.739  25.614  0.00  0.00     0.169 A 
ATOM      2  N08 1EJ d          13.981  -9.623  26.623  0.00  0.00    -0.271 N 
ATOM      3  C09 1EJ d          13.927  -8.909  27.762  0.00  0.00     0.193 A 
ATOM      4  N10 1EJ d          13.647  -7.658  27.472  0.00  0.00    -0.122 NA
ATOM      5  N11 1EJ d          13.577  -7.534  26.148  0.00  0.00    -0.128 NA
ENDROOT
BRANCH   2   6
ATOM      6  C12 1EJ d          14.225 -11.009  26.409  0.00  0.00     0.044 A 
ATOM      7  C13 1EJ d          15.338 -11.329  25.666  0.00  0.00     0.050 A 
ATOM      8  C14 1EJ d          15.587 -12.669  25.385  0.00  0.00     0.020 A 
ATOM      9  C15 1EJ d          14.707 -13.651  25.838  0.00  0.00     0.004 A 
ATOM     10  S19 1EJ d          16.859 -13.393  24.502  0.00  0.00    -0.081 SA
ATOM     11  C16 1EJ d          13.576 -13.317  26.610  0.00  0.00     0.017 A 
ATOM     12  C21 1EJ d          15.104 -14.978  25.443  0.00  0.00     0.069 A 
ATOM     13  C17 1EJ d          13.330 -11.973  26.891  0.00  0.00     0.031 A 
ATOM     14  C20 1EJ d          16.288 -14.989  24.711  0.00  0.00     0.104 A 
ATOM     15 CL2  1EJ d          14.160 -16.347  25.900  0.00  0.00    -0.082 Cl
BRANCH  14  16
ATOM     16  C22 1EJ d          17.012 -16.110  24.095  0.00  0.00     0.218 C 
ATOM     17  O23 1EJ d          16.669 -17.282  24.291  0.00  0.00    -0.643 OA
ATOM     18  O24 1EJ d          17.951 -15.788  23.333  0.00  0.00    -0.643 OA
ENDBRANCH  14  16
ENDBRANCH   2   6
BRANCH   1  19
ATOM     19  C05 1EJ d          13.731  -8.982  24.180  0.00  0.00     0.012 A 
ATOM     20  C04 1EJ d          14.315  -8.068  23.336  0.00  0.00     0.018 A 
ATOM     21  C03 1EJ d          14.266  -8.272  21.974  0.00  0.00     0.043 A 
ATOM     22  C02 1EJ d          13.576  -9.358  21.449  0.00  0.00     0.116 A 
ATOM     23  C01 1EJ d          12.981 -10.252  22.296  0.00  0.00     0.043 A 
ATOM     24  F26 1EJ d          13.490  -9.534  20.128  0.00  0.00    -0.206 F 
ATOM     25  C06 1EJ d          13.044 -10.058  23.670  0.00  0.00     0.018 A 
ENDBRANCH   1  19
BRANCH   3  26
ATOM     26  S18 1EJ d          14.139  -9.577  29.337  0.00  0.00    -0.103 SA
ATOM     27  H8  1EJ d          14.346 -10.560  29.259  0.00  0.00     0.110 HD
ENDBRANCH   3  26
TORSDOF 4
