4ijh_ligand

Created by X-TOOL on Fri Sep 26 17:34:58 2014
 34 37  0  0  0  0  0  0  0  0999 V2000
   12.9810  -10.2520   22.2960  C 0  0  0  2  0  3
   13.5760   -9.3580   21.4490  C 0  0  0  1  0  3
   14.2660   -8.2720   21.9740  C 0  0  0  2  0  3
   14.3150   -8.0680   23.3360  C 0  0  0  2  0  3
   13.7310   -8.9820   24.1800  C 0  0  0  1  0  3
   13.0440  -10.0580   23.6700  C 0  0  0  2  0  3
   13.7770   -8.7390   25.6140  C 0  0  0  1  0  3
   13.9810   -9.6230   26.6230  N 0  0  0  1  0  3
   13.9270   -8.9090   27.7620  C 0  0  0  1  0  3
   13.6470   -7.6580   27.4720  N 0  0  0  1  0  2
   13.5770   -7.5340   26.1480  N 0  0  0  1  0  2
   14.2250  -11.0090   26.4090  C 0  0  0  1  0  3
   15.3380  -11.3290   25.6660  C 0  0  0  2  0  3
   15.5870  -12.6690   25.3850  C 0  0  0  1  0  3
   14.7070  -13.6510   25.8380  C 0  0  0  1  0  3
   13.5760  -13.3170   26.6100  C 0  0  0  2  0  3
   13.3300  -11.9730   26.8910  C 0  0  0  2  0  3
   14.1390   -9.5770   29.3370  S 0  0  0  2  0  2
   16.8590  -13.3930   24.5020  S 0  0  0  1  0  2
   16.2880  -14.9890   24.7110  C 0  0  0  1  0  3
   15.1040  -14.9780   25.4430  C 0  0  0  1  0  3
   17.0120  -16.1100   24.0950  C 0  5  0  1  0  3
   16.6690  -17.2820   24.2910  O 0  0  0  1  0  1
   17.9510  -15.7880   23.3330  O 0  0  0  1  0  1
   14.1600  -16.3470   25.9000 Cl 0  0  0  1  0  1
   13.4900   -9.5340   20.1280  F 0  0  0  1  0  1
   12.4595  -11.1133   21.8944  H 0  0  0  1  0  1
   14.7691   -7.5807   21.3077  H 0  0  0  1  0  1
   14.8109   -7.1924   23.7390  H 0  0  0  1  0  1
   12.5520  -10.7543   24.3394  H 0  0  0  1  0  1
   16.0062  -10.5544   25.3074  H 0  0  0  1  0  1
   12.9104  -14.0894   26.9781  H 0  0  0  1  0  1
   12.4626  -11.6800   27.4714  H 0  0  0  1  0  1
   14.3456  -10.5605   29.2585  H 0  0  0  1  0  1
  1  2  4  0  0  1
  1  6  4  0  0  1
  2  3  4  0  0  1
  2 26  1  0  0  2
  3  4  4  0  0  1
  4  5  4  0  0  1
  5  6  4  0  0  1
  5  7  1  0  0  2
  7  8  1  0  0  1
  7 11  2  0  0  1
  8  9  1  0  0  1
  8 12  1  0  0  2
  9 10  2  0  0  1
  9 18  1  0  0  2
 10 11  1  0  0  1
 12 13  4  0  0  1
 12 17  4  0  0  1
 13 14  4  0  0  1
 14 15  4  0  0  1
 14 19  1  0  0  1
 15 16  4  0  0  1
 15 21  1  0  0  1
 16 17  4  0  0  1
 19 20  1  0  0  1
 20 21  2  0  0  1
 20 22  1  0  0  2
 21 25  1  0  0  2
 22 23  2  0  0  2
 22 24  2  0  0  2
  1 27  1  0  0  2
  3 28  1  0  0  2
  4 29  1  0  0  2
  6 30  1  0  0  2
 13 31  1  0  0  2
 16 32  1  0  0  2
 17 33  1  0  0  2
 18 34  1  0  0  2
M  END
> <MOLECULAR_FORMULA>
C17H8N3O2S2FCl

> <MOLECULAR_WEIGHT>
404.8

> <NUM_HB_ATOMS>
6  

> <NUM_ROTOR>
0  

> <XLOGP2>
5.10 

$$$$
