REMARK  4 active torsions:
REMARK  status: ('A' for Active; 'I' for Inactive)
REMARK    1  A    between atoms: C11_2  and  C10_4 
REMARK    2  A    between atoms: C10_4  and  N2_5 
REMARK    3  A    between atoms: C10_4  and  C9_6 
REMARK    4  A    between atoms: C9_6  and  C4_7 
ROOT
ATOM      1  C4  IBC d          33.357   0.082  77.699  0.00  0.00    -0.042 C 
ATOM      2  C1  IBC d          33.138  -1.262  77.423  0.00  0.00     0.049 A 
ATOM      3  C5  IBC d          34.601   0.645  77.975  0.00  0.00     0.004 C 
ATOM      4  C6  IBC d          35.843   0.029  78.089  0.00  0.00    -0.026 C 
ATOM      5  C7  IBC d          36.201  -1.311  77.968  0.00  0.00     0.030 C 
ATOM      6  C8  IBC d          35.565  -2.012  76.765  0.00  0.00     0.043 C 
ATOM      7  C3  IBC d          34.061  -2.199  76.981  0.00  0.00     0.191 A 
ATOM      8  O1  IBC d          33.414  -3.386  76.786  0.00  0.00    -0.267 OA
ATOM      9  N1  IBC d          32.046  -3.181  77.122  0.00  0.00    -0.230 N 
ATOM     10  C2  IBC d          31.911  -1.911  77.499  0.00  0.00     0.274 A 
ATOM     11  O2  IBC d          30.855  -1.403  77.868  0.00  0.00    -0.266 OA
ATOM     12  H14 IBC d          31.319  -3.866  77.082  0.00  0.00     0.197 HD
ENDROOT
BRANCH   1  13
ATOM     13  C9  IBC d          32.141   1.008  77.644  0.00  0.00     0.083 C 
BRANCH  13  14
ATOM     14  C10 IBC d          31.677   1.227  76.201  0.00  0.00     0.287 C 
BRANCH  14  15
ATOM     15  C11 IBC d          30.644   2.356  76.151  0.00  0.00     0.204 C 
ATOM     16  O4  IBC d          29.639   2.244  76.885  0.00  0.00    -0.646 OA
ATOM     17  O3  IBC d          30.878   3.304  75.374  0.00  0.00    -0.646 OA
ENDBRANCH  14  15
BRANCH  14  18
ATOM     18  N2  IBC d          32.827   1.607  75.369  0.00  0.00    -0.065 N 
ATOM     19  H2  IBC d          33.516   0.872  75.392  0.00  0.00     0.275 HD
ATOM     20  H3  IBC d          33.232   2.459  75.725  0.00  0.00     0.275 HD
ATOM     21  H4  IBC d          32.522   1.751  74.419  0.00  0.00     0.275 HD
ENDBRANCH  14  18
ENDBRANCH  13  14
ENDBRANCH   1  13
TORSDOF 4
