REMARK  6 active torsions:
REMARK  status: ('A' for Active; 'I' for Inactive)
REMARK    1  A    between atoms: C1_1  and  C2_2 
REMARK    2  A    between atoms: C2_2  and  C3_3 
REMARK    3  A    between atoms: C3_3  and  C4_4 
REMARK    4  A    between atoms: C4_4  and  C5_5 
REMARK    5  A    between atoms: C5_5  and  C6_6 
REMARK    6  A    between atoms: C6_6  and  C7_7 
ROOT
ATOM      1  C3  OCA d          -3.803  -5.526 -17.929  0.00  0.00     0.010 C 
ENDROOT
BRANCH   1   2
ATOM      2  C2  OCA d          -2.654  -4.561 -17.635  0.00  0.00     0.113 C 
BRANCH   2   3
ATOM      3  C1  OCA d          -3.183  -3.262 -17.078  0.00  0.00     0.172 C 
ATOM      4  O1  OCA d          -4.308  -2.848 -17.450  0.00  0.00    -0.648 OA
ATOM      5  O2  OCA d          -2.475  -2.646 -16.256  0.00  0.00    -0.648 OA
ENDBRANCH   2   3
ENDBRANCH   1   2
BRANCH   1   6
ATOM      6  C4  OCA d          -3.921  -6.587 -16.845  0.00  0.00     0.001 C 
BRANCH   6   7
ATOM      7  C5  OCA d          -5.329  -7.172 -16.813  0.00  0.00     0.000 C 
BRANCH   7   8
ATOM      8  C6  OCA d          -5.785  -7.623 -18.189  0.00  0.00    -0.000 C 
BRANCH   8   9
ATOM      9  C7  OCA d          -7.305  -7.703 -18.268  0.00  0.00    -0.005 C 
ATOM     10  C8  OCA d          -7.711  -9.049 -18.823  0.00  0.00     0.005 C 
ENDBRANCH   8   9
ENDBRANCH   7   8
ENDBRANCH   6   7
ENDBRANCH   1   6
TORSDOF 6
