REMARK  11 active torsions:
REMARK  status: ('A' for Active; 'I' for Inactive)
REMARK    1  A    between atoms: C13_1  and  C15_3 
REMARK    2  A    between atoms: N12_24  and  C13_1 
REMARK    3  A    between atoms: C13_1  and  C14_25 
REMARK    4  A    between atoms: C18_2  and  C22_7 
REMARK       I    between atoms: C15_3  and  N17_27 
REMARK    5  A    between atoms: C24_9  and  O30_32 
REMARK    6  A    between atoms: C33_12  and  N43_43 
REMARK    7  A    between atoms: C4_16  and  N12_24 
REMARK    8  A    between atoms: C25_28  and  O28_30 
REMARK    9  A    between atoms: C36_36  and  S37_37 
REMARK   10  A    between atoms: S37_37  and  C38_38 
REMARK       I    between atoms: N43_43  and  C44_44 
REMARK   11  A    between atoms: C44_44  and  O45_45 
ROOT
ATOM      1  C13 MOL d           7.267  37.431  25.885  0.00  0.00     0.208 C 
ENDROOT
BRANCH   1   2
ATOM      2  C15 MOL d           7.259  38.275  24.598  0.00  0.00     0.247 C 
ATOM      3  O16 MOL d           7.775  37.816  23.602  0.00  0.00    -0.271 OA
ATOM      4  N17 MOL d           6.758  39.522  24.612  0.00  0.00    -0.341 N 
ATOM      5  C18 MOL d           6.772  40.318  23.357  0.00  0.00     0.122 C 
ATOM      6  C21 MOL d           6.153  40.257  25.736  0.00  0.00     0.127 C 
ATOM      7  C19 MOL d           6.516  41.750  23.851  0.00  0.00     0.032 C 
ATOM      8  C20 MOL d           5.685  41.551  25.111  0.00  0.00     0.022 C 
BRANCH   5   9
ATOM      9  C22 MOL d           5.759  39.841  22.331  0.00  0.00    -0.012 A 
ATOM     10  C32 MOL d           4.612  39.174  22.788  0.00  0.00     0.040 A 
ATOM     11  C33 MOL d           3.622  38.712  21.923  0.00  0.00     0.037 A 
ATOM     12  C34 MOL d           3.780  38.909  20.556  0.00  0.00     0.031 A 
ATOM     13  C35 MOL d           4.896  39.571  20.074  0.00  0.00     0.026 A 
ATOM     14  C36 MOL d           5.873  40.032  20.949  0.00  0.00     0.068 A 
BRANCH  11  15
ATOM     15  N43 MOL d           2.390  38.143  22.338  0.00  0.00    -0.303 N 
ATOM     16  C44 MOL d           1.860  38.129  23.589  0.00  0.00     0.364 C 
ATOM     17  O46 MOL d           2.258  38.759  24.544  0.00  0.00    -0.238 OA
ATOM     18  H37 MOL d           1.847  37.700  21.625  0.00  0.00     0.171 HD
BRANCH  16  19
ATOM     19  O45 MOL d           0.762  37.357  23.593  0.00  0.00    -0.309 OA
ATOM     20  C47 MOL d          -0.074  37.444  24.774  0.00  0.00     0.215 C 
ENDBRANCH  16  19
ENDBRANCH  11  15
BRANCH  14  21
ATOM     21  S37 MOL d           7.194  40.920  20.139  0.00  0.00     0.179 S 
ATOM     22  O39 MOL d           6.623  41.573  18.992  0.00  0.00    -0.222 OA
ATOM     23  O40 MOL d           7.894  41.722  21.104  0.00  0.00    -0.222 OA
BRANCH  21  24
ATOM     24  C38 MOL d           8.357  39.666  19.520  0.00  0.00     0.105 C 
ATOM     25  C41 MOL d           8.932  38.769  20.599  0.00  0.00     0.026 C 
ATOM     26  C42 MOL d           9.433  40.369  18.711  0.00  0.00     0.026 C 
ENDBRANCH  21  24
ENDBRANCH  14  21
ENDBRANCH   5   9
ENDBRANCH   1   2
BRANCH   1  27
ATOM     27  N12 MOL d           8.187  36.315  25.731  0.00  0.00    -0.373 N 
ATOM     28  H20 MOL d           8.506  36.103  24.775  0.00  0.00     0.161 HD
BRANCH  27  29
ATOM     29  C4  MOL d           8.680  35.503  26.756  0.00  0.00     0.029 A 
ATOM     30  C1  MOL d           8.465  35.806  28.098  0.00  0.00     0.046 A 
ATOM     31  C6  MOL d           8.858  34.911  29.101  0.00  0.00     0.040 A 
ATOM     32  C5  MOL d           9.489  33.704  28.748  0.00  0.00    -0.041 A 
ATOM     33  C7  MOL d           8.535  35.218  30.513  0.00  0.00     0.252 C 
ATOM     34  C2  MOL d           9.738  33.445  27.405  0.00  0.00     0.010 A 
ATOM     35  C10 MOL d           9.761  32.650  29.793  0.00  0.00     0.059 C 
ATOM     36  C3  MOL d           9.343  34.326  26.419  0.00  0.00     0.030 A 
ATOM     37  C9  MOL d           9.928  33.264  31.165  0.00  0.00     0.127 C 
ATOM     38  N8  MOL d           9.045  34.376  31.427  0.00  0.00    -0.357 N 
ATOM     39  H15 MOL d           8.789  34.535  32.380  0.00  0.00     0.162 HD
ATOM     40  O11 MOL d           7.837  36.168  30.849  0.00  0.00    -0.268 OA
ENDBRANCH  27  29
ENDBRANCH   1  27
BRANCH   1  41
ATOM     41  C14 MOL d           5.849  36.971  26.187  0.00  0.00    -0.024 A 
ATOM     42  C23 MOL d           5.116  36.322  25.200  0.00  0.00     0.049 A 
ATOM     43  C24 MOL d           3.819  35.899  25.452  0.00  0.00     0.102 A 
ATOM     44  C25 MOL d           3.232  36.146  26.723  0.00  0.00     0.101 A 
ATOM     45  C26 MOL d           3.982  36.770  27.719  0.00  0.00     0.040 A 
ATOM     46  C27 MOL d           5.278  37.177  27.441  0.00  0.00     0.012 A 
BRANCH  43  47
ATOM     47  O30 MOL d           3.051  35.171  24.574  0.00  0.00    -0.353 OA
ATOM     48  C31 MOL d           3.571  34.909  23.268  0.00  0.00     0.210 C 
ENDBRANCH  43  47
BRANCH  44  49
ATOM     49  O28 MOL d           1.916  35.778  26.843  0.00  0.00    -0.353 OA
ATOM     50  C29 MOL d           1.283  35.911  28.115  0.00  0.00     0.210 C 
ENDBRANCH  44  49
ENDBRANCH   1  41
TORSDOF 11
