REMARK  21 active torsions:
REMARK  status: ('A' for Active; 'I' for Inactive)
REMARK       I    between atoms: C1_1  and  N3_3 
REMARK       I    between atoms: N21_12  and  C1_1 
REMARK    1  A    between atoms: N3_3  and  C5_5 
REMARK    2  A    between atoms: C5_5  and  C6_6 
REMARK    3  A    between atoms: C22_13  and  N21_12 
REMARK    4  A    between atoms: C23_14  and  C22_13 
REMARK    5  A    between atoms: C22_13  and  C25_16 
REMARK       I    between atoms: N37_19  and  C23_14 
REMARK    6  A    between atoms: C38_20  and  N37_19 
REMARK    7  A    between atoms: C38_20  and  C39_21 
REMARK    8  A    between atoms: C46_28  and  C38_20 
REMARK    9  A    between atoms: C39_21  and  C40_22 
REMARK   10  A    between atoms: C46_28  and  O47_29 
REMARK   11  A    between atoms: C49_31  and  C46_28 
REMARK   12  A    between atoms: C49_31  and  O48_30 
REMARK   13  A    between atoms: C51_33  and  C49_31 
REMARK       I    between atoms: N50_32  and  C83_43 
REMARK   14  A    between atoms: C51_33  and  N50_32 
REMARK   15  A    between atoms: C51_33  and  C52_34 
REMARK   16  A    between atoms: C52_34  and  C53_35 
REMARK   17  A    between atoms: C82_42  and  N81_41 
REMARK       I    between atoms: N81_41  and  C97_48 
REMARK   18  A    between atoms: C83_43  and  C82_42 
REMARK   19  A    between atoms: C82_42  and  C85_45 
REMARK       I    between atoms: C97_48  and  N99_50 
REMARK   20  A    between atoms: N99_50  and  C3_52 
REMARK   21  A    between atoms: C3_52  and  C8_53 
ROOT
ATOM      1  C46 A77 d           6.246   0.164  15.076  0.00  0.00     0.171 C 
ENDROOT
BRANCH   1   2
ATOM      2  C38 A77 d           6.139   0.294  13.554  0.00  0.00     0.120 C 
BRANCH   2   3
ATOM      3  N37 A77 d           4.847   0.937  13.183  0.00  0.00    -0.352 N 
ATOM      4  C23 A77 d           3.932   0.378  12.380  0.00  0.00     0.241 C 
ATOM      5  O24 A77 d           4.028  -0.768  11.974  0.00  0.00    -0.271 OA
ATOM      6  H19 A77 d           4.651   1.843  13.557  0.00  0.00     0.163 HD
BRANCH   4   7
ATOM      7  C22 A77 d           2.786   1.298  11.960  0.00  0.00     0.181 C 
BRANCH   7   8
ATOM      8  N21 A77 d           3.165   2.047  10.748  0.00  0.00    -0.329 N 
ATOM      9  C1  A77 d           3.484   3.332  10.744  0.00  0.00     0.319 C 
ATOM     10  O2  A77 d           3.336   4.024  11.730  0.00  0.00    -0.247 OA
ATOM     11  N3  A77 d           3.986   3.834   9.598  0.00  0.00    -0.333 N 
ATOM     12  C4  A77 d           4.186   3.015   8.397  0.00  0.00     0.154 C 
ATOM     13  H10 A77 d           3.182   1.555   9.877  0.00  0.00     0.165 HD
BRANCH  11  14
ATOM     14  C5  A77 d           4.366   5.248   9.533  0.00  0.00     0.186 C 
BRANCH  14  15
ATOM     15  C6  A77 d           5.860   5.489   9.574  0.00  0.00     0.052 A 
ATOM     16  C7  A77 d           6.595   5.555   8.390  0.00  0.00     0.029 A 
ATOM     17  C9  A77 d           7.951   5.862   8.490  0.00  0.00     0.003 A 
ATOM     18  C11 A77 d           8.525   6.077   9.751  0.00  0.00     0.019 A 
ATOM     19  C10 A77 d           7.702   5.966  10.862  0.00  0.00     0.117 A 
ATOM     20  N8  A77 d           6.404   5.681  10.778  0.00  0.00    -0.264 NA
ENDBRANCH  14  15
ENDBRANCH  11  14
ENDBRANCH   7   8
BRANCH   7  21
ATOM     21  C25 A77 d           1.469   0.526  11.740  0.00  0.00     0.009 C 
ATOM     22  C26 A77 d           1.041  -0.268  12.988  0.00  0.00     0.012 C 
ATOM     23  C27 A77 d           0.334   1.457  11.293  0.00  0.00     0.012 C 
ENDBRANCH   7  21
ENDBRANCH   4   7
ENDBRANCH   2   3
BRANCH   2  24
ATOM     24  C39 A77 d           7.277   1.214  13.081  0.00  0.00     0.066 C 
BRANCH  24  25
ATOM     25  C40 A77 d           7.580   1.130  11.622  0.00  0.00    -0.056 A 
ATOM     26  C41 A77 d           7.184   2.149  10.761  0.00  0.00     0.007 A 
ATOM     27  C42 A77 d           7.454   2.042   9.393  0.00  0.00     0.001 A 
ATOM     28  C43 A77 d           8.129   0.929   8.897  0.00  0.00     0.000 A 
ATOM     29  C44 A77 d           8.534  -0.080   9.783  0.00  0.00     0.001 A 
ATOM     30  C45 A77 d           8.255   0.017  11.147  0.00  0.00     0.007 A 
ENDBRANCH  24  25
ENDBRANCH   2  24
ENDBRANCH   1   2
BRANCH   1  31
ATOM     31  O47 A77 d           7.473  -0.492  15.358  0.00  0.00    -0.391 OA
ATOM     32  H29 A77 d           7.570  -0.589  16.298  0.00  0.00     0.210 HD
ENDBRANCH   1  31
BRANCH   1  33
ATOM     33  C49 A77 d           5.012  -0.427  15.813  0.00  0.00     0.171 C 
BRANCH  33  34
ATOM     34  C51 A77 d           4.738  -1.926  15.594  0.00  0.00     0.120 C 
BRANCH  34  35
ATOM     35  C52 A77 d           3.349  -2.327  16.127  0.00  0.00     0.066 C 
BRANCH  35  36
ATOM     36  C53 A77 d           3.072  -3.822  16.090  0.00  0.00    -0.056 A 
ATOM     37  C54 A77 d           3.253  -4.613  17.238  0.00  0.00     0.007 A 
ATOM     38  C55 A77 d           3.044  -6.000  17.178  0.00  0.00     0.001 A 
ATOM     39  C56 A77 d           2.644  -6.619  15.985  0.00  0.00     0.000 A 
ATOM     40  C57 A77 d           2.442  -5.838  14.845  0.00  0.00     0.001 A 
ATOM     41  C58 A77 d           2.658  -4.449  14.899  0.00  0.00     0.007 A 
ENDBRANCH  35  36
ENDBRANCH  34  35
BRANCH  34  42
ATOM     42  N50 A77 d           5.754  -2.802  16.209  0.00  0.00    -0.352 N 
ATOM     43  C83 A77 d           6.432  -3.755  15.559  0.00  0.00     0.241 C 
ATOM     44  O84 A77 d           6.313  -3.944  14.365  0.00  0.00    -0.271 OA
ATOM     45  H32 A77 d           5.950  -2.674  17.181  0.00  0.00     0.163 HD
BRANCH  43  46
ATOM     46  C82 A77 d           7.418  -4.588  16.402  0.00  0.00     0.181 C 
BRANCH  46  47
ATOM     47  N81 A77 d           6.910  -5.919  16.684  0.00  0.00    -0.329 N 
ATOM     48  C97 A77 d           6.768  -6.393  17.922  0.00  0.00     0.319 C 
ATOM     49  O98 A77 d           7.143  -5.764  18.901  0.00  0.00    -0.247 OA
ATOM     50  N99 A77 d           6.226  -7.635  18.023  0.00  0.00    -0.333 N 
ATOM     51  C2  A77 d           5.791  -8.392  16.839  0.00  0.00     0.154 C 
ATOM     52  H41 A77 d           6.655  -6.506  15.915  0.00  0.00     0.165 HD
BRANCH  50  53
ATOM     53  C3  A77 d           5.994  -8.253  19.345  0.00  0.00     0.186 C 
BRANCH  53  54
ATOM     54  C8  A77 d           4.644  -7.870  19.906  0.00  0.00     0.052 A 
ATOM     55  C12 A77 d           3.555  -8.734  19.771  0.00  0.00     0.029 A 
ATOM     56  C13 A77 d           2.317  -8.344  20.282  0.00  0.00     0.003 A 
ATOM     57  C15 A77 d           2.211  -7.098  20.901  0.00  0.00     0.019 A 
ATOM     58  C14 A77 d           3.355  -6.296  20.983  0.00  0.00     0.117 A 
ATOM     59  N10 A77 d           4.555  -6.668  20.511  0.00  0.00    -0.264 NA
ENDBRANCH  53  54
ENDBRANCH  50  53
ENDBRANCH  46  47
BRANCH  46  60
ATOM     60  C85 A77 d           8.809  -4.660  15.732  0.00  0.00     0.009 C 
ATOM     61  C86 A77 d           9.366  -3.253  15.463  0.00  0.00     0.012 C 
ATOM     62  C87 A77 d           9.817  -5.422  16.589  0.00  0.00     0.012 C 
ENDBRANCH  46  60
ENDBRANCH  43  46
ENDBRANCH  34  42
ENDBRANCH  33  34
BRANCH  33  63
ATOM     63  O48 A77 d           5.129  -0.172  17.213  0.00  0.00    -0.391 OA
ATOM     64  H30 A77 d           5.298   0.752  17.352  0.00  0.00     0.210 HD
ENDBRANCH  33  63
ENDBRANCH   1  33
TORSDOF 21
