REMARK  32 active torsions:
REMARK  status: ('A' for Active; 'I' for Inactive)
REMARK    1  A    between atoms: CA_2  and  N_1 
REMARK    2  A    between atoms: C_3  and  CA_2 
REMARK    3  A    between atoms: CA_2  and  CB_5 
REMARK       I    between atoms: N_12  and  C_3 
REMARK    4  A    between atoms: CB_5  and  CG_6 
REMARK    5  A    between atoms: CG_6  and  CD_7 
REMARK    6  A    between atoms: CD_7  and  NE_8 
REMARK       I    between atoms: NE_8  and  CZ_9 
REMARK       I    between atoms: CZ_9  and  NH1_10 
REMARK    7  A    between atoms: CA_13  and  N_12 
REMARK    8  A    between atoms: C_14  and  CA_13 
REMARK       I    between atoms: N_16  and  C_14 
REMARK    9  A    between atoms: CA_17  and  N_16 
REMARK   10  A    between atoms: C_18  and  CA_17 
REMARK   11  A    between atoms: CA_17  and  CB_20 
REMARK       I    between atoms: N_28  and  C_18 
REMARK   12  A    between atoms: CB_20  and  CG_21 
REMARK   13  A    between atoms: CZ_26  and  OH_27 
REMARK   14  A    between atoms: CA_29  and  N_28 
REMARK   15  A    between atoms: C_30  and  CA_29 
REMARK   16  A    between atoms: CA_29  and  CB_32 
REMARK       I    between atoms: N_35  and  C_30 
REMARK   17  A    between atoms: CA_36  and  N_35 
REMARK   18  A    between atoms: C_37  and  CA_36 
REMARK   19  A    between atoms: CA_36  and  CB_39 
REMARK       I    between atoms: N_47  and  C_37 
REMARK   20  A    between atoms: CB_39  and  CG_40 
REMARK   21  A    between atoms: CZ_45  and  OH_46 
REMARK   22  A    between atoms: CA_48  and  N_47 
REMARK   23  A    between atoms: C_49  and  CA_48 
REMARK   24  A    between atoms: CA_48  and  CB_51 
REMARK       I    between atoms: N_56  and  C_49 
REMARK   25  A    between atoms: CB_51  and  CG_52 
REMARK   26  A    between atoms: CG_52  and  CD_53 
REMARK       I    between atoms: CD_53  and  NE2_55 
REMARK   27  A    between atoms: CA_57  and  N_56 
REMARK   28  A    between atoms: C_58  and  CA_57 
REMARK       I    between atoms: C_58  and  N_60 
REMARK   29  A    between atoms: N_60  and  CA_61 
REMARK   30  A    between atoms: CA_61  and  C_62 
REMARK   31  A    between atoms: CA_61  and  CB_64 
REMARK   32  A    between atoms: CB_64  and  CG_65 
ROOT
ATOM      1  CA  MOL d          43.192  61.139  -3.369  0.00  0.00     0.180 C 
ENDROOT
BRANCH   1   2
ATOM      2  C   MOL d          43.176  60.827  -4.860  0.00  0.00     0.241 C 
ATOM      3  O   MOL d          43.828  61.504  -5.657  0.00  0.00    -0.271 OA
ATOM      4  N   MOL d          42.453  59.771  -5.235  0.00  0.00    -0.346 N 
ATOM      5  H37 MOL d          41.935  59.266  -4.544  0.00  0.00     0.163 HD
BRANCH   4   6
ATOM      6  CA  MOL d          42.396  59.332  -6.623  0.00  0.00     0.180 C 
BRANCH   6   7
ATOM      7  C   MOL d          41.661  60.222  -7.618  0.00  0.00     0.241 C 
ATOM      8  O   MOL d          40.724  60.936  -7.267  0.00  0.00    -0.271 OA
ATOM      9  N   MOL d          42.117  60.161  -8.864  0.00  0.00    -0.346 N 
ATOM     10  H46 MOL d          42.887  59.552  -9.054  0.00  0.00     0.163 HD
BRANCH   9  11
ATOM     11  CA  MOL d          41.560  60.932  -9.975  0.00  0.00     0.177 C 
BRANCH  11  12
ATOM     12  C   MOL d          40.471  60.137 -10.700  0.00  0.00     0.240 C 
ATOM     13  O   MOL d          40.609  58.929 -10.898  0.00  0.00    -0.271 OA
ATOM     14  N   MOL d          39.398  60.812 -11.105  0.00  0.00    -0.351 N 
ATOM     15  H54 MOL d          39.329  61.793 -10.923  0.00  0.00     0.163 HD
BRANCH  14  16
ATOM     16  CA  MOL d          38.322  60.128 -11.813  0.00  0.00     0.225 C 
BRANCH  16  17
ATOM     17  C   MOL d          38.695  59.516 -13.159  0.00  0.00     0.236 C 
ATOM     18  O   MOL d          39.504  60.071 -13.904  0.00  0.00    -0.272 OA
ATOM     19  N   MOL d          38.095  58.368 -13.480  0.00  0.00    -0.345 N 
ATOM     20  H57 MOL d          37.440  57.969 -12.839  0.00  0.00     0.163 HD
BRANCH  19  21
ATOM     21  CA  MOL d          38.366  57.673 -14.743  0.00  0.00     0.185 C 
BRANCH  21  22
ATOM     22  C   MOL d          37.652  58.298 -15.945  0.00  0.00     0.196 C 
ATOM     23  OXT MOL d          38.040  57.984 -17.096  0.00  0.00    -0.646 OA
ATOM     24  O   MOL d          36.700  59.084 -15.728  0.00  0.00    -0.646 OA
ENDBRANCH  21  22
BRANCH  21  25
ATOM     25  CB  MOL d          37.948  56.201 -14.633  0.00  0.00     0.040 C 
BRANCH  25  26
ATOM     26  CG  MOL d          38.574  55.381 -13.512  0.00  0.00    -0.020 C 
ATOM     27  CD2 MOL d          40.094  55.370 -13.680  0.00  0.00     0.009 C 
ATOM     28  CD1 MOL d          38.006  53.961 -13.549  0.00  0.00     0.009 C 
ENDBRANCH  25  26
ENDBRANCH  21  25
ENDBRANCH  19  21
ENDBRANCH  16  17
ENDBRANCH  14  16
ENDBRANCH  11  12
BRANCH  11  29
ATOM     29  CB  MOL d          42.681  61.275 -10.962  0.00  0.00     0.044 C 
BRANCH  29  30
ATOM     30  CG  MOL d          42.272  62.191 -12.101  0.00  0.00     0.105 C 
BRANCH  30  31
ATOM     31  CD  MOL d          41.883  63.567 -11.605  0.00  0.00     0.215 C 
ATOM     32  OE1 MOL d          40.709  63.947 -11.630  0.00  0.00    -0.274 OA
ATOM     33  NE2 MOL d          42.869  64.318 -11.130  0.00  0.00    -0.370 N 
ATOM     34  H52 MOL d          42.677  65.237 -10.787  0.00  0.00     0.159 HD
ATOM     35  H53 MOL d          43.804  63.964 -11.115  0.00  0.00     0.159 HD
ENDBRANCH  30  31
ENDBRANCH  29  30
ENDBRANCH  11  29
ENDBRANCH   9  11
ENDBRANCH   6   7
BRANCH   6  36
ATOM     36  CB  MOL d          41.836  57.902  -6.692  0.00  0.00     0.073 C 
BRANCH  36  37
ATOM     37  CG  MOL d          42.653  56.924  -5.871  0.00  0.00    -0.056 A 
ATOM     38  CD2 MOL d          43.699  56.202  -6.448  0.00  0.00     0.010 A 
ATOM     39  CE2 MOL d          44.509  55.360  -5.676  0.00  0.00     0.037 A 
ATOM     40  CZ  MOL d          44.271  55.240  -4.326  0.00  0.00     0.065 A 
ATOM     41  CE1 MOL d          43.232  55.939  -3.729  0.00  0.00     0.037 A 
ATOM     42  CD1 MOL d          42.430  56.777  -4.509  0.00  0.00     0.010 A 
BRANCH  40  43
ATOM     43  OH  MOL d          45.080  54.447  -3.545  0.00  0.00    -0.361 OA
ATOM     44  H45 MOL d          45.740  54.036  -4.090  0.00  0.00     0.217 HD
ENDBRANCH  40  43
ENDBRANCH  36  37
ENDBRANCH   6  36
ENDBRANCH   4   6
ENDBRANCH   1   2
BRANCH   1  45
ATOM     45  CB  MOL d          42.963  62.655  -3.132  0.00  0.00     0.009 C 
ATOM     46  CG1 MOL d          41.609  63.066  -3.695  0.00  0.00     0.012 C 
ATOM     47  CG2 MOL d          43.014  62.960  -1.642  0.00  0.00     0.012 C 
ENDBRANCH   1  45
BRANCH   1  48
ATOM     48  N   MOL d          44.541  60.715  -2.999  0.00  0.00    -0.346 N 
ATOM     49  C   MOL d          44.757  59.614  -2.290  0.00  0.00     0.241 C 
ATOM     50  O   MOL d          43.850  58.931  -1.816  0.00  0.00    -0.271 OA
ATOM     51  H28 MOL d          45.322  61.269  -3.288  0.00  0.00     0.163 HD
BRANCH  49  52
ATOM     52  CA  MOL d          46.218  59.245  -2.055  0.00  0.00     0.180 C 
BRANCH  52  53
ATOM     53  CB  MOL d          46.761  58.548  -3.307  0.00  0.00     0.073 C 
BRANCH  53  54
ATOM     54  CG  MOL d          46.915  59.403  -4.542  0.00  0.00    -0.056 A 
ATOM     55  CD2 MOL d          46.214  59.109  -5.713  0.00  0.00     0.010 A 
ATOM     56  CE2 MOL d          46.404  59.858  -6.874  0.00  0.00     0.037 A 
ATOM     57  CZ  MOL d          47.313  60.921  -6.859  0.00  0.00     0.065 A 
ATOM     58  CE1 MOL d          48.011  61.227  -5.708  0.00  0.00     0.037 A 
ATOM     59  CD1 MOL d          47.813  60.479  -4.562  0.00  0.00     0.010 A 
BRANCH  57  60
ATOM     60  OH  MOL d          47.528  61.667  -7.993  0.00  0.00    -0.361 OA
ATOM     61  H27 MOL d          46.980  61.338  -8.696  0.00  0.00     0.217 HD
ENDBRANCH  57  60
ENDBRANCH  53  54
ENDBRANCH  52  53
BRANCH  52  62
ATOM     62  N   MOL d          46.334  58.339  -0.924  0.00  0.00    -0.346 N 
ATOM     63  C   MOL d          46.687  58.725   0.295  0.00  0.00     0.236 C 
ATOM     64  O   MOL d          46.908  59.892   0.597  0.00  0.00    -0.272 OA
ATOM     65  H19 MOL d          46.136  57.370  -1.073  0.00  0.00     0.163 HD
BRANCH  63  66
ATOM     66  CA  MOL d          46.759  57.607   1.312  0.00  0.00     0.225 C 
BRANCH  66  67
ATOM     67  N   MOL d          47.335  57.833   2.622  0.00  0.00    -0.351 N 
ATOM     68  C   MOL d          48.651  57.938   2.791  0.00  0.00     0.248 C 
ATOM     69  O   MOL d          49.454  57.923   1.857  0.00  0.00    -0.271 OA
ATOM     70  H16 MOL d          46.731  57.912   3.416  0.00  0.00     0.163 HD
BRANCH  68  71
ATOM     71  CA  MOL d          49.117  58.103   4.232  0.00  0.00     0.274 C 
BRANCH  71  72
ATOM     72  CB  MOL d          49.036  59.575   4.657  0.00  0.00     0.044 C 
BRANCH  72  73
ATOM     73  CG  MOL d          49.995  60.508   3.967  0.00  0.00     0.023 C 
BRANCH  73  74
ATOM     74  CD  MOL d          49.673  61.951   4.340  0.00  0.00     0.138 C 
BRANCH  74  75
ATOM     75  NE  MOL d          49.379  62.089   5.766  0.00  0.00    -0.227 N 
ATOM     76  CZ  MOL d          48.982  63.221   6.345  0.00  0.00     0.665 C 
ATOM     77  NH1 MOL d          48.829  64.324   5.623  0.00  0.00    -0.235 N 
ATOM     78  NH2 MOL d          48.731  63.251   7.648  0.00  0.00    -0.235 N 
ATOM     79  H12 MOL d          48.522  65.197   6.075  0.00  0.00     0.174 HD
ATOM     80  H13 MOL d          49.017  64.307   4.611  0.00  0.00     0.174 HD
ATOM     81  H14 MOL d          48.848  62.399   8.215  0.00  0.00     0.174 HD
ATOM     82  H15 MOL d          48.420  64.126   8.092  0.00  0.00     0.174 HD
ATOM     83  H11 MOL d          49.486  61.256   6.362  0.00  0.00     0.177 HD
ENDBRANCH  74  75
ENDBRANCH  73  74
ENDBRANCH  72  73
ENDBRANCH  71  72
BRANCH  71  84
ATOM     84  N   MOL d          50.494  57.570   4.445  0.00  0.00    -0.067 N 
ATOM     85  H1  MOL d          50.759  57.700   5.409  0.00  0.00     0.275 HD
ATOM     86  H2  MOL d          51.141  58.062   3.849  0.00  0.00     0.275 HD
ATOM     87  H3  MOL d          50.512  56.587   4.221  0.00  0.00     0.275 HD
ENDBRANCH  71  84
ENDBRANCH  68  71
ENDBRANCH  66  67
ENDBRANCH  63  66
ENDBRANCH  52  62
ENDBRANCH  49  52
ENDBRANCH   1  48
TORSDOF 32
