REMARK  8 active torsions:
REMARK  status: ('A' for Active; 'I' for Inactive)
REMARK    1  A    between atoms: C2_1  and  N25_2 
REMARK       I    between atoms: N25_2  and  C26_3 
REMARK       I    between atoms: C26_3  and  N30_4 
REMARK       I    between atoms: C26_3  and  N27_5 
REMARK    2  A    between atoms: C3_6  and  C10_7 
REMARK    3  A    between atoms: C10_7  and  C24_8 
REMARK    4  A    between atoms: C10_7  and  N11_13 
REMARK    5  A    between atoms: C24_8  and  C37_9 
REMARK    6  A    between atoms: C24_8  and  C36_11 
REMARK       I    between atoms: N11_13  and  C13_14 
REMARK    7  A    between atoms: C4_17  and  O9_18 
REMARK    8  A    between atoms: C5_19  and  C6_20 
ROOT
ATOM      1  C2  BCZ d         -14.038 -27.041  11.939  0.00  0.00     0.108 C 
ATOM      2  C3  BCZ d         -14.951 -28.226  12.241  0.00  0.00     0.061 C 
ATOM      3  C4  BCZ d         -15.833 -28.295  11.000  0.00  0.00     0.140 C 
ATOM      4  C5  BCZ d         -15.828 -26.935  10.310  0.00  0.00     0.118 C 
ATOM      5  C1  BCZ d         -14.961 -26.062  11.209  0.00  0.00     0.044 C 
ENDROOT
BRANCH   2   6
ATOM      6  C10 BCZ d         -14.221 -29.547  12.542  0.00  0.00     0.097 C 
BRANCH   6   7
ATOM      7  C24 BCZ d         -15.140 -30.730  12.828  0.00  0.00     0.008 C 
BRANCH   7   8
ATOM      8  C37 BCZ d         -15.906 -30.549  14.131  0.00  0.00     0.002 C 
ATOM      9  C38 BCZ d         -17.305 -31.091  13.985  0.00  0.00     0.005 C 
ENDBRANCH   7   8
BRANCH   7  10
ATOM     10  C36 BCZ d         -14.350 -32.032  12.827  0.00  0.00     0.002 C 
ATOM     11  C39 BCZ d         -13.893 -32.414  11.420  0.00  0.00     0.005 C 
ENDBRANCH   7  10
ENDBRANCH   6   7
BRANCH   6  12
ATOM     12  N11 BCZ d         -13.225 -29.469  13.586  0.00  0.00    -0.356 N 
ATOM     13  C13 BCZ d         -11.870 -29.420  13.316  0.00  0.00     0.213 C 
ATOM     14  C15 BCZ d         -11.074 -29.114  14.544  0.00  0.00     0.117 C 
ATOM     15  O14 BCZ d         -11.327 -29.610  12.236  0.00  0.00    -0.274 OA
ATOM     16  H20 BCZ d         -13.527 -29.450  14.539  0.00  0.00     0.162 HD
ENDBRANCH   6  12
ENDBRANCH   2   6
BRANCH   1  17
ATOM     17  N25 BCZ d         -13.354 -26.424  13.094  0.00  0.00    -0.222 N 
ATOM     18  C26 BCZ d         -12.002 -26.037  13.086  0.00  0.00     0.665 C 
ATOM     19  N30 BCZ d         -11.282 -25.883  11.932  0.00  0.00    -0.235 N 
ATOM     20  N27 BCZ d         -11.296 -25.779  14.249  0.00  0.00    -0.235 N 
ATOM     21  H3  BCZ d         -10.293 -25.598  11.976  0.00  0.00     0.174 HD
ATOM     22  H4  BCZ d         -11.729 -26.052  11.020  0.00  0.00     0.174 HD
ATOM     23  H5  BCZ d         -11.760 -25.870  15.164  0.00  0.00     0.174 HD
ATOM     24  H6  BCZ d         -10.307 -25.496  14.199  0.00  0.00     0.174 HD
ATOM     25  H2  BCZ d         -13.899 -26.268  13.954  0.00  0.00     0.178 HD
ENDBRANCH   1  17
BRANCH   3  26
ATOM     26  O9  BCZ d         -15.232 -29.202  10.055  0.00  0.00    -0.394 OA
ATOM     27  H25 BCZ d         -15.775 -29.252   9.277  0.00  0.00     0.210 HD
ENDBRANCH   3  26
BRANCH   4  28
ATOM     28  C6  BCZ d         -17.264 -26.389  10.400  0.00  0.00     0.179 C 
ATOM     29  O8  BCZ d         -17.395 -25.145  10.205  0.00  0.00    -0.648 OA
ATOM     30  O7  BCZ d         -18.191 -27.216  10.638  0.00  0.00    -0.648 OA
ENDBRANCH   4  28
TORSDOF 8
