REMARK  3 active torsions:
REMARK  status: ('A' for Active; 'I' for Inactive)
REMARK    1  A    between atoms: CAK_5  and  CAP_6 
REMARK    2  A    between atoms: CAP_6  and  N6_7 
REMARK    3  A    between atoms: N6_7  and  C6_8 
ROOT
ATOM      1  C6  H35 d          38.751  22.821  25.234  0.00  0.00     0.158 A 
ATOM      2  N1  H35 d          38.514  21.652  25.819  0.00  0.00    -0.222 NA
ATOM      3  C2  H35 d          38.152  20.579  25.104  0.00  0.00     0.237 A 
ATOM      4  N3  H35 d          38.000  20.609  23.767  0.00  0.00    -0.222 NA
ATOM      5  C4  H35 d          38.204  21.763  23.120  0.00  0.00     0.162 A 
ATOM      6  C5  H35 d          38.586  22.896  23.836  0.00  0.00     0.149 A 
ATOM      7  N7  H35 d          38.719  23.875  22.946  0.00  0.00    -0.236 NA
ATOM      8  C8  H35 d          38.457  23.394  21.725  0.00  0.00     0.209 A 
ATOM      9  N9  H35 d          38.132  22.100  21.824  0.00  0.00    -0.333 N 
ATOM     10  H9  H35 d          37.873  21.476  21.046  0.00  0.00     0.168 HD
ENDROOT
BRANCH   1  11
ATOM     11  N6  H35 d          39.125  23.869  25.949  0.00  0.00    -0.367 N 
ATOM     12  H6  H35 d          39.093  24.800  25.510  0.00  0.00     0.161 HD
BRANCH  11  13
ATOM     13  CAP H35 d          39.595  23.764  27.375  0.00  0.00     0.186 C 
BRANCH  13  14
ATOM     14  CAK H35 d          40.155  25.138  27.753  0.00  0.00     0.070 A 
ATOM     15  CAM H35 d          39.800  25.994  28.723  0.00  0.00     0.036 A 
ATOM     16  CAO H35 d          40.600  27.069  28.641  0.00  0.00     0.027 A 
ATOM     17  CAN H35 d          41.460  26.903  27.623  0.00  0.00     0.142 A 
ATOM     18  OAL H35 d          41.199  25.678  27.069  0.00  0.00    -0.325 OA
ENDBRANCH  13  14
ENDBRANCH  11  13
ENDBRANCH   1  11
TORSDOF 3
