REMARK  4 active torsions:
REMARK  status: ('A' for Active; 'I' for Inactive)
REMARK    1  A    between atoms: C3_3  and  N23_23 
REMARK    2  A    between atoms: N5_5  and  C21_21 
REMARK    3  A    between atoms: C6_6  and  C15_15 
REMARK    4  A    between atoms: C8_8  and  N24_24 
ROOT
ATOM      1  C1   ET d         -31.384 -13.577  -0.969  0.00  0.00     0.017 A 
ATOM      2  C2   ET d         -32.158 -14.700  -0.682  0.00  0.00     0.030 A 
ATOM      3  C3   ET d         -33.287 -14.594   0.141  0.00  0.00     0.027 A 
ATOM      4  C4   ET d         -33.644 -13.361   0.686  0.00  0.00     0.059 A 
ATOM      5  N5   ET d         -33.193 -10.976   0.945  0.00  0.00    -0.367 N 
ATOM      6  C6   ET d         -32.460  -9.868   0.700  0.00  0.00     0.152 A 
ATOM      7  C7   ET d         -30.550  -8.753  -0.405  0.00  0.00     0.039 A 
ATOM      8  C8   ET d         -29.414  -8.796  -1.220  0.00  0.00     0.026 A 
ATOM      9  C9   ET d         -29.015 -10.020  -1.792  0.00  0.00     0.030 A 
ATOM     10  C10  ET d         -29.757 -11.179  -1.544  0.00  0.00     0.015 A 
ATOM     11  C11  ET d         -31.301  -9.934  -0.153  0.00  0.00    -0.018 A 
ATOM     12  C12  ET d         -30.911 -11.132  -0.717  0.00  0.00    -0.015 A 
ATOM     13  C13  ET d         -31.735 -12.319  -0.414  0.00  0.00     0.001 A 
ATOM     14  C14  ET d         -32.843 -12.209   0.399  0.00  0.00     0.044 A 
ENDROOT
BRANCH   6  15
ATOM     15  C15  ET d         -32.879  -8.547   1.241  0.00  0.00    -0.031 A 
ATOM     16  C16  ET d         -34.007  -7.997   0.622  0.00  0.00     0.009 A 
ATOM     17  C17  ET d         -34.497  -6.753   1.021  0.00  0.00     0.001 A 
ATOM     18  C18  ET d         -33.843  -6.057   2.036  0.00  0.00     0.000 A 
ATOM     19  C19  ET d         -32.699  -6.614   2.618  0.00  0.00     0.001 A 
ATOM     20  C20  ET d         -32.204  -7.853   2.241  0.00  0.00     0.009 A 
ENDBRANCH   6  15
BRANCH   5  21
ATOM     21  C21  ET d         -34.357 -10.885   1.788  0.00  0.00     0.120 C 
ATOM     22  C22  ET d         -35.711 -10.862   1.163  0.00  0.00     0.026 C 
ENDBRANCH   5  21
BRANCH   8  23
ATOM     23  N24  ET d         -28.664  -7.592  -1.458  0.00  0.00    -0.399 N 
ATOM     24  H20  ET d         -28.967  -6.704  -1.033  0.00  0.00     0.156 HD
ATOM     25  H21  ET d         -27.824  -7.618  -2.053  0.00  0.00     0.156 HD
ENDBRANCH   8  23
BRANCH   3  26
ATOM     26  N23  ET d         -34.065 -15.767   0.414  0.00  0.00    -0.399 N 
ATOM     27  H18  ET d         -33.792 -16.672   0.006  0.00  0.00     0.156 HD
ATOM     28  H19  ET d         -34.897 -15.704   1.018  0.00  0.00     0.156 HD
ENDBRANCH   3  26
TORSDOF 4
