REMARK  2 active torsions:
REMARK  status: ('A' for Active; 'I' for Inactive)
REMARK    1  A    between atoms: C3_3  and  O3_4 
REMARK    2  A    between atoms: C17_18  and  O17_19 
ROOT
ATOM      1  C1  EST d          20.834   8.750  33.166  0.00  0.00     0.011 A 
ATOM      2  C2  EST d          19.542   8.293  33.295  0.00  0.00     0.037 A 
ATOM      3  C3  EST d          18.499   9.191  33.575  0.00  0.00     0.066 A 
ATOM      4  C4  EST d          18.804  10.571  33.719  0.00  0.00     0.044 A 
ATOM      5  C5  EST d          20.115  11.047  33.588  0.00  0.00    -0.049 A 
ATOM      6  C6  EST d          20.372  12.558  33.754  0.00  0.00     0.039 C 
ATOM      7  C7  EST d          21.863  12.987  33.697  0.00  0.00     0.010 C 
ATOM      8  C8  EST d          22.688  12.152  32.709  0.00  0.00    -0.001 C 
ATOM      9  C9  EST d          22.642  10.614  33.144  0.00  0.00     0.023 C 
ATOM     10  C10 EST d          21.185  10.121  33.298  0.00  0.00    -0.047 A 
ATOM     11  C11 EST d          23.476   9.740  32.168  0.00  0.00     0.010 C 
ATOM     12  C12 EST d          24.913  10.260  32.001  0.00  0.00     0.013 C 
ATOM     13  C13 EST d          24.957  11.746  31.550  0.00  0.00    -0.014 C 
ATOM     14  C14 EST d          24.176  12.587  32.600  0.00  0.00     0.001 C 
ATOM     15  C15 EST d          24.494  14.047  32.209  0.00  0.00     0.008 C 
ATOM     16  C16 EST d          25.934  13.947  31.609  0.00  0.00     0.033 C 
ATOM     17  C17 EST d          26.300  12.455  31.655  0.00  0.00     0.126 C 
ATOM     18  C18 EST d          24.380  11.840  30.103  0.00  0.00     0.018 C 
ENDROOT
BRANCH   3  19
ATOM     19  O3  EST d          17.233   8.696  33.690  0.00  0.00    -0.361 OA
ATOM     20  H3  EST d          16.632   9.407  33.879  0.00  0.00     0.217 HD
ENDBRANCH   3  19
BRANCH  17  21
ATOM     21  O17 EST d          27.183  12.163  30.553  0.00  0.00    -0.395 OA
ATOM     22  H21 EST d          27.416  11.242  30.571  0.00  0.00     0.210 HD
ENDBRANCH  17  21
TORSDOF 2
