REMARK  6 active torsions:
REMARK  status: ('A' for Active; 'I' for Inactive)
REMARK    1  A    between atoms: P_2  and  O5'_5 
REMARK    2  A    between atoms: O5'_5  and  C5'_6 
REMARK    3  A    between atoms: C5'_6  and  C4'_7 
REMARK    4  A    between atoms: C3'_8  and  O3'_9 
REMARK    5  A    between atoms: C2'_10  and  O2'_11 
REMARK    6  A    between atoms: C1'_13  and  N1_14 
ROOT
ATOM      1  N1  6CN d          27.011 -18.599  14.500  0.00  0.00    -0.287 N 
ATOM      2  C6  6CN d          27.375 -19.301  15.628  0.00  0.00     0.207 A 
ATOM      3  C5  6CN d          28.737 -19.405  15.967  0.00  0.00     0.144 A 
ATOM      4  C4  6CN d          29.678 -18.804  15.142  0.00  0.00     0.228 A 
ATOM      5  O4  6CN d          30.934 -18.871  15.324  0.00  0.00    -0.273 OA
ATOM      6  N3  6CN d          29.265 -18.135  14.023  0.00  0.00    -0.279 N 
ATOM      7  C2  6CN d          27.949 -18.047  13.704  0.00  0.00     0.328 A 
ATOM      8  O2  6CN d          27.639 -17.383  12.693  0.00  0.00    -0.247 OA
ATOM      9  C7  6CN d          26.750 -20.630  15.630  0.00  0.00     0.085 C 
ATOM     10  N8  6CN d          26.372 -21.726  15.517  0.00  0.00    -0.195 NA
ATOM     11  H12 6CN d          29.944 -17.703  13.430  0.00  0.00     0.173 HD
ENDROOT
BRANCH   1  12
ATOM     12  C1' 6CN d          25.568 -18.516  14.169  0.00  0.00     0.260 C 
ATOM     13  C2' 6CN d          25.039 -17.099  14.088  0.00  0.00     0.198 C 
ATOM     14  C3' 6CN d          23.878 -17.237  13.091  0.00  0.00     0.182 C 
ATOM     15  C4' 6CN d          24.409 -18.273  12.114  0.00  0.00     0.180 C 
ATOM     16  O4' 6CN d          25.361 -19.080  12.847  0.00  0.00    -0.354 OA
BRANCH  13  17
ATOM     17  O2' 6CN d          24.561 -16.663  15.359  0.00  0.00    -0.388 OA
ATOM     18  H7  6CN d          23.939 -17.297  15.697  0.00  0.00     0.210 HD
ENDBRANCH  13  17
BRANCH  14  19
ATOM     19  O3' 6CN d          22.750 -17.864  13.777  0.00  0.00    -0.390 OA
ATOM     20  H5  6CN d          22.381 -17.252  14.403  0.00  0.00     0.210 HD
ENDBRANCH  14  19
BRANCH  15  21
ATOM     21  C5' 6CN d          25.160 -17.632  10.943  0.00  0.00     0.217 C 
BRANCH  21  22
ATOM     22  O5' 6CN d          24.117 -17.033  10.169  0.00  0.00    -0.280 OA
BRANCH  22  23
ATOM     23  P   6CN d          24.490 -16.155   8.829  0.00  0.00     0.422 P 
ATOM     24  O3P 6CN d          25.805 -15.443   9.062  0.00  0.00    -0.617 OA
ATOM     25  O1P 6CN d          23.307 -15.240   8.714  0.00  0.00    -0.617 OA
ATOM     26  O2P 6CN d          24.593 -17.159   7.689  0.00  0.00    -0.617 OA
ENDBRANCH  22  23
ENDBRANCH  21  22
ENDBRANCH  15  21
ENDBRANCH   1  12
TORSDOF 6
