REMARK  4 active torsions:
REMARK  status: ('A' for Active; 'I' for Inactive)
REMARK    1  A    between atoms: O2_2  and  C3_3 
REMARK    2  A    between atoms: C7_7  and  C9_9 
REMARK    3  A    between atoms: C13_13  and  C14_14 
REMARK    4  A    between atoms: C23_21  and  N24_22 
ROOT
ATOM      1  C9  H24 d          26.112  10.814  19.923  0.00  0.00    -0.025 A 
ATOM      2  C10 H24 d          25.881  11.396  18.672  0.00  0.00     0.012 A 
ATOM      3  C11 H24 d          24.593  11.580  18.203  0.00  0.00     0.002 A 
ATOM      4  C12 H24 d          23.512  11.178  18.971  0.00  0.00     0.010 A 
ATOM      5  C13 H24 d          23.704  10.579  20.215  0.00  0.00    -0.029 A 
ATOM      6  C26 H24 d          25.010  10.402  20.692  0.00  0.00     0.022 A 
ENDROOT
BRANCH   5   7
ATOM      7  C14 H24 d          22.458  10.124  20.998  0.00  0.00     0.079 C 
ATOM      8  C15 H24 d          21.573   9.210  20.097  0.00  0.00     0.045 C 
ATOM      9  C18 H24 d          21.612  11.356  21.448  0.00  0.00     0.140 C 
ATOM     10  C19 H24 d          22.261  12.032  22.649  0.00  0.00     0.240 C 
ATOM     11  O20 H24 d          22.312  13.253  22.721  0.00  0.00    -0.272 OA
ATOM     12  N21 H24 d          22.859  11.229  23.594  0.00  0.00    -0.156 N 
ATOM     13  C22 H24 d          23.430  11.866  24.787  0.00  0.00     0.178 C 
ATOM     14  C23 H24 d          22.895   9.803  23.392  0.00  0.00     0.677 C 
ATOM     15  N25 H24 d          22.719   9.260  22.188  0.00  0.00    -0.213 N 
ATOM     16  H21 H24 d          22.763   8.237  22.077  0.00  0.00     0.179 HD
BRANCH  14  17
ATOM     17  N24 H24 d          23.092   8.991  24.433  0.00  0.00    -0.234 N 
ATOM     18  H19 H24 d          23.118   7.971  24.293  0.00  0.00     0.174 HD
ATOM     19  H20 H24 d          23.218   9.384  25.377  0.00  0.00     0.174 HD
ENDBRANCH  14  17
ENDBRANCH   5   7
BRANCH   1  20
ATOM     20  C7  H24 d          27.496  10.685  20.458  0.00  0.00    -0.023 A 
ATOM     21  C6  H24 d          28.451  11.680  20.231  0.00  0.00     0.012 A 
ATOM     22  C5  H24 d          29.707  11.614  20.816  0.00  0.00     0.004 A 
ATOM     23  C4  H24 d          30.033  10.562  21.655  0.00  0.00     0.037 A 
ATOM     24  C3  H24 d          29.106   9.546  21.862  0.00  0.00     0.069 A 
ATOM     25  C8  H24 d          27.853   9.594  21.257  0.00  0.00     0.049 A 
BRANCH  24  26
ATOM     26  O2  H24 d          29.300   8.498  22.724  0.00  0.00    -0.356 OA
ATOM     27  C1  H24 d          30.466   8.525  23.562  0.00  0.00     0.210 C 
ENDBRANCH  24  26
ENDBRANCH   1  20
TORSDOF 4
