REMARK  3 active torsions:
REMARK  status: ('A' for Active; 'I' for Inactive)
REMARK    1  A    between atoms: C15_15  and  C11_11 
REMARK    2  A    between atoms: C12_12  and  C18_18 
REMARK    3  A    between atoms: C13_13  and  N20_20 
ROOT
ATOM      1  C10 MOL d          14.768   8.789 -35.881  0.00  0.00     0.131 A 
ATOM      2  C12 MOL d          14.554   7.725 -35.033  0.00  0.00     0.023 A 
ATOM      3  C15 MOL d          15.854   7.295 -34.653  0.00  0.00     0.098 A 
ATOM      4  N19 MOL d          16.804   8.043 -35.229  0.00  0.00    -0.167 NA
ATOM      5  N20 MOL d          16.122   8.930 -35.962  0.00  0.00    -0.244 N 
ENDROOT
BRANCH   2   6
ATOM      6  C18 MOL d          13.247   7.186 -34.625  0.00  0.00     0.216 A 
ATOM      7  C16 MOL d          12.663   6.258 -35.660  0.00  0.00     0.253 A 
ATOM      8  N21 MOL d          11.510   6.806 -36.132  0.00  0.00    -0.277 N 
ATOM      9  O23 MOL d          13.124   5.174 -35.974  0.00  0.00    -0.270 OA
ATOM     10  C17 MOL d          11.216   7.982 -35.504  0.00  0.00     0.323 A 
ATOM     11  H12 MOL d          10.947   6.397 -36.851  0.00  0.00     0.173 HD
ATOM     12  N22 MOL d          12.259   8.246 -34.656  0.00  0.00    -0.325 N 
ATOM     13  O24 MOL d          10.216   8.657 -35.692  0.00  0.00    -0.247 OA
ATOM     14  H13 MOL d          12.331   9.084 -34.114  0.00  0.00     0.165 HD
ENDBRANCH   2   6
BRANCH   3  15
ATOM     15  C11 MOL d          16.268   6.247 -33.764  0.00  0.00    -0.005 A 
ATOM     16  C4  MOL d          15.656   5.016 -33.760  0.00  0.00     0.017 A 
ATOM     17  C8  MOL d          16.093   4.038 -32.893  0.00  0.00     0.043 A 
ATOM     18  C14 MOL d          17.138   4.278 -32.030  0.00  0.00     0.116 A 
ATOM     19  C9  MOL d          17.754   5.508 -32.027  0.00  0.00     0.043 A 
ATOM     20  F25 MOL d          17.546   3.301 -31.179  0.00  0.00    -0.206 F 
ATOM     21  C5  MOL d          17.320   6.492 -32.898  0.00  0.00     0.017 A 
ENDBRANCH   3  15
BRANCH   5  22
ATOM     22  C13 MOL d          16.793   9.910 -36.689  0.00  0.00     0.058 A 
ATOM     23  C6  MOL d          16.117  10.590 -37.670  0.00  0.00     0.031 A 
ATOM     24  C2  MOL d          16.790  11.560 -38.378  0.00  0.00     0.002 A 
ATOM     25  C1  MOL d          18.109  11.827 -38.090  0.00  0.00     0.000 A 
ATOM     26  C3  MOL d          18.768  11.136 -37.098  0.00  0.00     0.002 A 
ATOM     27  C7  MOL d          18.105  10.166 -36.381  0.00  0.00     0.031 A 
ENDBRANCH   5  22
TORSDOF 3
