REMARK  10 active torsions:
REMARK  status: ('A' for Active; 'I' for Inactive)
REMARK    1  A    between atoms: O7_1  and  C7_2 
REMARK    2  A    between atoms: N8_14  and  C1'_15 
REMARK    3  A    between atoms: C1'_15  and  C2'_16 
REMARK    4  A    between atoms: C2'_16  and  O2'_17 
REMARK    5  A    between atoms: C2'_16  and  C3'_18 
REMARK    6  A    between atoms: C3'_18  and  O3'_19 
REMARK    7  A    between atoms: C3'_18  and  C4'_20 
REMARK    8  A    between atoms: C4'_20  and  O4'_21 
REMARK    9  A    between atoms: C4'_20  and  C5'_22 
REMARK   10  A    between atoms: C5'_22  and  O5'_23 
ROOT
ATOM      1  C7  1VY d         -90.085  67.855  95.085  0.00  0.00     0.169 A 
ATOM      2  C6  1VY d         -90.835  68.703  94.274  0.00  0.00     0.082 A 
ATOM      3  C9  1VY d         -90.403  70.033  94.051  0.00  0.00     0.075 C 
ATOM      4  N5  1VY d         -91.966  68.234  93.706  0.00  0.00    -0.240 NA
ATOM      5  C4A 1VY d         -92.365  66.953  93.909  0.00  0.00     0.171 A 
ATOM      6  C4  1VY d         -93.591  66.490  93.403  0.00  0.00     0.282 A 
ATOM      7  O4  1VY d         -94.358  67.258  92.812  0.00  0.00    -0.265 OA
ATOM      8  N3  1VY d         -94.022  65.243  93.717  0.00  0.00    -0.272 N 
ATOM      9  C2  1VY d         -93.235  64.414  94.458  0.00  0.00     0.350 A 
ATOM     10  O2  1VY d         -93.552  63.241  94.673  0.00  0.00    -0.244 OA
ATOM     11  N1  1VY d         -92.059  64.858  94.959  0.00  0.00    -0.173 NA
ATOM     12  C8A 1VY d         -91.601  66.106  94.722  0.00  0.00     0.172 A 
ATOM     13  N8  1VY d         -90.450  66.571  95.294  0.00  0.00    -0.306 N 
ATOM     14  H5  1VY d         -94.919  64.931  93.404  0.00  0.00     0.174 HD
ENDROOT
BRANCH  13  15
ATOM     15  C1' 1VY d         -89.691  65.784  96.296  0.00  0.00     0.167 C 
BRANCH  15  16
ATOM     16  C2' 1VY d         -88.465  65.008  95.855  0.00  0.00     0.167 C 
BRANCH  16  17
ATOM     17  O2' 1VY d         -87.633  65.809  94.980  0.00  0.00    -0.391 OA
ATOM     18  H9  1VY d         -87.351  66.590  95.441  0.00  0.00     0.210 HD
ENDBRANCH  16  17
BRANCH  16  19
ATOM     19  C3' 1VY d         -88.879  63.678  95.219  0.00  0.00     0.179 C 
BRANCH  19  20
ATOM     20  O3' 1VY d         -90.106  63.152  95.823  0.00  0.00    -0.390 OA
ATOM     21  H11 1VY d         -90.811  63.777  95.700  0.00  0.00     0.210 HD
ENDBRANCH  19  20
BRANCH  19  22
ATOM     22  C4' 1VY d         -87.715  62.657  95.237  0.00  0.00     0.173 C 
BRANCH  22  23
ATOM     23  O4' 1VY d         -88.151  61.580  94.456  0.00  0.00    -0.391 OA
ATOM     24  H13 1VY d         -88.941  61.214  94.836  0.00  0.00     0.210 HD
ENDBRANCH  22  23
BRANCH  22  25
ATOM     25  C5' 1VY d         -87.476  62.078  96.622  0.00  0.00     0.198 C 
BRANCH  25  26
ATOM     26  O5' 1VY d         -86.091  61.978  97.021  0.00  0.00    -0.398 OA
ATOM     27  H16 1VY d         -86.040  61.608  97.894  0.00  0.00     0.209 HD
ENDBRANCH  25  26
ENDBRANCH  22  25
ENDBRANCH  19  22
ENDBRANCH  16  19
ENDBRANCH  15  16
ENDBRANCH  13  15
BRANCH   1  28
ATOM     28  O7  1VY d         -88.924  68.368  95.592  0.00  0.00    -0.344 OA
ATOM     29  H1  1VY d         -88.186  67.878  95.249  0.00  0.00     0.219 HD
ENDBRANCH   1  28
TORSDOF 10
