REMARK  1 active torsions:
REMARK  status: ('A' for Active; 'I' for Inactive)
REMARK    1  A    between atoms: C1_1  and  O1_19 
ROOT
ATOM      1  C1  EQU d          13.050 -41.726 -15.931  0.00  0.00     0.066 A 
ATOM      2  C2  EQU d          13.150 -42.788 -16.798  0.00  0.00     0.048 A 
ATOM      3  C3  EQU d          13.288 -44.086 -16.263  0.00  0.00    -0.023 A 
ATOM      4  C4  EQU d          13.329 -44.301 -14.803  0.00  0.00    -0.019 A 
ATOM      5  C5  EQU d          13.233 -43.184 -13.959  0.00  0.00     0.015 A 
ATOM      6  C6  EQU d          13.096 -41.919 -14.506  0.00  0.00     0.037 A 
ATOM      7  C10 EQU d          13.378 -45.185 -17.197  0.00  0.00     0.013 A 
ATOM      8  C11 EQU d          13.500 -46.508 -16.679  0.00  0.00     0.009 A 
ATOM      9  C12 EQU d          13.535 -46.728 -15.256  0.00  0.00    -0.046 A 
ATOM     10  C13 EQU d          13.456 -45.637 -14.310  0.00  0.00    -0.040 A 
ATOM     11  C16 EQU d          13.644 -48.128 -14.767  0.00  0.00     0.035 C 
ATOM     12  C17 EQU d          13.008 -48.313 -13.361  0.00  0.00     0.025 C 
ATOM     13  C18 EQU d          13.626 -47.330 -12.351  0.00  0.00     0.022 C 
ATOM     14  C19 EQU d          13.491 -45.856 -12.814  0.00  0.00     0.041 C 
ATOM     15  C24 EQU d          12.906 -49.243 -15.557  0.00  0.00     0.018 C 
ATOM     16  C25 EQU d          13.273 -50.474 -14.669  0.00  0.00     0.080 C 
ATOM     17  C26 EQU d          13.317 -49.799 -13.245  0.00  0.00     0.136 C 
ATOM     18  C27 EQU d          11.477 -48.150 -13.365  0.00  0.00     0.024 C 
ATOM     19  O26 EQU d          13.568 -50.361 -12.207  0.00  0.00    -0.297 OA
ENDROOT
BRANCH   1  20
ATOM     20  O1  EQU d          12.908 -40.550 -16.479  0.00  0.00    -0.361 OA
ATOM     21  H18 EQU d          12.902 -40.641 -17.425  0.00  0.00     0.217 HD
ENDBRANCH   1  20
TORSDOF 1
