REMARK  6 active torsions:
REMARK  status: ('A' for Active; 'I' for Inactive)
REMARK    1  A    between atoms: C20_6  and  C17_7 
REMARK    2  A    between atoms: C4_11  and  C1_12 
REMARK    3  A    between atoms: N12_24  and  C19_25 
REMARK    4  A    between atoms: C19_25  and  C21_26 
REMARK    5  A    between atoms: C21_26  and  C23_27 
REMARK    6  A    between atoms: C23_27  and  N29_28 
ROOT
ATOM      1  C1  FJD d          -1.206  12.026  22.344  0.00  0.00     0.278 C 
ATOM      2  N3  FJD d          -1.809  13.236  21.763  0.00  0.00    -0.053 N 
ATOM      3  C7  FJD d          -1.600  13.170  20.304  0.00  0.00     0.203 C 
ATOM      4  C14 FJD d          -0.355  13.983  19.973  0.00  0.00     0.036 C 
ATOM      5  C15 FJD d          -0.183  14.933  21.151  0.00  0.00     0.030 C 
ATOM      6  C8  FJD d          -1.179  14.489  22.222  0.00  0.00     0.236 C 
ATOM      7  C5  FJD d          -1.478  11.702  19.953  0.00  0.00     0.125 C 
ATOM      8  C2  FJD d          -1.444  10.953  21.283  0.00  0.00     0.132 C 
ATOM      9  C6  FJD d          -2.782  10.244  21.270  0.00  0.00     0.234 C 
ATOM     10  O13 FJD d          -3.337   9.707  22.214  0.00  0.00    -0.272 OA
ATOM     11  C11 FJD d          -2.727  11.262  19.254  0.00  0.00     0.233 C 
ATOM     12  O18 FJD d          -3.200  11.749  18.227  0.00  0.00    -0.272 OA
ATOM     13  N12 FJD d          -3.326  10.209  19.954  0.00  0.00    -0.288 N 
ATOM     14  H5  FJD d          -2.793  13.256  21.982  0.00  0.00     0.281 HD
ENDROOT
BRANCH   1  15
ATOM     15  C4  FJD d          -1.816  11.650  23.646  0.00  0.00     0.177 A 
ATOM     16  O16 FJD d          -1.307  10.526  24.252  0.00  0.00    -0.291 OA
ATOM     17  C17 FJD d          -2.042  10.424  25.406  0.00  0.00     0.112 A 
ATOM     18  C10 FJD d          -3.010  11.356  25.436  0.00  0.00     0.158 A 
ATOM     19  N9  FJD d          -2.813  12.159  24.302  0.00  0.00    -0.236 NA
BRANCH  17  20
ATOM     20  C20 FJD d          -1.854   9.326  26.285  0.00  0.00     0.042 A 
ATOM     21  C22 FJD d          -2.605   9.038  27.439  0.00  0.00     0.024 A 
ATOM     22  C24 FJD d          -2.233   7.811  28.029  0.00  0.00     0.033 A 
ATOM     23  C25 FJD d          -1.223   7.239  27.300  0.00  0.00     0.075 A 
ATOM     24 CL1  FJD d          -0.451   5.642  27.622  0.00  0.00    -0.076 Cl
ATOM     25  S1  FJD d          -0.700   8.100  25.923  0.00  0.00    -0.075 SA
ENDBRANCH  17  20
ENDBRANCH   1  15
BRANCH  13  26
ATOM     26  C19 FJD d          -4.754   9.957  19.768  0.00  0.00     0.137 C 
BRANCH  26  27
ATOM     27  C21 FJD d          -4.707   8.683  18.916  0.00  0.00     0.048 C 
BRANCH  27  28
ATOM     28  C23 FJD d          -6.059   7.994  18.824  0.00  0.00     0.237 C 
BRANCH  28  29
ATOM     29  N29 FJD d          -6.160   6.953  17.787  0.00  0.00    -0.079 N 
ATOM     30  C32 FJD d          -5.836   7.500  16.452  0.00  0.00     0.271 C 
ATOM     31  C31 FJD d          -7.565   6.540  17.764  0.00  0.00     0.271 C 
ATOM     32  C30 FJD d          -5.339   5.769  18.107  0.00  0.00     0.271 C 
ENDBRANCH  28  29
ENDBRANCH  27  28
ENDBRANCH  26  27
ENDBRANCH  13  26
TORSDOF 6
