REMARK  7 active torsions:
REMARK  status: ('A' for Active; 'I' for Inactive)
REMARK    1  A    between atoms: C1_1  and  O7_7 
REMARK    2  A    between atoms: C4_4  and  C12_12 
REMARK    3  A    between atoms: O7_7  and  C8_8 
REMARK       I    between atoms: C12_12  and  N13_13 
REMARK    4  A    between atoms: N13_13  and  C15_15 
REMARK    5  A    between atoms: C15_15  and  C16_16 
REMARK    6  A    between atoms: C16_16  and  O17_17 
REMARK    7  A    between atoms: O17_17  and  P18_18 
ROOT
ATOM      1  C1  F6F d          51.720  23.878  14.421  0.00  0.00     0.078 A 
ATOM      2  C2  F6F d          50.465  23.658  15.088  0.00  0.00     0.038 A 
ATOM      3  C3  F6F d          49.494  24.710  15.164  0.00  0.00     0.020 A 
ATOM      4  C4  F6F d          49.746  26.011  14.569  0.00  0.00     0.032 A 
ATOM      5  C5  F6F d          51.007  26.246  13.888  0.00  0.00     0.020 A 
ATOM      6  C6  F6F d          51.994  25.173  13.814  0.00  0.00     0.038 A 
ENDROOT
BRANCH   4   7
ATOM      7  C12 F6F d          48.663  27.092  14.726  0.00  0.00     0.251 C 
ATOM      8  N13 F6F d          48.431  27.524  13.446  0.00  0.00    -0.355 N 
ATOM      9  H5  F6F d          48.979  27.241  12.659  0.00  0.00     0.162 HD
ATOM     10  O14 F6F d          47.664  26.746  15.343  0.00  0.00    -0.268 OA
BRANCH   8  11
ATOM     11  C15 F6F d          47.274  28.461  13.353  0.00  0.00     0.149 C 
BRANCH  11  12
ATOM     12  C16 F6F d          46.912  28.984  11.994  0.00  0.00     0.202 C 
BRANCH  12  13
ATOM     13  O17 F6F d          47.602  28.426  10.979  0.00  0.00    -0.281 OA
BRANCH  13  14
ATOM     14  P18 F6F d          47.913  29.593   9.878  0.00  0.00     0.422 P 
ATOM     15  O19 F6F d          48.213  28.938   8.547  0.00  0.00    -0.617 OA
ATOM     16  O20 F6F d          49.130  30.275  10.431  0.00  0.00    -0.617 OA
ATOM     17  O21 F6F d          46.600  30.337   9.745  0.00  0.00    -0.617 OA
ENDBRANCH  13  14
ENDBRANCH  12  13
ENDBRANCH  11  12
ENDBRANCH   8  11
ENDBRANCH   4   7
BRANCH   1  18
ATOM     18  O7  F6F d          52.712  22.925  14.327  0.00  0.00    -0.255 OA
BRANCH  18  19
ATOM     19  C8  F6F d          52.540  21.966  13.295  0.00  0.00     0.530 C 
ATOM     20  F9  F6F d          51.415  21.277  13.447  0.00  0.00    -0.144 F 
ATOM     21  F10 F6F d          53.542  21.101  13.304  0.00  0.00    -0.144 F 
ATOM     22  F11 F6F d          52.506  22.538  12.101  0.00  0.00    -0.144 F 
ENDBRANCH  18  19
ENDBRANCH   1  18
TORSDOF 7
