REMARK  3 active torsions:
REMARK  status: ('A' for Active; 'I' for Inactive)
REMARK    1  A    between atoms: C14_14  and  C8_8 
REMARK    2  A    between atoms: C9_9  and  C15_15 
REMARK    3  A    between atoms: C18_18  and  O23_23 
ROOT
ATOM      1  C4  ZT4 d         -33.327  32.257   1.910  0.00  0.00     0.015 A 
ATOM      2  C6  ZT4 d         -32.636  32.946   2.927  0.00  0.00     0.040 A 
ATOM      3  C8  ZT4 d         -33.390  32.784   0.622  0.00  0.00    -0.016 A 
ATOM      4  C9  ZT4 d         -32.769  34.027   0.310  0.00  0.00     0.087 A 
ATOM      5  C11 ZT4 d         -32.014  34.121   2.561  0.00  0.00     0.106 A 
ATOM      6  C12 ZT4 d         -32.097  34.655   1.326  0.00  0.00     0.122 A 
ATOM      7  C17 ZT4 d         -30.746  35.844   2.554  0.00  0.00     0.352 C 
ATOM      8  O21 ZT4 d         -31.307  34.913   3.425  0.00  0.00    -0.323 OA
ATOM      9  O22 ZT4 d         -31.428  35.859   1.284  0.00  0.00    -0.322 OA
ENDROOT
BRANCH   3  10
ATOM     10  C14 ZT4 d         -34.095  32.021  -0.451  0.00  0.00     0.023 C 
ATOM     11  C13 ZT4 d         -33.776  30.716  -0.795  0.00  0.00    -0.018 C 
ATOM     12  C7  ZT4 d         -32.735  29.759  -0.319  0.00  0.00    -0.021 A 
ATOM     13  C18 ZT4 d         -34.439  29.996  -1.962  0.00  0.00     0.156 C 
ATOM     14  C3  ZT4 d         -31.700  29.944   0.569  0.00  0.00     0.012 A 
ATOM     15  C10 ZT4 d         -32.861  28.541  -0.932  0.00  0.00    -0.044 A 
ATOM     16  C1  ZT4 d         -30.830  28.906   0.853  0.00  0.00     0.001 A 
ATOM     17  C2  ZT4 d         -30.962  27.698   0.223  0.00  0.00     0.001 A 
ATOM     18  C5  ZT4 d         -31.992  27.506  -0.675  0.00  0.00     0.008 A 
ATOM     19  C16 ZT4 d         -34.022  28.521  -1.880  0.00  0.00     0.076 C 
BRANCH  13  20
ATOM     20  O23 ZT4 d         -35.822  30.192  -1.862  0.00  0.00    -0.391 OA
ATOM     21  H13 ZT4 d         -36.014  31.121  -1.919  0.00  0.00     0.210 HD
ENDBRANCH  13  20
ENDBRANCH   3  10
BRANCH   4  22
ATOM     22  C15 ZT4 d         -32.823  34.648  -1.066  0.00  0.00     0.213 C 
ATOM     23  O19 ZT4 d         -31.860  35.314  -1.541  0.00  0.00    -0.644 OA
ATOM     24  O20 ZT4 d         -33.915  34.514  -1.712  0.00  0.00    -0.644 OA
ENDBRANCH   4  22
TORSDOF 3
