REMARK  2 active torsions:
REMARK  status: ('A' for Active; 'I' for Inactive)
REMARK    1  A    between atoms: N7_12  and  C8_4 
REMARK    2  A    between atoms: C3_8  and  N7_12 
ROOT
ATOM      1  C11 MOL d          25.887  27.462  -4.466  0.00  0.00     0.022 A 
ATOM      2  C8  MOL d          26.903  25.384  -7.359  0.00  0.00     0.158 A 
ATOM      3  C9  MOL d          26.649  26.264  -6.276  0.00  0.00     0.103 A 
ATOM      4  C10 MOL d          25.612  26.383  -5.358  0.00  0.00     0.037 A 
ATOM      5  C12 MOL d          27.143  27.956  -4.922  0.00  0.00     0.119 A 
ATOM      6  N13 MOL d          27.591  27.288  -5.952  0.00  0.00    -0.240 N 
ATOM      7  N14 MOL d          28.794  27.470  -6.694  0.00  0.00    -0.161 NA
ATOM      8  C15 MOL d          29.072  26.679  -7.751  0.00  0.00     0.258 A 
ATOM      9  N16 MOL d          28.159  25.610  -8.046  0.00  0.00    -0.220 NA
ENDROOT
BRANCH   2  10
ATOM     10  N7  MOL d          25.960  24.393  -7.803  0.00  0.00    -0.338 N 
ATOM     11  H   MOL d          25.055  24.341  -7.314  0.00  0.00     0.167 HD
BRANCH  10  12
ATOM     12  C3  MOL d          26.191  23.466  -8.886  0.00  0.00     0.051 A 
ATOM     13  C4  MOL d          25.071  22.607  -9.196  0.00  0.00     0.145 A 
ATOM     14  N5  MOL d          25.256  21.672 -10.257  0.00  0.00    -0.271 NA
ATOM     15  C6  MOL d          26.466  21.485 -11.003  0.00  0.00     0.116 A 
ATOM     16  C1  MOL d          27.605  22.282 -10.717  0.00  0.00     0.021 A 
ATOM     17  C2  MOL d          27.466  23.280  -9.681  0.00  0.00     0.032 A 
ENDBRANCH  10  12
ENDBRANCH   2  10
TORSDOF 2
