REMARK  11 active torsions:
REMARK  status: ('A' for Active; 'I' for Inactive)
REMARK    1  A    between atoms: C1_1  and  O8_8 
REMARK    2  A    between atoms: C2_2  and  O9_9 
REMARK    3  A    between atoms: C3_3  and  S7_7 
REMARK    4  A    between atoms: C5_5  and  C6_6 
REMARK    5  A    between atoms: S7_7  and  C11_11 
REMARK    6  A    between atoms: C10_10  and  C12_12 
REMARK    7  A    between atoms: C12_12  and  N13_13 
REMARK       I    between atoms: N13_13  and  C14_14 
REMARK    8  A    between atoms: C14_14  and  C15_15 
REMARK    9  A    between atoms: C16_16  and  O22_22 
REMARK   10  A    between atoms: C17_17  and  O23_23 
REMARK   11  A    between atoms: C19_19  and  N21_21 
ROOT
ATOM      1  C6  MOL d          19.918 -30.003  10.916  0.00  0.00     0.005 C 
ATOM      2  C10 MOL d          20.680 -29.442  10.019  0.00  0.00    -0.009 C 
ENDROOT
BRANCH   2   3
ATOM      3  C12 MOL d          20.846 -29.974   8.634  0.00  0.00     0.150 C 
BRANCH   3   4
ATOM      4  N13 MOL d          21.798 -29.219   7.860  0.00  0.00    -0.353 N 
ATOM      5  C14 MOL d          22.614 -29.700   6.904  0.00  0.00     0.254 C 
ATOM      6  O24 MOL d          22.504 -30.901   6.519  0.00  0.00    -0.268 OA
ATOM      7  H11 MOL d          21.858 -28.239   8.052  0.00  0.00     0.163 HD
BRANCH   5   8
ATOM      8  C15 MOL d          23.668 -28.849   6.296  0.00  0.00     0.070 A 
ATOM      9  C16 MOL d          23.693 -27.440   6.500  0.00  0.00     0.114 A 
ATOM     10  C17 MOL d          24.767 -26.726   5.902  0.00  0.00     0.102 A 
ATOM     11  C18 MOL d          25.743 -27.290   5.130  0.00  0.00     0.075 A 
ATOM     12  C19 MOL d          25.693 -28.692   4.965  0.00  0.00     0.106 A 
ATOM     13  C20 MOL d          24.662 -29.466   5.541  0.00  0.00     0.056 A 
BRANCH   9  14
ATOM     14  O22 MOL d          22.782 -26.746   7.191  0.00  0.00    -0.357 OA
ATOM     15  H14 MOL d          22.126 -27.341   7.534  0.00  0.00     0.217 HD
ENDBRANCH   9  14
BRANCH  10  16
ATOM     16  O23 MOL d          24.812 -25.357   6.088  0.00  0.00    -0.358 OA
ATOM     17  H15 MOL d          24.085 -25.089   6.638  0.00  0.00     0.217 HD
ENDBRANCH  10  16
BRANCH  12  18
ATOM     18  N21 MOL d          26.693 -29.360   4.162  0.00  0.00    -0.116 N 
ATOM     19  O25 MOL d          27.496 -28.742   3.514  0.00  0.00    -0.532 OA
ATOM     20  O26 MOL d          26.658 -30.582   4.153  0.00  0.00    -0.532 OA
ENDBRANCH  12  18
ENDBRANCH   5   8
ENDBRANCH   3   4
ENDBRANCH   2   3
BRANCH   1  21
ATOM     21  C5  MOL d          19.784 -29.416  12.256  0.00  0.00     0.177 C 
ATOM     22  C1  MOL d          20.464 -30.329  13.322  0.00  0.00     0.182 C 
ATOM     23  C2  MOL d          19.387 -31.433  13.330  0.00  0.00     0.189 C 
ATOM     24  C3  MOL d          18.068 -30.667  13.201  0.00  0.00     0.220 C 
ATOM     25  O4  MOL d          18.423 -29.406  12.616  0.00  0.00    -0.361 OA
BRANCH  22  26
ATOM     26  O8  MOL d          20.477 -29.620  14.559  0.00  0.00    -0.390 OA
ATOM     27  H6  MOL d          19.585 -29.419  14.817  0.00  0.00     0.210 HD
ENDBRANCH  22  26
BRANCH  23  28
ATOM     28  O9  MOL d          19.380 -32.212  14.533  0.00  0.00    -0.389 OA
ATOM     29  H7  MOL d          19.276 -31.636  15.281  0.00  0.00     0.210 HD
ENDBRANCH  23  28
BRANCH  24  30
ATOM     30  S7  MOL d          16.950 -31.614  12.158  0.00  0.00    -0.095 SA
BRANCH  30  31
ATOM     31  C11 MOL d          15.409 -31.140  12.597  0.00  0.00     0.005 A 
ATOM     32  C27 MOL d          14.235 -31.884  12.159  0.00  0.00     0.038 A 
ATOM     33  C28 MOL d          12.955 -31.486  12.564  0.00  0.00     0.117 A 
ATOM     34  N29 MOL d          12.699 -30.395  13.361  0.00  0.00    -0.273 NA
ATOM     35  C30 MOL d          13.814 -29.677  13.773  0.00  0.00     0.117 A 
ATOM     36  C31 MOL d          15.119 -30.017  13.429  0.00  0.00     0.038 A 
ENDBRANCH  30  31
ENDBRANCH  24  30
ENDBRANCH   1  21
TORSDOF 11
