1g4j_ligand

Created by X-TOOL on Fri Sep 26 17:34:16 2014
 34 35  0  0  0  0  0  0  0  0999 V2000
   -3.7910    3.4140   14.8570  C 0  0  0  2  0  3
   -4.2600    2.3160   15.5700  C 0  0  0  2  0  3
   -5.6410    2.2290   15.8850  C 0  0  0  1  0  3
   -6.4870    3.2450   15.4460  C 0  0  0  2  0  3
   -5.9900    4.3270   14.7320  C 0  0  0  2  0  3
   -4.6480    4.4260   14.4440  C 0  0  0  1  0  3
   -4.1170    5.6280   13.7280  C 0  0  0  1  0  3
   -4.9540    6.4720   13.4230  O 0  0  0  1  0  1
   -2.7550    5.8620   13.4360  N 0  0  0  2  0  3
   -2.3840    6.7140   12.3150  C 0  0  0  3  0  4
   -6.2020    0.8280   16.8390  S 0  0  0  1  0  4
   -5.7890   -0.5940   16.0600  N 0  0  0  3  0  3
   -7.6480    1.0770   16.9330  O 0  0  0  1  0  1
   -5.5440    1.0340   18.1350  O 0  0  0  1  0  1
   -1.3870    7.6740   12.6900  C 0  0  0  1  0  3
   -1.5660    8.3690   13.9310  C 0  0  0  1  0  3
   -0.5680    9.3310   14.3390  C 0  0  0  1  0  3
    0.5830    9.5770   13.5040  C 0  0  0  1  0  3
    0.7500    8.8730   12.2650  C 0  0  0  1  0  3
   -0.2250    7.9230   11.8510  C 0  0  0  1  0  3
   -2.6310    8.1410   14.7120  F 0  0  0  1  0  1
   -0.7120    9.9940   15.4950  F 0  0  0  1  0  1
    1.5030   10.4710   13.8910  F 0  0  0  1  0  1
    1.8200    9.1010   11.4910  F 0  0  0  1  0  1
   -0.0430    7.2770   10.6910  F 0  0  0  1  0  1
   -2.7356    3.4814   14.6188  H 0  0  0  1  0  1
   -3.5772    1.5341   15.8822  H 0  0  0  1  0  1
   -7.5473    3.1901   15.6648  H 0  0  0  1  0  1
   -6.6678    5.1038   14.3971  H 0  0  0  1  0  1
   -2.0443    5.4418   14.0002  H 0  0  0  1  0  1
   -3.2782    7.2477   11.9608  H 0  0  0  1  0  1
   -1.9872    6.0851   11.5044  H 0  0  0  1  0  1
   -6.0324   -1.4751   16.4654  H 0  0  0  1  0  1
   -5.2987   -0.5628   15.1890  H 0  0  0  1  0  1
  1  6  4  0  0  1
  1  2  4  0  0  1
  2  3  4  0  0  1
  3 11  1  0  0  2
  3  4  4  0  0  1
  4  5  4  0  0  1
  5  6  4  0  0  1
  6  7  1  0  0  2
  7  9  1  0  0  2
  7  8  2  0  0  2
  9 10  1  0  0  2
 10 15  1  0  0  2
 15 20  4  0  0  1
 15 16  4  0  0  1
 16 17  4  0  0  1
 17 18  4  0  0  1
 18 19  4  0  0  1
 19 20  4  0  0  1
 11 14  2  0  0  2
 11 13  2  0  0  2
 11 12  1  0  0  2
 18 23  1  0  0  2
 19 24  1  0  0  2
 17 22  1  0  0  2
 16 21  1  0  0  2
 20 25  1  0  0  2
  1 26  1  0  0  2
  2 27  1  0  0  2
  4 28  1  0  0  2
  5 29  1  0  0  2
  9 30  1  0  0  2
 10 31  1  0  0  2
 10 32  1  0  0  2
 12 33  1  0  0  2
 12 34  1  0  0  2
M  END
> <MOLECULAR_FORMULA>
C14H9N2O3SF5

> <MOLECULAR_WEIGHT>
380.2

> <NUM_HB_ATOMS>
5  

> <NUM_ROTOR>
3  

> <XLOGP2>
2.42 

$$$$
