REMARK  22 active torsions:
REMARK  status: ('A' for Active; 'I' for Inactive)
REMARK    1  A    between atoms: C2_2  and  C1_1 
REMARK    2  A    between atoms: C1_1  and  C7_7 
REMARK       I    between atoms: N16_16  and  C2_2 
REMARK    3  A    between atoms: C4_4  and  C12_12 
REMARK    4  A    between atoms: C17_17  and  N16_16 
REMARK    5  A    between atoms: C17_17  and  C18_18 
REMARK    6  A    between atoms: C20_20  and  C17_17 
REMARK       I    between atoms: C18_18  and  N29_28 
REMARK    7  A    between atoms: C69_67  and  C20_20 
REMARK    8  A    between atoms: C68_66  and  C22_21 
REMARK    9  A    between atoms: N29_28  and  C30_29 
REMARK   10  A    between atoms: C30_29  and  C31_30 
REMARK   11  A    between atoms: C30_29  and  C38_37 
REMARK   12  A    between atoms: C31_30  and  C32_31 
REMARK   13  A    between atoms: C32_31  and  C33_32 
REMARK   14  A    between atoms: C33_32  and  N34_33 
REMARK       I    between atoms: N34_33  and  C35_34 
REMARK       I    between atoms: C35_34  and  N36_35 
REMARK       I    between atoms: C35_34  and  N37_36 
REMARK       I    between atoms: C38_37  and  N40_39 
REMARK   15  A    between atoms: N40_39  and  C41_40 
REMARK   16  A    between atoms: C41_40  and  C42_41 
REMARK   17  A    between atoms: C41_40  and  C44_43 
REMARK       I    between atoms: C42_41  and  N60_59 
REMARK   18  A    between atoms: C44_43  and  C45_44 
REMARK   19  A    between atoms: C59_58  and  C58_57 
REMARK   20  A    between atoms: N60_59  and  C59_58 
REMARK       I    between atoms: N72_70  and  C68_66 
REMARK   21  A    between atoms: C71_69  and  C70_68 
REMARK   22  A    between atoms: C71_69  and  N72_70 
ROOT
ATOM      1  C18 NSX d          29.165  -7.089  -7.931  0.00  0.00     0.175 C 
ATOM      2  O19 NSX d          30.206  -7.513  -8.626  0.00  0.00    -0.175 OA
ATOM      3  N29 NSX d          28.753  -7.632  -6.612  0.00  0.00    -0.357 N 
ATOM      4  H30 NSX d          27.950  -7.240  -6.164  0.00  0.00     0.162 HD
ENDROOT
BRANCH   1   5
ATOM      5  C17 NSX d          28.286  -5.960  -8.372  0.00  0.00     0.165 C 
BRANCH   5   6
ATOM      6  N16 NSX d          29.239  -5.329  -9.171  0.00  0.00    -0.349 N 
ATOM      7  C2  NSX d          29.517  -3.894  -9.292  0.00  0.00     0.218 C 
ATOM      8  O3  NSX d          28.932  -3.016  -8.711  0.00  0.00    -0.274 OA
ATOM      9  H20 NSX d          29.805  -5.932  -9.733  0.00  0.00     0.163 HD
BRANCH   7  10
ATOM     10  C1  NSX d          30.547  -3.607 -10.164  0.00  0.00     0.111 C 
BRANCH  10  11
ATOM     11  C7  NSX d          29.829  -3.746 -11.495  0.00  0.00     0.016 A 
ATOM     12  C6  NSX d          29.920  -2.520 -12.407  0.00  0.00    -0.025 A 
ATOM     13  C5  NSX d          29.285  -2.548 -13.707  0.00  0.00    -0.025 A 
ATOM     14  C4  NSX d          28.497  -3.807 -14.201  0.00  0.00     0.015 A 
ATOM     15  C9  NSX d          28.390  -5.025 -13.281  0.00  0.00     0.010 A 
ATOM     16  C8  NSX d          29.031  -5.055 -11.927  0.00  0.00     0.009 A 
BRANCH  14  17
ATOM     17  C12 NSX d          27.870  -3.774 -15.549  0.00  0.00     0.015 A 
ATOM     18  C11 NSX d          26.957  -4.892 -16.125  0.00  0.00     0.009 A 
ATOM     19  C13 NSX d          26.445  -4.620 -17.552  0.00  0.00     0.004 A 
ATOM     20  C10 NSX d          26.781  -3.381 -18.381  0.00  0.00     0.027 A 
ATOM     21  C15 NSX d          27.694  -2.280 -17.776  0.00  0.00    -0.030 A 
ATOM     22  C14 NSX d          28.239  -2.442 -16.423  0.00  0.00    -0.025 A 
ENDBRANCH  14  17
ENDBRANCH  10  11
ENDBRANCH   7  10
ENDBRANCH   5   6
BRANCH   5  23
ATOM     23  C20 NSX d          27.210  -6.462  -9.252  0.00  0.00     0.060 C 
BRANCH  23  24
ATOM     24  C69 NSX d          25.762  -5.957  -9.345  0.00  0.00    -0.027 C 
ATOM     25  C70 NSX d          24.962  -5.933 -10.359  0.00  0.00    -0.011 C 
BRANCH  25  26
ATOM     26  C71 NSX d          25.272  -6.436 -11.783  0.00  0.00     0.149 C 
BRANCH  26  27
ATOM     27  N72 NSX d          24.121  -6.654 -12.813  0.00  0.00    -0.357 N 
ATOM     28  C68 NSX d          24.463  -7.299 -13.883  0.00  0.00     0.222 C 
ATOM     29  O73 NSX d          25.466  -7.703 -14.131  0.00  0.00    -0.273 OA
ATOM     30  H81 NSX d          23.191  -6.321 -12.659  0.00  0.00     0.162 HD
BRANCH  28  31
ATOM     31  C22 NSX d          23.571  -7.607 -14.911  0.00  0.00     0.141 C 
ATOM     32  C23 NSX d          23.605  -7.134 -16.160  0.00  0.00    -0.049 A 
ATOM     33  C24 NSX d          23.299  -5.685 -16.475  0.00  0.00     0.008 A 
ATOM     34  C25 NSX d          23.917  -8.061 -17.340  0.00  0.00     0.008 A 
ATOM     35  C26 NSX d          23.317  -5.098 -17.836  0.00  0.00     0.008 A 
ATOM     36  C28 NSX d          23.605  -5.967 -19.029  0.00  0.00    -0.050 A 
ATOM     37  C27 NSX d          23.934  -7.493 -18.741  0.00  0.00     0.008 A 
ATOM     38  C62 NSX d          23.615  -5.355 -20.326  0.00  0.00     0.044 A 
ATOM     39  C63 NSX d          23.327  -3.830 -20.512  0.00  0.00     0.040 A 
ATOM     40  C64 NSX d          23.864  -6.144 -21.625  0.00  0.00    -0.017 A 
ATOM     41  C65 NSX d          23.322  -3.183 -21.896  0.00  0.00    -0.026 A 
ATOM     42  C67 NSX d          23.586  -4.034 -23.089  0.00  0.00    -0.004 A 
ATOM     43  C66 NSX d          23.849  -5.489 -22.958  0.00  0.00    -0.004 A 
ENDBRANCH  28  31
ENDBRANCH  26  27
ENDBRANCH  25  26
ENDBRANCH  23  24
ENDBRANCH   5  23
ENDBRANCH   1   5
BRANCH   3  44
ATOM     44  C30 NSX d          29.449  -8.684  -5.957  0.00  0.00     0.175 C 
BRANCH  44  45
ATOM     45  C31 NSX d          29.368 -10.099  -6.816  0.00  0.00     0.036 C 
BRANCH  45  46
ATOM     46  C32 NSX d          28.057 -10.549  -7.621  0.00  0.00     0.023 C 
BRANCH  46  47
ATOM     47  C33 NSX d          27.737 -12.069  -7.551  0.00  0.00     0.138 C 
BRANCH  47  48
ATOM     48  N34 NSX d          26.549 -12.627  -8.244  0.00  0.00    -0.227 N 
ATOM     49  C35 NSX d          25.248 -12.834  -7.564  0.00  0.00     0.665 C 
ATOM     50  N36 NSX d          25.129 -13.108  -6.218  0.00  0.00    -0.235 N 
ATOM     51  N37 NSX d          24.032 -12.769  -8.217  0.00  0.00    -0.235 N 
ATOM     52  H39 NSX d          24.197 -13.242  -5.800  0.00  0.00     0.174 HD
ATOM     53  H40 NSX d          25.972 -13.178  -5.630  0.00  0.00     0.174 HD
ATOM     54  H41 NSX d          24.000 -12.570  -9.227  0.00  0.00     0.174 HD
ATOM     55  H42 NSX d          23.158 -12.920  -7.694  0.00  0.00     0.174 HD
ATOM     56  H38 NSX d          26.632 -12.881  -9.239  0.00  0.00     0.177 HD
ENDBRANCH  47  48
ENDBRANCH  46  47
ENDBRANCH  45  46
ENDBRANCH  44  45
BRANCH  44  57
ATOM     57  C38 NSX d          28.889  -9.067  -4.682  0.00  0.00     0.241 C 
ATOM     58  O39 NSX d          29.666  -9.508  -3.790  0.00  0.00    -0.271 OA
ATOM     59  N40 NSX d          27.572  -8.940  -4.582  0.00  0.00    -0.346 N 
ATOM     60  H43 NSX d          27.079  -8.565  -5.368  0.00  0.00     0.163 HD
BRANCH  59  61
ATOM     61  C41 NSX d          26.810  -9.301  -3.431  0.00  0.00     0.177 C 
BRANCH  61  62
ATOM     62  C42 NSX d          26.565 -10.838  -3.656  0.00  0.00     0.240 C 
ATOM     63  O43 NSX d          26.140 -11.259  -4.718  0.00  0.00    -0.271 OA
ATOM     64  N60 NSX d          26.878 -11.678  -2.482  0.00  0.00    -0.359 N 
ATOM     65  H69 NSX d          27.225 -11.277  -1.634  0.00  0.00     0.162 HD
BRANCH  64  66
ATOM     66  C59 NSX d          26.650 -13.195  -2.613  0.00  0.00     0.123 C 
BRANCH  66  67
ATOM     67  C58 NSX d          27.917 -13.767  -3.029  0.00  0.00     0.024 C 
ATOM     68  C52 NSX d          29.078 -13.847  -2.200  0.00  0.00    -0.013 A 
ATOM     69  C53 NSX d          29.010 -14.238  -0.625  0.00  0.00     0.005 A 
ATOM     70  C57 NSX d          30.392 -13.546  -2.877  0.00  0.00     0.005 A 
ATOM     71  C54 NSX d          30.349 -14.283   0.135  0.00  0.00     0.000 A 
ATOM     72  C55 NSX d          31.637 -13.973  -0.592  0.00  0.00     0.000 A 
ATOM     73  C56 NSX d          31.657 -13.615  -2.059  0.00  0.00     0.000 A 
ENDBRANCH  66  67
ENDBRANCH  64  66
ENDBRANCH  61  62
BRANCH  61  74
ATOM     74  C44 NSX d          25.425  -8.579  -3.325  0.00  0.00     0.043 C 
BRANCH  74  75
ATOM     75  C45 NSX d          24.713  -9.114  -2.027  0.00  0.00     0.011 A 
ATOM     76  C46 NSX d          25.076  -8.548  -0.663  0.00  0.00     0.015 A 
ATOM     77  C48 NSX d          24.394  -9.094   0.570  0.00  0.00     0.068 A 
ATOM     78  C50 NSX d          23.337 -10.222   0.428  0.00  0.00     0.084 A 
ATOM     79  C49 NSX d          22.966 -10.787  -0.914  0.00  0.00     0.032 A 
ATOM     80  O51 NSX d          22.749 -10.700   1.499  0.00  0.00    -0.197 OA
ATOM     81  C47 NSX d          23.613 -10.278  -2.143  0.00  0.00    -0.019 A 
ENDBRANCH  74  75
ENDBRANCH  61  74
ENDBRANCH  59  61
ENDBRANCH  44  57
ENDBRANCH   3  44
TORSDOF 22
