REMARK  4 active torsions:
REMARK  status: ('A' for Active; 'I' for Inactive)
REMARK    1  A    between atoms: C1_1  and  C7_9 
REMARK    2  A    between atoms: C6_8  and  N_10 
REMARK    3  A    between atoms: N_10  and  C1'_11 
REMARK    4  A    between atoms: C3'_13  and  C7'_17 
ROOT
ATOM      1  N   FLF d          45.457  43.982 -14.355  0.00  0.00    -0.355 N 
ATOM      2  H5  FLF d          46.212  43.877 -13.662  0.00  0.00     0.166 HD
ENDROOT
BRANCH   1   3
ATOM      3  C6  FLF d          44.894  42.850 -14.948  0.00  0.00     0.049 A 
ATOM      4  C1  FLF d          45.670  41.752 -14.799  0.00  0.00     0.067 A 
ATOM      5  C2  FLF d          45.250  40.546 -15.305  0.00  0.00     0.021 A 
ATOM      6  C3  FLF d          44.034  40.473 -15.971  0.00  0.00     0.001 A 
ATOM      7  C4  FLF d          43.244  41.599 -16.129  0.00  0.00     0.002 A 
ATOM      8  C5  FLF d          43.668  42.817 -15.623  0.00  0.00     0.030 A 
BRANCH   4   9
ATOM      9  C7  FLF d          46.993  41.563 -14.108  0.00  0.00     0.211 C 
ATOM     10  O1  FLF d          47.498  40.429 -13.904  0.00  0.00    -0.644 OA
ATOM     11  O2  FLF d          47.576  42.592 -13.699  0.00  0.00    -0.644 OA
ENDBRANCH   4   9
ENDBRANCH   1   3
BRANCH   1  12
ATOM     12  C1' FLF d          45.005  45.240 -14.694  0.00  0.00     0.033 A 
ATOM     13  C2' FLF d          45.931  46.042 -15.285  0.00  0.00     0.045 A 
ATOM     14  C3' FLF d          45.556  47.307 -15.651  0.00  0.00     0.050 A 
ATOM     15  C4' FLF d          44.266  47.779 -15.417  0.00  0.00     0.016 A 
ATOM     16  C5' FLF d          43.330  46.949 -14.815  0.00  0.00     0.003 A 
ATOM     17  C6' FLF d          43.709  45.662 -14.446  0.00  0.00     0.029 A 
BRANCH  14  18
ATOM     18  C7' FLF d          46.577  48.193 -16.274  0.00  0.00     0.417 C 
ATOM     19  F1  FLF d          47.775  47.950 -15.705  0.00  0.00    -0.166 F 
ATOM     20  F2  FLF d          46.768  47.974 -17.584  0.00  0.00    -0.166 F 
ATOM     21  F3  FLF d          46.029  49.395 -16.003  0.00  0.00    -0.166 F 
ENDBRANCH  14  18
ENDBRANCH   1  12
TORSDOF 4
