REMARK  9 active torsions:
REMARK  status: ('A' for Active; 'I' for Inactive)
REMARK    1  A    between atoms: O6_1  and  C6_2 
REMARK    2  A    between atoms: C6_2  and  C5_3 
REMARK    3  A    between atoms: C4_5  and  O4_6 
REMARK    4  A    between atoms: C3_7  and  O3_8 
REMARK    5  A    between atoms: C2_9  and  O2_10 
REMARK    6  A    between atoms: C1_11  and  O1_12 
REMARK    7  A    between atoms: O1_12  and  C7_13 
REMARK    8  A    between atoms: C7_13  and  C8_14 
REMARK    9  A    between atoms: C9_15  and  C10_16 
ROOT
ATOM      1  C5  FVQ d         -15.204   2.490 -11.506  0.00  0.00     0.179 C 
ATOM      2  O5  FVQ d         -13.729   2.232 -11.509  0.00  0.00    -0.348 OA
ATOM      3  C4  FVQ d         -15.988   1.395 -10.858  0.00  0.00     0.180 C 
ATOM      4  C3  FVQ d         -15.670   0.089 -11.438  0.00  0.00     0.183 C 
ATOM      5  C2  FVQ d         -14.187  -0.141 -11.547  0.00  0.00     0.204 C 
ATOM      6  C1  FVQ d         -13.446   1.010 -12.148  0.00  0.00     0.292 C 
ENDROOT
BRANCH   6   7
ATOM      7  O1  FVQ d         -13.817   1.090 -13.473  0.00  0.00    -0.347 OA
BRANCH   7   8
ATOM      8  C7  FVQ d         -13.069   2.018 -14.287  0.00  0.00     0.265 C 
BRANCH   8   9
ATOM      9  C8  FVQ d         -13.636   2.113 -15.637  0.00  0.00    -0.075 C 
ATOM     10  C9  FVQ d         -14.117   2.293 -16.722  0.00  0.00    -0.063 C 
BRANCH  10  11
ATOM     11  C10 FVQ d         -14.698   2.579 -18.073  0.00  0.00     0.035 A 
ATOM     12  C15 FVQ d         -13.836   3.159 -19.053  0.00  0.00     0.023 A 
ATOM     13  C14 FVQ d         -14.375   3.450 -20.312  0.00  0.00     0.021 A 
ATOM     14  C13 FVQ d         -15.725   3.138 -20.546  0.00  0.00     0.116 A 
ATOM     15  N12 FVQ d         -16.517   2.588 -19.580  0.00  0.00    -0.272 NA
ATOM     16  C11 FVQ d         -16.019   2.304 -18.344  0.00  0.00     0.136 A 
ENDBRANCH  10  11
ENDBRANCH   8   9
ENDBRANCH   7   8
ENDBRANCH   6   7
BRANCH   5  17
ATOM     17  O2  FVQ d         -13.657  -0.371 -10.286  0.00  0.00    -0.388 OA
ATOM     18  H10 FVQ d         -14.069  -1.138  -9.906  0.00  0.00     0.210 HD
ENDBRANCH   5  17
BRANCH   1  19
ATOM     19  C6  FVQ d         -15.385   3.732 -10.803  0.00  0.00     0.198 C 
BRANCH  19  20
ATOM     20  O6  FVQ d         -14.667   3.978  -9.589  0.00  0.00    -0.398 OA
ATOM     21  H1  FVQ d         -13.733   3.945  -9.762  0.00  0.00     0.209 HD
ENDBRANCH  19  20
ENDBRANCH   1  19
BRANCH   4  22
ATOM     22  O3  FVQ d         -16.212  -0.944 -10.673  0.00  0.00    -0.390 OA
ATOM     23  H8  FVQ d         -15.855  -0.906  -9.793  0.00  0.00     0.210 HD
ENDBRANCH   4  22
BRANCH   3  24
ATOM     24  O4  FVQ d         -17.414   1.757 -10.845  0.00  0.00    -0.390 OA
ATOM     25  H6  FVQ d         -17.913   1.061 -10.433  0.00  0.00     0.210 HD
ENDBRANCH   3  24
TORSDOF 9
