REMARK  22 active torsions:
REMARK  status: ('A' for Active; 'I' for Inactive)
REMARK       I    between atoms: N_4  and  C_1 
REMARK    1  A    between atoms: CA_5  and  N_4 
REMARK    2  A    between atoms: C_6  and  CA_5 
REMARK    3  A    between atoms: CA_5  and  CB_8 
REMARK       I    between atoms: N_10  and  C_6 
REMARK    4  A    between atoms: CB_8  and  SG_9 
REMARK    5  A    between atoms: CA_11  and  N_10 
REMARK    6  A    between atoms: C_12  and  CA_11 
REMARK    7  A    between atoms: CA_11  and  CB_14 
REMARK       I    between atoms: N_20  and  C_12 
REMARK    8  A    between atoms: CB_14  and  CG_15 
REMARK    9  A    between atoms: C_22  and  CA_21 
REMARK       I    between atoms: N_27  and  C_22 
REMARK   10  A    between atoms: CA_28  and  N_27 
REMARK   11  A    between atoms: C_29  and  CA_28 
REMARK   12  A    between atoms: CA_28  and  CB_31 
REMARK       I    between atoms: N_36  and  C_29 
REMARK   13  A    between atoms: CB_31  and  CG_32 
REMARK   14  A    between atoms: CG_32  and  CD_33 
REMARK       I    between atoms: CD_33  and  NE2_35 
REMARK   15  A    between atoms: CA_37  and  N_36 
REMARK   16  A    between atoms: C_38  and  CA_37 
REMARK   17  A    between atoms: CA_37  and  CB_40 
REMARK       I    between atoms: N_44  and  C_38 
REMARK   18  A    between atoms: CB_40  and  CG_41 
REMARK       I    between atoms: CG_41  and  ND2_43 
REMARK   19  A    between atoms: N_44  and  CA_45 
REMARK   20  A    between atoms: CA_45  and  C_46 
REMARK   21  A    between atoms: CA_45  and  CB_48 
REMARK       I    between atoms: C_46  and  N_51 
REMARK   22  A    between atoms: CB_48  and  OG1_49 
ROOT
ATOM      1  CA  MOL d          18.418   5.415  14.938  0.00  0.00     0.177 C 
ENDROOT
BRANCH   1   2
ATOM      2  C   MOL d          17.013   4.910  14.731  0.00  0.00     0.241 C 
ATOM      3  O   MOL d          16.254   5.584  14.035  0.00  0.00    -0.271 OA
ATOM      4  N   MOL d          16.609   3.752  15.206  0.00  0.00    -0.346 N 
ATOM      5  H31 MOL d          17.222   3.147  15.715  0.00  0.00     0.163 HD
BRANCH   4   6
ATOM      6  CA  MOL d          15.246   3.406  14.954  0.00  0.00     0.185 C 
BRANCH   6   7
ATOM      7  C   MOL d          14.834   2.729  16.197  0.00  0.00     0.241 C 
ATOM      8  O   MOL d          15.621   2.007  16.817  0.00  0.00    -0.271 OA
ATOM      9  N   MOL d          13.590   3.118  16.482  0.00  0.00    -0.344 N 
ATOM     10  H37 MOL d          13.185   3.760  15.831  0.00  0.00     0.163 HD
BRANCH   9  11
ATOM     11  CA  MOL d          12.731   2.745  17.606  0.00  0.00     0.204 C 
BRANCH  11  12
ATOM     12  C   MOL d          13.453   2.673  18.951  0.00  0.00     0.240 C 
ATOM     13  O   MOL d          14.268   3.553  19.258  0.00  0.00    -0.271 OA
ATOM     14  N   MOL d          13.214   1.698  19.824  0.00  0.00    -0.368 N 
ATOM     15  H44 MOL d          13.702   1.677  20.697  0.00  0.00     0.159 HD
ATOM     16  H45 MOL d          12.546   0.986  19.608  0.00  0.00     0.159 HD
ENDBRANCH  11  12
BRANCH  11  17
ATOM     17  CB  MOL d          11.982   1.394  17.165  0.00  0.00     0.146 C 
ATOM     18  CG2 MOL d          12.882   0.132  17.111  0.00  0.00     0.042 C 
BRANCH  17  19
ATOM     19  OG1 MOL d          10.901   1.227  18.092  0.00  0.00    -0.393 OA
ATOM     20  H40 MOL d          10.420   0.437  17.877  0.00  0.00     0.210 HD
ENDBRANCH  17  19
ENDBRANCH  11  17
ENDBRANCH   9  11
ENDBRANCH   6   7
BRANCH   6  21
ATOM     21  CB  MOL d          15.101   2.478  13.764  0.00  0.00     0.137 C 
BRANCH  21  22
ATOM     22  CG  MOL d          15.071   3.240  12.432  0.00  0.00     0.217 C 
ATOM     23  OD1 MOL d          14.144   3.980  12.070  0.00  0.00    -0.274 OA
ATOM     24  ND2 MOL d          16.097   3.028  11.625  0.00  0.00    -0.370 N 
ATOM     25  H35 MOL d          16.142   3.492  10.741  0.00  0.00     0.159 HD
ATOM     26  H36 MOL d          16.828   2.403  11.899  0.00  0.00     0.159 HD
ENDBRANCH  21  22
ENDBRANCH   6  21
ENDBRANCH   4   6
ENDBRANCH   1   2
BRANCH   1  27
ATOM     27  CB  MOL d          19.316   4.770  13.903  0.00  0.00     0.044 C 
BRANCH  27  28
ATOM     28  CG  MOL d          18.900   5.239  12.494  0.00  0.00     0.105 C 
BRANCH  28  29
ATOM     29  CD  MOL d          19.908   4.880  11.439  0.00  0.00     0.215 C 
ATOM     30  OE1 MOL d          21.101   5.102  11.667  0.00  0.00    -0.274 OA
ATOM     31  NE2 MOL d          19.479   4.293  10.316  0.00  0.00    -0.370 N 
ATOM     32  H29 MOL d          20.132   4.045   9.600  0.00  0.00     0.159 HD
ATOM     33  H30 MOL d          18.505   4.102  10.192  0.00  0.00     0.159 HD
ENDBRANCH  28  29
ENDBRANCH  27  28
ENDBRANCH   1  27
BRANCH   1  34
ATOM     34  N   MOL d          18.982   5.242  16.265  0.00  0.00    -0.346 N 
ATOM     35  C   MOL d          18.370   5.683  17.374  0.00  0.00     0.241 C 
ATOM     36  O   MOL d          17.262   6.199  17.339  0.00  0.00    -0.271 OA
ATOM     37  H23 MOL d          19.862   4.775  16.355  0.00  0.00     0.163 HD
BRANCH  35  38
ATOM     38  CA  MOL d          19.080   5.531  18.702  0.00  0.00     0.179 C 
ATOM     39  N   MOL d          20.062   4.466  18.768  0.00  0.00    -0.337 N 
ATOM     40  CD  MOL d          21.399   5.027  19.027  0.00  0.00     0.127 C 
ATOM     41  C   MOL d          19.731   3.157  18.615  0.00  0.00     0.243 C 
ATOM     42  CG  MOL d          21.128   6.343  19.649  0.00  0.00     0.022 C 
ATOM     43  CB  MOL d          19.847   6.774  19.054  0.00  0.00     0.037 C 
ATOM     44  O   MOL d          18.517   2.883  18.475  0.00  0.00    -0.271 OA
BRANCH  41  45
ATOM     45  CA  MOL d          20.768   2.006  18.724  0.00  0.00     0.182 C 
BRANCH  45  46
ATOM     46  CB  MOL d          21.208   1.472  17.332  0.00  0.00     0.093 C 
BRANCH  46  47
ATOM     47  CG  MOL d          22.063   2.563  16.653  0.00  0.00     0.030 A 
ATOM     48  CD2 MOL d          23.414   2.735  16.809  0.00  0.00     0.143 A 
ATOM     49  NE2 MOL d          23.617   3.927  16.318  0.00  0.00    -0.254 NA
ATOM     50  CE1 MOL d          22.494   4.455  15.884  0.00  0.00     0.207 A 
ATOM     51  ND1 MOL d          21.495   3.617  16.074  0.00  0.00    -0.353 N 
ATOM     52  H13 MOL d          20.503   3.748  15.830  0.00  0.00     0.166 HD
ENDBRANCH  46  47
ENDBRANCH  45  46
BRANCH  45  53
ATOM     53  N   MOL d          19.868   1.149  19.441  0.00  0.00    -0.346 N 
ATOM     54  C   MOL d          20.241   0.424  20.465  0.00  0.00     0.241 C 
ATOM     55  O   MOL d          21.425   0.181  20.753  0.00  0.00    -0.271 OA
ATOM     56  H9  MOL d          18.914   1.104  19.145  0.00  0.00     0.163 HD
BRANCH  54  57
ATOM     57  CA  MOL d          18.984  -0.216  21.057  0.00  0.00     0.185 C 
BRANCH  57  58
ATOM     58  CB  MOL d          18.888   0.365  22.451  0.00  0.00     0.105 C 
BRANCH  58  59
ATOM     59  SG  MOL d          20.307  -0.402  23.249  0.00  0.00    -0.180 SA
ATOM     60  H8  MOL d          21.149  -0.138  22.761  0.00  0.00     0.101 HD
ENDBRANCH  58  59
ENDBRANCH  57  58
BRANCH  57  61
ATOM     61  N   MOL d          18.840  -1.664  21.051  0.00  0.00    -0.347 N 
ATOM     62  C   MOL d          17.677  -2.220  21.398  0.00  0.00     0.214 C 
ATOM     63  O   MOL d          16.706  -1.532  21.733  0.00  0.00    -0.274 OA
ATOM     64  CH3 MOL d          17.543  -3.736  21.321  0.00  0.00     0.117 C 
ATOM     65  H4  MOL d          19.612  -2.242  20.787  0.00  0.00     0.163 HD
ENDBRANCH  57  61
ENDBRANCH  54  57
ENDBRANCH  45  53
ENDBRANCH  41  45
ENDBRANCH  35  38
ENDBRANCH   1  34
TORSDOF 22
