2ov4_ligand

Created by X-TOOL on Fri Sep 26 17:34:36 2014
 47 49  0  0  0  0  0  0  0  0999 V2000
   51.1460   29.0220   31.8380  N 0  0  0  3  0  3
   52.2750   28.8580   32.4770  C 0  0  0  1  0  3
   53.4120   29.6040   32.0730  N 0  0  0  1  0  2
   54.6810   29.5440   32.6720  C 0  0  0  2  0  3
   54.8530   28.6600   33.7150  N 0  0  0  1  0  2
   53.7570   27.8670   34.1650  C 0  0  0  1  0  3
   53.6730   26.9270   35.1720  N 0  0  0  1  0  3
   52.3560   26.4780   35.2010  C 0  0  0  2  0  3
   51.5810   27.0780   34.2510  N 0  0  0  1  0  2
   52.4660   27.9410   33.5980  C 0  0  0  1  0  3
   52.1980   22.3360   37.8890  P 0  0  0  1  0  4
   51.6120   21.6220   36.7860  O 0  0  0  1  0  1
   52.9140   21.5440   38.8630  O 0  0  0  1  0  1
   51.0690   23.1410   38.5820  O 0  0  0  1  0  2
   50.0590   24.1580   37.9240  P 0  0  0  1  0  4
   50.4020   25.6320   38.1860  O 0  0  0  1  0  1
   48.6960   23.9080   38.5220  O 0  0  0  1  0  1
   50.2170   23.5890   36.4150  O 0  0  0  1  0  2
   49.3000   23.5010   35.1850  P 0  0  0  1  0  4
   50.0220   23.5710   33.8870  O 0  0  0  1  0  1
   48.2900   24.5410   35.3320  O 0  0  0  1  0  1
   48.6350   22.2100   35.3990  O 0  0  0  1  0  2
   47.2260   21.8180   36.1040  P 0  0  0  1  0  4
   47.1290   20.3560   36.2910  O 0  0  0  1  0  1
   47.0860   22.4710   37.4390  O 0  0  0  1  0  1
   46.0990   22.2620   35.2000  O 0  0  0  1  0  1
   54.7930   26.4770   36.0620  C 0  0  0  2  0  4
   54.9120   25.1730   35.7410  O 0  0  0  1  0  2
   55.2540   24.3270   36.8730  C 0  0  0  2  0  4
   54.5000   23.0840   36.8950  C 0  0  0  3  0  4
   53.1670   23.3990   37.3510  O 0  0  0  1  0  2
   55.2190   25.2560   38.1090  C 0  0  0  2  0  4
   56.5050   25.5860   38.6200  O 0  0  0  2  0  2
   54.3970   26.3810   37.5080  C 0  0  0  2  0  4
   54.2830   27.6080   38.1140  O 0  0  0  2  0  2
   50.3122   28.4872   32.1201  H 0  0  0  1  0  1
   51.0905   29.6860   31.0525  H 0  0  0  1  0  1
   55.4955   30.1703   32.3264  H 0  0  0  1  0  1
   51.9855   25.7320   35.9026  H 0  0  0  1  0  1
   55.7057   27.0731   35.9149  H 0  0  0  1  0  1
   56.3027   24.0181   36.7510  H 0  0  0  1  0  1
   54.9739   22.3683   37.5829  H 0  0  0  1  0  1
   54.4597   22.6502   35.8850  H 0  0  0  1  0  1
   54.6609   24.7844   38.9312  H 0  0  0  1  0  1
   56.4083   26.1558   39.3740  H 0  0  0  1  0  1
   53.3652   25.9998   37.5189  H 0  0  0  1  0  1
   53.7301   28.1710   37.5850  H 0  0  0  1  0  1
  2  1  1  0  0  2
  2  3  4  0  0  1
 10  2  4  0  0  1
  4  3  4  0  0  1
  5  4  4  0  0  1
  6  5  4  0  0  1
  7  6  1  0  0  1
  6 10  4  0  0  1
  7  8  1  0  0  1
 27  7  1  0  0  2
  8  9  2  0  0  1
  9 10  1  0  0  1
 11 12  2  0  0  2
 11 13  2  0  0  2
 11 14  1  0  0  2
 31 11  1  0  0  2
 14 15  1  0  0  2
 15 16  2  0  0  2
 15 17  2  0  0  2
 15 18  1  0  0  2
 18 19  1  0  0  2
 19 20  2  0  0  2
 19 21  2  0  0  2
 19 22  1  0  0  2
 22 23  1  0  0  2
 23 24  2  0  0  2
 23 25  2  0  0  2
 23 26  2  0  0  2
 28 27  1  0  0  1
 27 34  1  0  0  1
 29 28  1  0  0  1
 30 29  1  0  0  2
 29 32  1  0  0  1
 30 31  1  0  0  2
 32 33  1  0  0  2
 32 34  1  0  0  1
 34 35  1  0  0  2
  1 36  1  0  0  2
  1 37  1  0  0  2
  4 38  1  0  0  2
  8 39  1  0  0  2
 27 40  1  0  0  2
 29 41  1  0  0  2
 30 42  1  0  0  2
 30 43  1  0  0  2
 32 44  1  0  0  2
 33 45  1  0  0  2
 34 46  1  0  0  2
 35 47  1  0  0  2
M  END
> <MOLECULAR_FORMULA>
C10H12N5O16P4

> <MOLECULAR_WEIGHT>
582.0

> <NUM_HB_ATOMS>
21 

> <NUM_ROTOR>
9  

> <XLOGP2>
-4.67

$$$$
