REMARK  2 active torsions:
REMARK  status: ('A' for Active; 'I' for Inactive)
REMARK    1  A    between atoms: C3_3  and  O3_21 
REMARK    2  A    between atoms: C5_5  and  O4_22 
ROOT
ATOM      1  C1  RDC d          18.469  -2.407  -5.876  0.00  0.00     0.297 C 
ATOM      2  C2  RDC d          18.510  -3.231  -4.624  0.00  0.00     0.081 A 
ATOM      3  C3  RDC d          19.479  -4.316  -4.580  0.00  0.00     0.085 A 
ATOM      4  C4  RDC d          19.600  -5.156  -3.476  0.00  0.00     0.076 A 
ATOM      5  C5  RDC d          18.783  -4.960  -2.370  0.00  0.00     0.090 A 
ATOM      6  C6  RDC d          17.812  -3.900  -2.354  0.00  0.00     0.075 A 
ATOM      7  C7  RDC d          17.655  -3.025  -3.456  0.00  0.00    -0.007 A 
ATOM      8  C8  RDC d          16.589  -1.883  -3.401  0.00  0.00     0.124 C 
ATOM      9  C9  RDC d          15.075  -2.234  -3.357  0.00  0.00     0.153 C 
ATOM     10  C10 RDC d          14.557  -3.415  -4.069  0.00  0.00     0.050 C 
ATOM     11  C11 RDC d          14.644  -3.611  -5.381  0.00  0.00     0.003 C 
ATOM     12  C12 RDC d          14.134  -4.786  -6.082  0.00  0.00    -0.001 C 
ATOM     13  C13 RDC d          14.212  -5.004  -7.396  0.00  0.00     0.007 C 
ATOM     14  C14 RDC d          14.792  -4.224  -8.582  0.00  0.00     0.174 A 
ATOM     15  C15 RDC d          15.029  -2.810  -8.602  0.00  0.00     0.157 A 
ATOM     16  C16 RDC d          16.473  -2.327  -8.700  0.00  0.00     0.067 C 
ATOM     17  C17 RDC d          17.031  -1.434  -7.619  0.00  0.00     0.130 C 
ATOM     18  C18 RDC d          16.203  -0.230  -7.208  0.00  0.00     0.040 C 
ATOM     19  O1  RDC d          17.250  -2.220  -6.382  0.00  0.00    -0.312 OA
ATOM     20  O2  RDC d          19.491  -1.935  -6.409  0.00  0.00    -0.259 OA
ATOM     21  O5  RDC d          14.311  -1.557  -2.719  0.00  0.00    -0.293 OA
ATOM     22  O6  RDC d          14.203  -3.449  -9.565  0.00  0.00    -0.371 OA
ATOM     23 CL1  RDC d          16.865  -3.754  -0.932  0.00  0.00    -0.081 Cl
ENDROOT
BRANCH   3  24
ATOM     24  O3  RDC d          20.320  -4.584  -5.619  0.00  0.00    -0.360 OA
ATOM     25  H16 RDC d          20.863  -3.824  -5.789  0.00  0.00     0.217 HD
ENDBRANCH   3  24
BRANCH   5  26
ATOM     26  O4  RDC d          18.870  -5.771  -1.258  0.00  0.00    -0.359 OA
ATOM     27  H17 RDC d          18.237  -5.486  -0.609  0.00  0.00     0.217 HD
ENDBRANCH   5  26
TORSDOF 2
