REMARK  7 active torsions:
REMARK  status: ('A' for Active; 'I' for Inactive)
REMARK    1  A    between atoms: C1_10  and  O1_11 
REMARK    2  A    between atoms: O1_11  and  C1_12 
REMARK    3  A    between atoms: C2_13  and  O2_18 
REMARK    4  A    between atoms: C3_14  and  O3_19 
REMARK    5  A    between atoms: C4_15  and  O4_20 
REMARK    6  A    between atoms: C5_16  and  C6_17 
REMARK    7  A    between atoms: C6_17  and  O6_22 
ROOT
ATOM      1  C1  MHD d          17.119  11.365  34.591  0.00  0.00     0.298 C 
ATOM      2  C2  MHD d          17.172   9.886  34.563  0.00  0.00     0.205 C 
ATOM      3  C3  MHD d          18.344   9.448  33.874  0.00  0.00     0.183 C 
ATOM      4  C4  MHD d          18.478  10.011  32.538  0.00  0.00     0.180 C 
ATOM      5  C5  MHD d          18.300  11.490  32.560  0.00  0.00     0.179 C 
ATOM      6  O5  MHD d          17.127  11.885  33.232  0.00  0.00    -0.348 OA
ENDROOT
BRANCH   1   7
ATOM      7  O1  MHD d          15.972  11.752  35.193  0.00  0.00    -0.315 OA
BRANCH   7   8
ATOM      8  C1  MHD d          15.952  13.177  35.424  0.00  0.00     0.100 A 
ATOM      9  C2  MHD d          16.901  14.145  35.028  0.00  0.00     0.128 A 
ATOM     10  N3  MHD d          16.458  15.342  35.470  0.00  0.00    -0.358 N 
ATOM     11  C10 MHD d          17.149  16.618  35.272  0.00  0.00     0.156 C 
ATOM     12  C4  MHD d          15.267  15.203  36.129  0.00  0.00     0.047 A 
ATOM     13  C5  MHD d          14.378  16.185  36.792  0.00  0.00     0.030 A 
ATOM     14  C9  MHD d          14.915  13.840  36.125  0.00  0.00     0.026 A 
ATOM     15  C6  MHD d          13.188  15.744  37.412  0.00  0.00     0.002 A 
ATOM     16  C7  MHD d          12.831  14.365  37.400  0.00  0.00     0.001 A 
ATOM     17  C8  MHD d          13.713  13.392  36.738  0.00  0.00     0.016 A 
ENDBRANCH   7   8
ENDBRANCH   1   7
BRANCH   2  18
ATOM     18  O2  MHD d          17.189   9.404  35.940  0.00  0.00    -0.388 OA
ATOM     19  H16 MHD d          16.406   9.701  36.388  0.00  0.00     0.210 HD
ENDBRANCH   2  18
BRANCH   3  20
ATOM     20  O3  MHD d          18.331   7.982  33.809  0.00  0.00    -0.390 OA
ATOM     21  H17 MHD d          17.598   7.696  33.276  0.00  0.00     0.210 HD
ENDBRANCH   3  20
BRANCH   5  22
ATOM     22  C6  MHD d          18.251  12.062  31.156  0.00  0.00     0.198 C 
BRANCH  22  23
ATOM     23  O6  MHD d          18.265  13.456  31.127  0.00  0.00    -0.398 OA
ATOM     24  H19 MHD d          17.511  13.789  31.599  0.00  0.00     0.209 HD
ENDBRANCH  22  23
ENDBRANCH   5  22
BRANCH   4  25
ATOM     25  O4  MHD d          17.500   9.378  31.669  0.00  0.00    -0.390 OA
ATOM     26  H18 MHD d          17.636   8.438  31.673  0.00  0.00     0.210 HD
ENDBRANCH   4  25
TORSDOF 7
