REMARK  2 active torsions:
REMARK  status: ('A' for Active; 'I' for Inactive)
REMARK    1  A    between atoms: CAI_9  and  OAD_4 
REMARK    2  A    between atoms: CAH_8  and  CAJ_10 
ROOT
ATOM      1  OAB D1X d         -37.297   9.308  -7.312  0.00  0.00    -0.268 OA
ATOM      2  CAE D1X d         -39.073  11.006 -10.505  0.00  0.00     0.074 A 
ATOM      3  CAF D1X d         -38.753   9.097  -9.050  0.00  0.00     0.093 A 
ATOM      4  NAG D1X d         -37.539  11.152  -8.634  0.00  0.00    -0.304 N 
ATOM      5  CAI D1X d         -38.160  11.740  -9.749  0.00  0.00     0.143 A 
ATOM      6  CAJ D1X d         -39.370   9.685 -10.158  0.00  0.00     0.050 A 
ATOM      7  CAK D1X d         -37.841   9.826  -8.286  0.00  0.00     0.248 A 
ATOM      8  H4  D1X d         -36.884  11.677  -8.090  0.00  0.00     0.171 HD
ENDROOT
BRANCH   6   9
ATOM      9  CAH D1X d         -40.381   8.883 -10.993  0.00  0.00     0.209 C 
ATOM     10  OAA D1X d         -41.389   9.486 -11.425  0.00  0.00    -0.644 OA
ATOM     11  OAC D1X d         -40.154   7.670 -11.194  0.00  0.00    -0.644 OA
ENDBRANCH   6   9
BRANCH   5  12
ATOM     12  OAD D1X d         -37.871  13.024 -10.086  0.00  0.00    -0.346 OA
ATOM     13  H1  D1X d         -38.370  13.268 -10.857  0.00  0.00     0.219 HD
ENDBRANCH   5  12
TORSDOF 2
