REMARK  4 active torsions:
REMARK  status: ('A' for Active; 'I' for Inactive)
REMARK    1  A    between atoms: C11_2  and  C10_4 
REMARK    2  A    between atoms: C10_4  and  N2_5 
REMARK    3  A    between atoms: C10_4  and  C9_6 
REMARK    4  A    between atoms: C9_6  and  C4_7 
ROOT
ATOM      1  C4  IBC d          13.886   8.634  22.052  0.00  0.00    -0.041 C 
ATOM      2  C1  IBC d          14.152   7.771  20.888  0.00  0.00     0.071 A 
ATOM      3  C5  IBC d          13.398   9.906  21.965  0.00  0.00    -0.018 C 
ATOM      4  C6  IBC d          13.058  10.731  20.727  0.00  0.00     0.028 C 
ATOM      5  C7  IBC d          12.143  10.028  19.713  0.00  0.00     0.010 C 
ATOM      6  C8  IBC d          12.792   8.890  18.883  0.00  0.00     0.068 C 
ATOM      7  C3  IBC d          13.683   7.916  19.590  0.00  0.00     0.092 A 
ATOM      8  O1  IBC d          14.126   6.932  18.788  0.00  0.00    -0.238 OA
ATOM      9  N1  IBC d          14.969   6.053  19.575  0.00  0.00    -0.225 N 
ATOM     10  C2  IBC d          14.991   6.539  20.835  0.00  0.00     0.278 A 
ATOM     11  O2  IBC d          15.635   6.008  21.788  0.00  0.00    -0.265 OA
ATOM     12  H14 IBC d          15.446   5.238  19.246  0.00  0.00     0.198 HD
ENDROOT
BRANCH   1  13
ATOM     13  C9  IBC d          14.090   8.069  23.463  0.00  0.00     0.083 C 
BRANCH  13  14
ATOM     14  C10 IBC d          13.152   6.872  23.824  0.00  0.00     0.287 C 
BRANCH  14  15
ATOM     15  C11 IBC d          13.386   6.515  25.334  0.00  0.00     0.204 C 
ATOM     16  O4  IBC d          14.528   6.105  25.695  0.00  0.00    -0.646 OA
ATOM     17  O3  IBC d          12.364   6.642  26.107  0.00  0.00    -0.646 OA
ENDBRANCH  14  15
BRANCH  14  18
ATOM     18  N2  IBC d          11.685   7.174  23.542  0.00  0.00    -0.065 N 
ATOM     19  H2  IBC d          11.570   7.399  22.566  0.00  0.00     0.275 HD
ATOM     20  H3  IBC d          11.389   7.957  24.104  0.00  0.00     0.275 HD
ATOM     21  H4  IBC d          11.126   6.367  23.769  0.00  0.00     0.275 HD
ENDBRANCH  14  18
ENDBRANCH  13  14
ENDBRANCH   1  13
TORSDOF 4
