REMARK  22 active torsions:
REMARK  status: ('A' for Active; 'I' for Inactive)
REMARK    1  A    between atoms: C_1  and  CH_3 
REMARK       I    between atoms: C_1  and  N_26 
REMARK    2  A    between atoms: CH_3  and  ACM_4 
REMARK    3  A    between atoms: CH_3  and  BCM_15 
REMARK    4  A    between atoms: ACM_4  and  AC1_5 
REMARK    5  A    between atoms: BCM_15  and  BC1_16 
REMARK    6  A    between atoms: N_26  and  CA_27 
REMARK    7  A    between atoms: CA_27  and  CB_30 
REMARK    8  A    between atoms: CA_27  and  C_28 
REMARK       I    between atoms: C_28  and  N_36 
REMARK    9  A    between atoms: CB_30  and  CG_31 
REMARK   10  A    between atoms: N_36  and  CA_37 
REMARK   11  A    between atoms: CA_37  and  CB_38 
REMARK   12  A    between atoms: CA_37  and  CH_45 
REMARK   13  A    between atoms: CB_38  and  CG_39 
REMARK   14  A    between atoms: CH_45  and  OH_46 
REMARK   15  A    between atoms: CH_45  and  CM_47 
REMARK   16  A    between atoms: CM_47  and  CA2_48 
REMARK   17  A    between atoms: CA2_48  and  CB2_49 
REMARK   18  A    between atoms: CA2_48  and  C_53 
REMARK   19  A    between atoms: CB2_49  and  CG2_50 
REMARK       I    between atoms: C_53  and  N_55 
REMARK   20  A    between atoms: N_55  and  CA_56 
REMARK   21  A    between atoms: CA_56  and  CB_57 
REMARK   22  A    between atoms: CB_57  and  CG1_58 
ROOT
ATOM      1  CA  MOL d           2.508  30.941  15.948  0.00  0.00     0.182 C 
ENDROOT
BRANCH   1   2
ATOM      2  N   MOL d           2.988  30.347  17.199  0.00  0.00    -0.347 N 
ATOM      3  C   MOL d           3.370  29.097  17.337  0.00  0.00     0.223 C 
ATOM      4  O   MOL d           3.222  28.159  16.536  0.00  0.00    -0.273 OA
ATOM      5  H20 MOL d           3.028  30.936  18.006  0.00  0.00     0.163 HD
BRANCH   3   6
ATOM      6  CH  MOL d           4.037  28.870  18.688  0.00  0.00     0.086 C 
BRANCH   6   7
ATOM      7  ACM MOL d           3.869  27.485  19.145  0.00  0.00     0.054 C 
BRANCH   7   8
ATOM      8  AC1 MOL d           2.340  27.219  19.468  0.00  0.00    -0.046 A 
ATOM      9  AC2 MOL d           1.479  28.320  19.573  0.00  0.00     0.008 A 
ATOM     10  AC3 MOL d           0.118  28.155  19.827  0.00  0.00     0.001 A 
ATOM     11  AC4 MOL d          -0.412  26.881  19.977  0.00  0.00     0.012 A 
ATOM     12  AC4 MOL d           0.419  25.771  19.872  0.00  0.00    -0.025 A 
ATOM     13  AC5 MOL d          -0.139  24.501  20.040  0.00  0.00     0.012 A 
ATOM     14  AC8 MOL d           1.788  25.927  19.615  0.00  0.00    -0.020 A 
ATOM     15  AC6 MOL d           0.692  23.377  19.991  0.00  0.00     0.001 A 
ATOM     16  AC7 MOL d           2.061  23.523  19.734  0.00  0.00     0.001 A 
ATOM     17  AC8 MOL d           2.609  24.797  19.537  0.00  0.00     0.013 A 
ENDBRANCH   7   8
ENDBRANCH   6   7
BRANCH   6  18
ATOM     18  BCM MOL d           5.531  29.186  18.444  0.00  0.00     0.054 C 
BRANCH  18  19
ATOM     19  BC1 MOL d           6.480  28.580  19.469  0.00  0.00    -0.046 A 
ATOM     20  BC2 MOL d           7.010  27.313  19.199  0.00  0.00     0.008 A 
ATOM     21  BC3 MOL d           7.872  26.712  20.096  0.00  0.00     0.001 A 
ATOM     22  BC4 MOL d           8.206  27.368  21.259  0.00  0.00     0.012 A 
ATOM     23  BC4 MOL d           7.701  28.638  21.559  0.00  0.00    -0.025 A 
ATOM     24  BC5 MOL d           8.017  29.346  22.746  0.00  0.00     0.012 A 
ATOM     25  BC8 MOL d           6.793  29.329  20.646  0.00  0.00    -0.020 A 
ATOM     26  BC6 MOL d           7.460  30.629  22.963  0.00  0.00     0.001 A 
ATOM     27  BC7 MOL d           6.628  31.225  22.083  0.00  0.00     0.001 A 
ATOM     28  BC8 MOL d           6.281  30.584  20.910  0.00  0.00     0.013 A 
ENDBRANCH  18  19
ENDBRANCH   6  18
ENDBRANCH   3   6
ENDBRANCH   1   2
BRANCH   1  29
ATOM     29  CB  MOL d           1.101  31.517  15.936  0.00  0.00     0.093 C 
BRANCH  29  30
ATOM     30  CG  MOL d          -0.129  30.694  16.288  0.00  0.00     0.030 A 
ATOM     31  ND1 MOL d          -0.124  29.373  16.738  0.00  0.00    -0.353 N 
ATOM     32  CE1 MOL d          -1.399  29.036  16.976  0.00  0.00     0.207 A 
ATOM     33  H24 MOL d           0.703  28.771  16.863  0.00  0.00     0.166 HD
ATOM     34  NE2 MOL d          -2.175  30.067  16.693  0.00  0.00    -0.254 NA
ATOM     35  CD2 MOL d          -1.415  31.107  16.255  0.00  0.00     0.143 A 
ENDBRANCH  29  30
ENDBRANCH   1  29
BRANCH   1  36
ATOM     36  C   MOL d           3.218  32.271  15.734  0.00  0.00     0.241 C 
ATOM     37  O   MOL d           2.784  33.300  16.281  0.00  0.00    -0.271 OA
ATOM     38  N   MOL d           4.192  32.285  14.939  0.00  0.00    -0.352 N 
ATOM     39  H27 MOL d           4.420  31.429  14.474  0.00  0.00     0.163 HD
BRANCH  38  40
ATOM     40  CA  MOL d           5.022  33.460  14.639  0.00  0.00     0.113 C 
BRANCH  40  41
ATOM     41  CB  MOL d           6.501  33.072  14.789  0.00  0.00     0.032 C 
BRANCH  41  42
ATOM     42  CG  MOL d           6.809  32.494  16.180  0.00  0.00    -0.013 C 
ATOM     43  CD1 MOL d           6.655  33.618  17.219  0.00  0.00     0.005 C 
ATOM     44  CE1 MOL d           7.008  33.130  18.624  0.00  0.00     0.000 C 
ATOM     45  CZ  MOL d           8.413  32.552  18.616  0.00  0.00     0.000 C 
ATOM     46  CE2 MOL d           8.478  31.424  17.595  0.00  0.00     0.000 C 
ATOM     47  CD2 MOL d           8.110  31.945  16.197  0.00  0.00     0.005 C 
ENDBRANCH  41  42
ENDBRANCH  40  41
BRANCH  40  48
ATOM     48  CH  MOL d           4.694  33.964  13.215  0.00  0.00     0.141 C 
BRANCH  48  49
ATOM     49  OH  MOL d           5.264  33.083  12.253  0.00  0.00    -0.393 OA
ATOM     50  H43 MOL d           5.061  33.396  11.379  0.00  0.00     0.210 HD
ENDBRANCH  48  49
BRANCH  48  51
ATOM     51  CM  MOL d           3.157  34.007  13.016  0.00  0.00     0.048 C 
BRANCH  51  52
ATOM     52  CA2 MOL d           2.727  35.109  12.103  0.00  0.00     0.080 C 
BRANCH  52  53
ATOM     53  CB2 MOL d           1.262  35.063  11.910  0.00  0.00     0.018 C 
BRANCH  53  54
ATOM     54  CG2 MOL d           0.913  34.772  10.447  0.00  0.00    -0.022 C 
ATOM     55  CD3 MOL d           0.889  33.261  10.209  0.00  0.00     0.009 C 
ATOM     56  CD4 MOL d          -0.468  35.346  10.113  0.00  0.00     0.009 C 
ENDBRANCH  53  54
ENDBRANCH  52  53
BRANCH  52  57
ATOM     57  C   MOL d           3.012  36.282  12.629  0.00  0.00     0.221 C 
ATOM     58  O   MOL d           2.512  36.623  13.709  0.00  0.00    -0.273 OA
ATOM     59  N   MOL d           3.828  37.019  11.920  0.00  0.00    -0.360 N 
ATOM     60  H56 MOL d           4.146  36.683  11.033  0.00  0.00     0.162 HD
BRANCH  59  61
ATOM     61  CA  MOL d           4.282  38.315  12.394  0.00  0.00     0.126 C 
BRANCH  61  62
ATOM     62  CB  MOL d           3.626  39.446  11.622  0.00  0.00    -0.001 C 
ATOM     63  CG2 MOL d           2.220  39.120  11.124  0.00  0.00     0.011 C 
BRANCH  62  64
ATOM     64  CG1 MOL d           3.491  40.715  12.461  0.00  0.00     0.001 C 
ATOM     65  CD1 MOL d           4.440  41.824  12.015  0.00  0.00     0.005 C 
ENDBRANCH  62  64
ENDBRANCH  61  62
ENDBRANCH  59  61
ENDBRANCH  52  57
ENDBRANCH  51  52
ENDBRANCH  48  51
ENDBRANCH  40  48
ENDBRANCH  38  40
ENDBRANCH   1  36
TORSDOF 22
