2g72_ligand

Created by X-TOOL on Fri Sep 26 17:34:38 2014
 41 43  0  0  0  0  0  0  0  0999 V2000
   25.4190   45.1080   12.8050  C 0  0  0  3  0  4
   24.7240   45.4900   11.4930  C 0  0  0  3  0  4
   25.9940   46.0790   10.3160  S 0  0  0  1  0  2
   27.3250   44.8260   10.3970  C 0  0  0  3  0  4
   27.6210   44.5470   11.8750  C 0  0  0  3  0  4
   26.3920   44.0430   12.5110  N 0  0  0  1  0  3
   26.7330   43.1380   13.8220  S 0  0  0  1  0  4
   25.5190   42.4960   14.2160  O 0  0  0  1  0  1
   27.7170   42.0840   13.4090  O 0  0  0  1  0  1
   27.4210   43.9450   15.2130  C 0  0  0  1  0  3
   27.7660   43.1620   16.3120  C 0  0  0  2  0  3
   28.3510   43.7290   17.4410  C 0  0  0  1  0  3
   28.5980   42.8650   18.6840  C 0  0  0  3  0  4
   29.4230   43.5410   19.7010  N 0  3  0  3  0  4
   29.0200   44.9410   19.9030  C 0  0  0  2  0  4
   29.7940   45.5770   21.0600  C 0  0  0  3  0  4
   29.1530   45.2880   22.2540  F 0  0  0  1  0  1
   29.3000   45.7550   18.6390  C 0  0  0  3  0  4
   28.5990   45.1000   17.4480  C 0  0  0  1  0  3
   28.2490   45.8870   16.3540  C 0  0  0  2  0  3
   27.6570   45.3150   15.2330  C 0  0  0  2  0  3
   24.6753   44.7445   13.5294  H 0  0  0  1  0  1
   25.9385   45.9838   13.2210  H 0  0  0  1  0  1
   23.9916   46.2892   11.6797  H 0  0  0  1  0  1
   24.2099   44.6117   11.0757  H 0  0  0  1  0  1
   28.2290   45.2086    9.9007  H 0  0  0  1  0  1
   26.9978   43.9006    9.9004  H 0  0  0  1  0  1
   27.9415   45.4751   12.3708  H 0  0  0  1  0  1
   28.4176   43.7930   11.9579  H 0  0  0  1  0  1
   27.5762   42.0950   16.2879  H 0  0  0  1  0  1
   29.1106   41.9426   18.3735  H 0  0  0  1  0  1
   27.6265   42.6112   19.1331  H 0  0  0  1  0  1
   30.3860   43.5202   19.4040  H 0  0  0  1  0  1
   29.3301   43.0473   20.5749  H 0  0  0  1  0  1
   27.9436   44.9719   20.1272  H 0  0  0  1  0  1
   29.8347   46.6672   20.9195  H 0  0  0  1  0  1
   30.8164   45.1720   21.0846  H 0  0  0  1  0  1
   30.3841   45.7862   18.4551  H 0  0  0  1  0  1
   28.9207   46.7791   18.7703  H 0  0  0  1  0  1
   28.4394   46.9539   16.3762  H 0  0  0  1  0  1
   27.3826   45.9307   14.3841  H 0  0  0  1  0  1
  1  2  1  0  0  1
  1  6  1  0  0  1
  2  3  1  0  0  1
  3  4  1  0  0  1
  4  5  1  0  0  1
  5  6  1  0  0  1
  6  7  1  0  0  2
  7  8  2  0  0  2
  7  9  2  0  0  2
  7 10  1  0  0  2
 10 11  4  0  0  1
 10 21  4  0  0  1
 11 12  4  0  0  1
 12 13  1  0  0  1
 12 19  4  0  0  1
 13 14  1  0  0  1
 14 15  1  0  0  1
 15 16  1  0  0  2
 15 18  1  0  0  1
 16 17  1  0  0  2
 18 19  1  0  0  1
 19 20  4  0  0  1
 20 21  4  0  0  1
  1 22  1  0  0  2
  1 23  1  0  0  2
  2 24  1  0  0  2
  2 25  1  0  0  2
  4 26  1  0  0  2
  4 27  1  0  0  2
  5 28  1  0  0  2
  5 29  1  0  0  2
 11 30  1  0  0  2
 13 31  1  0  0  2
 13 32  1  0  0  2
 14 33  1  0  0  2
 14 34  1  0  0  2
 15 35  1  0  0  2
 16 36  1  0  0  2
 16 37  1  0  0  2
 18 38  1  0  0  2
 18 39  1  0  0  2
 20 40  1  0  0  2
 21 41  1  0  0  2
M  END
> <MOLECULAR_FORMULA>
C14H20N2O2S2F

> <MOLECULAR_WEIGHT>
331.3

> <NUM_HB_ATOMS>
4  

> <NUM_ROTOR>
2  

> <XLOGP2>
1.56 

$$$$
