REMARK  3 active torsions:
REMARK  status: ('A' for Active; 'I' for Inactive)
REMARK    1  A    between atoms: N1_6  and  S1_7 
REMARK    2  A    between atoms: S1_7  and  C7_10 
REMARK    3  A    between atoms: C3_15  and  C11_16 
ROOT
ATOM      1  C7  F21 d          27.421  43.945  15.213  0.00  0.00     0.075 A 
ATOM      2  C8  F21 d          27.766  43.162  16.312  0.00  0.00     0.034 A 
ATOM      3  C9  F21 d          28.351  43.729  17.441  0.00  0.00    -0.025 A 
ATOM      4  C1  F21 d          28.598  42.865  18.684  0.00  0.00     0.272 C 
ATOM      5  N2  F21 d          29.423  43.541  19.701  0.00  0.00    -0.064 N 
ATOM      6  C3  F21 d          29.020  44.941  19.903  0.00  0.00     0.218 C 
ATOM      7  C4  F21 d          29.300  45.755  18.639  0.00  0.00     0.074 C 
ATOM      8  C10 F21 d          28.599  45.100  17.448  0.00  0.00    -0.048 A 
ATOM      9  C5  F21 d          28.249  45.887  16.354  0.00  0.00     0.009 A 
ATOM     10  C6  F21 d          27.657  45.315  15.233  0.00  0.00     0.025 A 
ATOM     11  H12 F21 d          30.386  43.520  19.404  0.00  0.00     0.278 HD
ATOM     12  H13 F21 d          29.330  43.047  20.575  0.00  0.00     0.278 HD
ENDROOT
BRANCH   1  13
ATOM     13  S1  F21 d          26.733  43.138  13.822  0.00  0.00     0.243 S 
ATOM     14  O2  F21 d          25.519  42.496  14.216  0.00  0.00    -0.206 OA
ATOM     15  O1  F21 d          27.717  42.084  13.409  0.00  0.00    -0.206 OA
BRANCH  13  16
ATOM     16  N1  F21 d          26.392  44.043  12.511  0.00  0.00    -0.205 NA
ATOM     17  C12 F21 d          25.419  45.108  12.805  0.00  0.00     0.117 C 
ATOM     18  C13 F21 d          24.724  45.490  11.493  0.00  0.00     0.089 C 
ATOM     19  S2  F21 d          25.994  46.079  10.316  0.00  0.00    -0.167 SA
ATOM     20  C15 F21 d          27.325  44.826  10.397  0.00  0.00     0.089 C 
ATOM     21  C14 F21 d          27.621  44.547  11.875  0.00  0.00     0.117 C 
ENDBRANCH  13  16
ENDBRANCH   1  13
BRANCH   6  22
ATOM     22  C11 F21 d          29.794  45.577  21.060  0.00  0.00     0.255 C 
ATOM     23  F1  F21 d          29.153  45.288  22.254  0.00  0.00    -0.253 F 
ENDBRANCH   6  22
TORSDOF 3
