REMARK  8 active torsions:
REMARK  status: ('A' for Active; 'I' for Inactive)
REMARK    1  A    between atoms: O3A_8  and  PB_1 
REMARK    2  A    between atoms: PA_5  and  O3A_8 
REMARK    3  A    between atoms: PA_5  and  O5'_9 
REMARK    4  A    between atoms: O5'_9  and  C5'_10 
REMARK    5  A    between atoms: C5'_10  and  C4'_11 
REMARK    6  A    between atoms: C3'_13  and  O3'_14 
REMARK    7  A    between atoms: C2'_15  and  O2'_16 
REMARK    8  A    between atoms: C1'_17  and  N9_18 
ROOT
ATOM      1  C4' ADP d           8.476  18.027  27.584  0.00  0.00     0.180 C 
ATOM      2  O4' ADP d           8.803  17.034  28.557  0.00  0.00    -0.353 OA
ATOM      3  C3' ADP d           9.646  18.990  27.527  0.00  0.00     0.182 C 
ATOM      4  C2' ADP d          10.767  18.308  28.305  0.00  0.00     0.198 C 
ATOM      5  C1' ADP d          10.059  17.288  29.188  0.00  0.00     0.262 C 
ENDROOT
BRANCH   5   6
ATOM      6  N9  ADP d          10.797  16.004  29.282  0.00  0.00    -0.294 N 
ATOM      7  C8  ADP d          10.694  14.990  28.398  0.00  0.00     0.214 A 
ATOM      8  N7  ADP d          11.482  13.943  28.746  0.00  0.00    -0.236 NA
ATOM      9  C5  ADP d          12.106  14.278  29.888  0.00  0.00     0.149 A 
ATOM     10  C6  ADP d          13.087  13.622  30.789  0.00  0.00     0.155 A 
ATOM     11  C4  ADP d          11.654  15.639  30.241  0.00  0.00     0.167 A 
ATOM     12  N6  ADP d          13.556  12.375  30.520  0.00  0.00    -0.382 N 
ATOM     13  N1  ADP d          13.497  14.318  31.874  0.00  0.00    -0.222 NA
ATOM     14  H10 ADP d          14.236  11.933  31.154  0.00  0.00     0.157 HD
ATOM     15  H11 ADP d          13.231  11.872  29.682  0.00  0.00     0.157 HD
ATOM     16  C2  ADP d          13.043  15.560  32.139  0.00  0.00     0.237 A 
ATOM     17  N3  ADP d          12.154  16.216  31.365  0.00  0.00    -0.222 NA
ENDBRANCH   5   6
BRANCH   4  18
ATOM     18  O2' ADP d          11.543  19.240  29.074  0.00  0.00    -0.388 OA
ATOM     19  H7  ADP d          10.979  19.682  29.697  0.00  0.00     0.210 HD
ENDBRANCH   4  18
BRANCH   1  20
ATOM     20  C5' ADP d           8.206  17.363  26.240  0.00  0.00     0.216 C 
BRANCH  20  21
ATOM     21  O5' ADP d           6.882  16.835  26.261  0.00  0.00    -0.287 OA
BRANCH  21  22
ATOM     22  PA  ADP d           5.621  17.679  25.715  0.00  0.00     0.418 P 
ATOM     23  O1A ADP d           4.483  17.523  26.693  0.00  0.00    -0.624 OA
ATOM     24  O2A ADP d           6.096  19.064  25.341  0.00  0.00    -0.624 OA
BRANCH  22  25
ATOM     25  O3A ADP d           5.243  16.890  24.351  0.00  0.00    -0.173 OA
BRANCH  25  26
ATOM     26  PB  ADP d           4.094  15.749  24.238  0.00  0.00     0.431 P 
ATOM     27  O1B ADP d           4.260  15.229  22.831  0.00  0.00    -0.616 OA
ATOM     28  O2B ADP d           2.811  16.519  24.450  0.00  0.00    -0.616 OA
ATOM     29  O3B ADP d           4.409  14.724  25.309  0.00  0.00    -0.616 OA
ENDBRANCH  25  26
ENDBRANCH  22  25
ENDBRANCH  21  22
ENDBRANCH  20  21
ENDBRANCH   1  20
BRANCH   3  30
ATOM     30  O3' ADP d           9.222  20.215  28.140  0.00  0.00    -0.390 OA
ATOM     31  H5  ADP d           9.936  20.841  28.120  0.00  0.00     0.210 HD
ENDBRANCH   3  30
TORSDOF 8
