REMARK  9 active torsions:
REMARK  status: ('A' for Active; 'I' for Inactive)
REMARK    1  A    between atoms: C3_3  and  C13_7 
REMARK    2  A    between atoms: C6_6  and  S21_11 
REMARK    3  A    between atoms: C13_7  and  C15_8 
REMARK    4  A    between atoms: C15_8  and  C17_9 
REMARK    5  A    between atoms: S21_11  and  C23_12 
REMARK    6  A    between atoms: C23_12  and  C25_13 
REMARK    7  A    between atoms: C25_13  and  C29_15 
REMARK    8  A    between atoms: C33_18  and  S42_21 
REMARK    9  A    between atoms: S42_21  and  N48_24 
ROOT
ATOM      1  C25 E2I d          -3.540   5.454  13.582  0.00  0.00     0.169 C 
ATOM      2  O27 E2I d          -4.287   6.038  12.790  0.00  0.00    -0.291 OA
ENDROOT
BRANCH   1   3
ATOM      3  C23 E2I d          -2.078   5.872  13.748  0.00  0.00     0.166 C 
BRANCH   3   4
ATOM      4  S21 E2I d          -1.939   7.577  13.177  0.00  0.00    -0.082 SA
BRANCH   4   5
ATOM      5  C6  E2I d          -1.133   8.976  13.789  0.00  0.00     0.188 A 
ATOM      6  N1  E2I d          -0.503   8.732  14.853  0.00  0.00    -0.235 NA
ATOM      7  C2  E2I d           0.148   9.739  15.369  0.00  0.00     0.128 A 
ATOM      8  C3  E2I d           0.189  11.014  14.847  0.00  0.00    -0.023 A 
ATOM      9  C4  E2I d          -0.515  11.291  13.664  0.00  0.00     0.128 A 
ATOM     10  N5  E2I d          -1.169  10.211  13.171  0.00  0.00    -0.235 NA
BRANCH   8  11
ATOM     11  C13 E2I d           1.015  11.923  15.662  0.00  0.00     0.041 C 
BRANCH  11  12
ATOM     12  C15 E2I d           2.478  11.555  15.291  0.00  0.00     0.004 C 
BRANCH  12  13
ATOM     13  C17 E2I d           3.469  11.818  16.425  0.00  0.00    -0.004 C 
ATOM     14  C19 E2I d           3.898  10.543  17.185  0.00  0.00     0.005 C 
ENDBRANCH  12  13
ENDBRANCH  11  12
ENDBRANCH   8  11
ENDBRANCH   4   5
ENDBRANCH   3   4
ENDBRANCH   1   3
BRANCH   1  15
ATOM     15  C29 E2I d          -4.146   4.325  14.368  0.00  0.00     0.011 A 
ATOM     16  C31 E2I d          -5.522   4.295  14.617  0.00  0.00     0.017 A 
ATOM     17  C32 E2I d          -6.026   3.200  15.359  0.00  0.00     0.026 A 
ATOM     18  C33 E2I d          -5.199   2.201  15.848  0.00  0.00     0.079 A 
ATOM     19  C34 E2I d          -3.846   2.242  15.592  0.00  0.00     0.026 A 
ATOM     20  C35 E2I d          -3.315   3.302  14.847  0.00  0.00     0.017 A 
BRANCH  18  21
ATOM     21  S42 E2I d          -5.853   0.804  16.770  0.00  0.00     0.256 S 
ATOM     22  O44 E2I d          -5.305   0.961  18.129  0.00  0.00    -0.201 OA
ATOM     23  O46 E2I d          -7.314   0.901  16.626  0.00  0.00    -0.201 OA
BRANCH  21  24
ATOM     24  N48 E2I d          -5.139  -0.522  15.985  0.00  0.00    -0.324 N 
ATOM     25  H18 E2I d          -5.332  -1.452  16.298  0.00  0.00     0.169 HD
ATOM     26  H19 E2I d          -4.525  -0.373  15.210  0.00  0.00     0.169 HD
ENDBRANCH  21  24
ENDBRANCH  18  21
ENDBRANCH   1  15
TORSDOF 9
