3sap_ligand

Created by X-TOOL on Fri Sep 26 17:34:55 2014
 43 44  0  0  0  0  0  0  0  0999 V2000
   -0.5030    8.7320   14.8530  N 0  0  0  1  0  2
    0.1480    9.7390   15.3690  C 0  0  0  2  0  3
    0.1890   11.0140   14.8470  C 0  0  0  1  0  3
   -0.5150   11.2910   13.6640  C 0  0  0  2  0  3
   -1.1690   10.2110   13.1710  N 0  0  0  1  0  2
   -1.1330    8.9760   13.7890  C 0  0  0  1  0  3
    1.0150   11.9230   15.6620  C 0  0  0  3  0  4
    2.4780   11.5550   15.2910  C 0  0  0  3  0  4
    3.4690   11.8180   16.4250  C 0  0  0  3  0  4
    3.8980   10.5430   17.1850  C 0  0  0  4  0  4
   -1.9390    7.5770   13.1770  S 0  0  0  1  0  2
   -2.0780    5.8720   13.7480  C 0  0  0  3  0  4
   -3.5400    5.4540   13.5820  C 0  0  0  1  0  3
   -4.2870    6.0380   12.7900  O 0  0  0  1  0  1
   -4.1460    4.3250   14.3680  C 0  0  0  1  0  3
   -5.5220    4.2950   14.6170  C 0  0  0  2  0  3
   -6.0260    3.2000   15.3590  C 0  0  0  2  0  3
   -5.1990    2.2010   15.8480  C 0  0  0  1  0  3
   -3.8460    2.2420   15.5920  C 0  0  0  2  0  3
   -3.3150    3.3020   14.8470  C 0  0  0  2  0  3
   -5.8530    0.8040   16.7700  S 0  0  0  1  0  4
   -5.3050    0.9610   18.1290  O 0  0  0  1  0  1
   -7.3140    0.9010   16.6260  O 0  0  0  1  0  1
   -5.1390   -0.5220   15.9850  N 0  0  0  3  0  3
    0.7018    9.5576   16.2830  H 0  0  0  1  0  1
   -0.5335   12.2675   13.1937  H 0  0  0  1  0  1
    0.8325   11.7584   16.7342  H 0  0  0  1  0  1
    0.8022   12.9725   15.4107  H 0  0  0  1  0  1
    2.7786   12.1527   14.4179  H 0  0  0  1  0  1
    2.5157   10.4861   15.0342  H 0  0  0  1  0  1
    3.0007   12.5083   17.1420  H 0  0  0  1  0  1
    4.3681   12.2867   15.9984  H 0  0  0  1  0  1
    4.6076   10.8121   17.9813  H 0  0  0  1  0  1
    4.3797    9.8438   16.4856  H 0  0  0  1  0  1
    3.0123   10.0654   17.6292  H 0  0  0  1  0  1
   -1.7851    5.8044   14.8061  H 0  0  0  1  0  1
   -1.4293    5.2192   13.1455  H 0  0  0  1  0  1
   -6.1769    5.0797   14.2558  H 0  0  0  1  0  1
   -7.0913    3.1409   15.5506  H 0  0  0  1  0  1
   -3.1964    1.4584   15.9650  H 0  0  0  1  0  1
   -2.2516    3.3321   14.6386  H 0  0  0  1  0  1
   -5.3325   -1.4519   16.2979  H 0  0  0  1  0  1
   -4.5251   -0.3729   15.2098  H 0  0  0  1  0  1
  1  2  4  0  0  1
  1  6  4  0  0  1
  2  3  4  0  0  1
  3  4  4  0  0  1
  3  7  1  0  0  2
  4  5  4  0  0  1
  5  6  4  0  0  1
  6 11  1  0  0  2
  7  8  1  0  0  2
  8  9  1  0  0  2
  9 10  1  0  0  2
 11 12  1  0  0  2
 12 13  1  0  0  2
 13 14  2  0  0  2
 13 15  1  0  0  2
 15 16  4  0  0  1
 15 20  4  0  0  1
 16 17  4  0  0  1
 17 18  4  0  0  1
 18 19  4  0  0  1
 18 21  1  0  0  2
 19 20  4  0  0  1
 21 22  2  0  0  2
 21 23  2  0  0  2
 21 24  1  0  0  2
  2 25  1  0  0  2
  4 26  1  0  0  2
  7 27  1  0  0  2
  7 28  1  0  0  2
  8 29  1  0  0  2
  8 30  1  0  0  2
  9 31  1  0  0  2
  9 32  1  0  0  2
 10 33  1  0  0  2
 10 34  1  0  0  2
 10 35  1  0  0  2
 12 36  1  0  0  2
 12 37  1  0  0  2
 16 38  1  0  0  2
 17 39  1  0  0  2
 19 40  1  0  0  2
 20 41  1  0  0  2
 24 42  1  0  0  2
 24 43  1  0  0  2
M  END
> <MOLECULAR_FORMULA>
C16H19N3O3S2

> <MOLECULAR_WEIGHT>
365.3

> <NUM_HB_ATOMS>
7  

> <NUM_ROTOR>
7  

> <XLOGP2>
2.95 

$$$$
