REMARK  12 active torsions:
REMARK  status: ('A' for Active; 'I' for Inactive)
REMARK    1  A    between atoms: C_3  and  CA_2 
REMARK       I    between atoms: N_9  and  C_3 
REMARK    2  A    between atoms: CA_10  and  N_9 
REMARK    3  A    between atoms: C_11  and  CA_10 
REMARK    4  A    between atoms: CA_10  and  CB_13 
REMARK       I    between atoms: C_11  and  N_18 
REMARK    5  A    between atoms: CB_13  and  CG_14 
REMARK    6  A    between atoms: CG_14  and  CD_15 
REMARK    7  A    between atoms: CD_15  and  CE_16 
REMARK    8  A    between atoms: CE_16  and  NZ_17 
REMARK    9  A    between atoms: N_18  and  CA_19 
REMARK   10  A    between atoms: CA_19  and  C_20 
REMARK   11  A    between atoms: CA_19  and  CB_22 
REMARK   12  A    between atoms: CB_22  and  CG_23 
ROOT
ATOM      1  CA  MOL d          10.827   8.210   6.391  0.00  0.00     0.176 C 
ENDROOT
BRANCH   1   2
ATOM      2  C   MOL d          10.510   8.911   7.695  0.00  0.00     0.241 C 
ATOM      3  O   MOL d          11.190   8.732   8.700  0.00  0.00    -0.271 OA
ATOM      4  N   MOL d           9.474   9.737   7.678  0.00  0.00    -0.344 N 
ATOM      5  H20 MOL d           8.985   9.889   6.819  0.00  0.00     0.163 HD
BRANCH   4   6
ATOM      6  CA  MOL d           9.023  10.440   8.900  0.00  0.00     0.190 C 
BRANCH   6   7
ATOM      7  C   MOL d           7.494  10.666   8.911  0.00  0.00     0.197 C 
ATOM      8  OXT MOL d           6.858  10.545   7.822  0.00  0.00    -0.646 OA
ATOM      9  O   MOL d           6.919  11.010   9.943  0.00  0.00    -0.646 OA
ENDBRANCH   6   7
BRANCH   6  10
ATOM     10  CB  MOL d           9.759  11.787   9.059  0.00  0.00     0.077 C 
BRANCH  10  11
ATOM     11  CG  MOL d           9.431  12.917   8.085  0.00  0.00    -0.028 A 
ATOM     12  CD2 MOL d           9.854  14.276   8.215  0.00  0.00    -0.002 A 
ATOM     13  CE2 MOL d           9.355  14.985   7.100  0.00  0.00     0.042 A 
ATOM     14  CE3 MOL d          10.610  14.963   9.178  0.00  0.00     0.014 A 
ATOM     15  NE1 MOL d           8.661  14.094   6.328  0.00  0.00    -0.365 N 
ATOM     16  CZ2 MOL d           9.575  16.362   6.920  0.00  0.00     0.030 A 
ATOM     17  CD1 MOL d           8.708  12.848   6.926  0.00  0.00     0.096 A 
ATOM     18  H25 MOL d           8.181  14.316   5.444  0.00  0.00     0.165 HD
ATOM     19  CH2 MOL d          10.318  17.027   7.889  0.00  0.00     0.002 A 
ATOM     20  CZ3 MOL d          10.838  16.331   9.013  0.00  0.00     0.001 A 
ENDBRANCH  10  11
ENDBRANCH   6  10
ENDBRANCH   4   6
ENDBRANCH   1   2
BRANCH   1  21
ATOM     21  CB  MOL d          10.346   6.739   6.471  0.00  0.00     0.035 C 
BRANCH  21  22
ATOM     22  CG  MOL d          10.451   5.929   5.168  0.00  0.00     0.004 C 
BRANCH  22  23
ATOM     23  CD  MOL d           9.791   4.547   5.353  0.00  0.00     0.027 C 
BRANCH  23  24
ATOM     24  CE  MOL d          10.004   3.689   4.093  0.00  0.00     0.229 C 
BRANCH  24  25
ATOM     25  NZ  MOL d          11.462   3.657   3.752  0.00  0.00    -0.079 N 
ATOM     26  H17 MOL d          11.602   3.095   2.927  0.00  0.00     0.274 HD
ATOM     27  H18 MOL d          11.978   3.259   4.521  0.00  0.00     0.274 HD
ATOM     28  H19 MOL d          11.787   4.595   3.579  0.00  0.00     0.274 HD
ENDBRANCH  24  25
ENDBRANCH  23  24
ENDBRANCH  22  23
ENDBRANCH  21  22
ENDBRANCH   1  21
BRANCH   1  29
ATOM     29  N   MOL d          12.250   8.304   6.138  0.00  0.00    -0.346 N 
ATOM     30  C   MOL d          12.731   9.111   5.197  0.00  0.00     0.241 C 
ATOM     31  O   MOL d          12.011   9.810   4.496  0.00  0.00    -0.271 OA
ATOM     32  H7  MOL d          12.883   7.752   6.681  0.00  0.00     0.163 HD
BRANCH  30  33
ATOM     33  CA  MOL d          14.234   9.157   5.014  0.00  0.00     0.177 C 
ATOM     34  CB  MOL d          14.762  10.540   5.375  0.00  0.00     0.044 C 
ATOM     35  CG  MOL d          14.968  11.206   4.072  0.00  0.00     0.105 C 
ATOM     36  CD  MOL d          14.805  10.124   3.049  0.00  0.00     0.218 C 
ATOM     37  OE1 MOL d          14.981  10.306   1.832  0.00  0.00    -0.274 OA
ATOM     38  N   MOL d          14.466   8.947   3.574  0.00  0.00    -0.348 N 
ATOM     39  H1  MOL d          14.384   8.081   3.081  0.00  0.00     0.163 HD
ENDBRANCH  30  33
ENDBRANCH   1  29
TORSDOF 12
