REMARK  15 active torsions:
REMARK  status: ('A' for Active; 'I' for Inactive)
REMARK    1  A    between atoms: C21_1  and  O23_3 
REMARK       I    between atoms: N20_22  and  C21_1 
REMARK    2  A    between atoms: O23_3  and  C24_4 
REMARK    3  A    between atoms: C29_9  and  O41_12 
REMARK    4  A    between atoms: N11_13  and  C12_14 
REMARK    5  A    between atoms: C16_18  and  N11_13 
REMARK    6  A    between atoms: N11_13  and  S8_30 
REMARK    7  A    between atoms: C12_14  and  C13_15 
REMARK    8  A    between atoms: C17_19  and  C16_18 
REMARK    9  A    between atoms: C17_19  and  O18_20 
REMARK   10  A    between atoms: C19_21  and  C17_19 
REMARK   11  A    between atoms: C19_21  and  N20_22 
REMARK   12  A    between atoms: C32_23  and  C19_21 
REMARK   13  A    between atoms: C38_29  and  C32_23 
REMARK   14  A    between atoms: S8_30  and  C5_33 
REMARK   15  A    between atoms: C2_38  and  O39_39 
ROOT
ATOM      1  C19 G89 d          15.001  23.074  16.986  0.00  0.00     0.121 C 
ENDROOT
BRANCH   1   2
ATOM      2  C17 G89 d          15.377  24.220  17.918  0.00  0.00     0.160 C 
BRANCH   2   3
ATOM      3  C16 G89 d          16.518  25.085  17.403  0.00  0.00     0.169 C 
BRANCH   3   4
ATOM      4  N11 G89 d          17.775  24.359  17.445  0.00  0.00    -0.304 N 
BRANCH   4   5
ATOM      5  C12 G89 d          18.732  24.700  18.492  0.00  0.00     0.139 C 
BRANCH   5   6
ATOM      6  C13 G89 d          18.359  24.059  19.834  0.00  0.00    -0.004 C 
ATOM      7  C14 G89 d          18.399  22.523  19.745  0.00  0.00     0.011 C 
ATOM      8  C15 G89 d          19.343  24.458  20.940  0.00  0.00     0.011 C 
ENDBRANCH   5   6
ENDBRANCH   4   5
BRANCH   4   9
ATOM      9  S8  G89 d          18.463  24.154  15.972  0.00  0.00     0.260 S 
ATOM     10  O9  G89 d          17.365  24.004  14.965  0.00  0.00    -0.200 OA
ATOM     11  O10 G89 d          19.381  22.974  16.073  0.00  0.00    -0.200 OA
BRANCH   9  12
ATOM     12  C5  G89 d          19.433  25.538  15.526  0.00  0.00     0.079 A 
ATOM     13  C6  G89 d          18.838  26.651  14.957  0.00  0.00     0.028 A 
ATOM     14  C7  G89 d          19.570  27.786  14.625  0.00  0.00     0.038 A 
ATOM     15  C2  G89 d          20.933  27.808  14.937  0.00  0.00     0.068 A 
ATOM     16  C3  G89 d          21.528  26.699  15.530  0.00  0.00     0.038 A 
ATOM     17  C4  G89 d          20.791  25.545  15.814  0.00  0.00     0.028 A 
BRANCH  15  18
ATOM     18  O39 G89 d          21.597  28.960  14.663  0.00  0.00    -0.356 OA
ATOM     19  C40 G89 d          22.972  28.856  14.967  0.00  0.00     0.210 C 
ENDBRANCH  15  18
ENDBRANCH   9  12
ENDBRANCH   4   9
ENDBRANCH   3   4
ENDBRANCH   2   3
BRANCH   2  20
ATOM     20  O18 G89 d          14.228  24.975  18.286  0.00  0.00    -0.392 OA
ATOM     21  H24 G89 d          13.551  24.387  18.599  0.00  0.00     0.210 HD
ENDBRANCH   2  20
ENDBRANCH   1   2
BRANCH   1  22
ATOM     22  N20 G89 d          14.102  22.169  17.730  0.00  0.00    -0.329 N 
ATOM     23  C21 G89 d          14.415  20.962  18.182  0.00  0.00     0.361 C 
ATOM     24  O22 G89 d          15.533  20.455  18.054  0.00  0.00    -0.238 OA
ATOM     25  H26 G89 d          13.174  22.495  17.909  0.00  0.00     0.165 HD
BRANCH  23  26
ATOM     26  O23 G89 d          13.432  20.287  18.827  0.00  0.00    -0.299 OA
BRANCH  26  27
ATOM     27  C24 G89 d          13.738  18.924  19.137  0.00  0.00     0.136 C 
ATOM     28  C25 G89 d          12.604  18.367  20.014  0.00  0.00     0.065 C 
ATOM     29  C26 G89 d          11.531  17.955  19.008  0.00  0.00     0.130 C 
ATOM     30  O27 G89 d          10.860  19.143  18.613  0.00  0.00    -0.383 OA
ATOM     31  C30 G89 d          12.278  17.474  17.775  0.00  0.00     0.048 C 
ATOM     32  C28 G89 d          10.924  19.340  17.213  0.00  0.00     0.200 C 
ATOM     33  C29 G89 d          11.502  18.055  16.597  0.00  0.00     0.148 C 
ATOM     34  C31 G89 d          13.688  18.036  17.895  0.00  0.00     0.042 C 
BRANCH  33  35
ATOM     35  O41 G89 d          10.342  17.290  16.201  0.00  0.00    -0.393 OA
ATOM     36  H11 G89 d           9.918  17.717  15.466  0.00  0.00     0.210 HD
ENDBRANCH  33  35
ENDBRANCH  26  27
ENDBRANCH  23  26
ENDBRANCH   1  22
BRANCH   1  37
ATOM     37  C32 G89 d          14.251  23.532  15.729  0.00  0.00     0.066 C 
BRANCH  37  38
ATOM     38  C38 G89 d          13.951  22.333  14.834  0.00  0.00    -0.056 A 
ATOM     39  C33 G89 d          12.651  21.876  14.683  0.00  0.00     0.007 A 
ATOM     40  C34 G89 d          12.380  20.748  13.943  0.00  0.00     0.001 A 
ATOM     41  C35 G89 d          13.383  20.109  13.216  0.00  0.00     0.000 A 
ATOM     42  C36 G89 d          14.679  20.587  13.363  0.00  0.00     0.001 A 
ATOM     43  C37 G89 d          14.968  21.690  14.154  0.00  0.00     0.007 A 
ENDBRANCH  37  38
ENDBRANCH   1  37
TORSDOF 15
