REMARK  0 active torsions:
REMARK  status: ('A' for Active; 'I' for Inactive)
ROOT
ATOM      1  C1  ABV d         -29.579 -17.600   9.043  0.00  0.00     0.021 A 
ATOM      2  N1  ABV d         -30.403 -19.804  11.635  0.00  0.00    -0.224 NA
ATOM      3  S1  ABV d         -31.613 -19.142   9.499  0.00  0.00    -0.051 SA
ATOM      4  C2  ABV d         -28.424 -17.088   9.469  0.00  0.00     0.002 A 
ATOM      5  N2  ABV d         -32.430 -20.914  11.240  0.00  0.00    -0.378 N 
ATOM      6  C3  ABV d         -27.851 -17.460  10.627  0.00  0.00     0.002 A 
ATOM      7  C4  ABV d         -28.428 -18.402  11.404  0.00  0.00     0.033 A 
ATOM      8  C5  ABV d         -29.595 -18.918  11.010  0.00  0.00     0.076 A 
ATOM      9  C6  ABV d         -30.159 -18.492   9.840  0.00  0.00     0.037 A 
ATOM     10  C7  ABV d         -31.492 -20.071  10.895  0.00  0.00     0.165 A 
ATOM     11  H3  ABV d         -32.331 -21.471  12.101  0.00  0.00     0.158 HD
ATOM     12  H4  ABV d         -33.268 -21.021  10.651  0.00  0.00     0.158 HD
ENDROOT
TORSDOF 0
