REMARK  4 active torsions:
REMARK  status: ('A' for Active; 'I' for Inactive)
REMARK    1  A    between atoms: O19_1  and  C5_2 
REMARK    2  A    between atoms: C5_2  and  C4_3 
REMARK    3  A    between atoms: C3_4  and  O3_5 
REMARK    4  A    between atoms: C1_7  and  N9_9 
ROOT
ATOM      1  N9  MOL d           0.711  12.126  25.364  0.00  0.00    -0.254 N 
ATOM      2  C4  MOL d           1.630  11.352  25.941  0.00  0.00     0.168 A 
ATOM      3  N3  MOL d           2.773  10.707  25.352  0.00  0.00    -0.221 NA
ATOM      4  C5  MOL d           1.353  11.209  27.389  0.00  0.00     0.129 A 
ATOM      5  N7  MOL d           0.222  11.922  27.641  0.00  0.00    -0.302 N 
ATOM      6  C8  MOL d          -0.083  12.437  26.411  0.00  0.00     0.331 A 
ATOM      7  O18 MOL d          -1.121  13.186  26.247  0.00  0.00    -0.246 OA
ATOM      8  C6  MOL d           2.262  10.401  28.111  0.00  0.00     0.153 A 
ATOM      9  N6  MOL d           2.049  10.230  29.443  0.00  0.00    -0.382 N 
ATOM     10  N1  MOL d           3.336   9.807  27.489  0.00  0.00    -0.222 NA
ATOM     11  C2  MOL d           3.574   9.973  26.162  0.00  0.00     0.237 A 
ATOM     12  H10 MOL d          -0.264  12.040  28.507  0.00  0.00     0.171 HD
ATOM     13  H11 MOL d           2.693   9.647  29.997  0.00  0.00     0.157 HD
ATOM     14  H12 MOL d           1.244  10.683  29.898  0.00  0.00     0.157 HD
ENDROOT
BRANCH   1  15
ATOM     15  C1  MOL d           0.566  12.600  23.959  0.00  0.00     0.237 C 
ATOM     16  O4  MOL d           1.631  12.242  23.074  0.00  0.00    -0.356 OA
ATOM     17  C4  MOL d           1.209  11.604  21.870  0.00  0.00     0.176 C 
ATOM     18  C3  MOL d          -0.265  11.670  21.941  0.00  0.00     0.153 C 
ATOM     19  C2  MOL d          -0.706  12.165  23.285  0.00  0.00     0.088 C 
BRANCH  17  20
ATOM     20  C5  MOL d           1.574  10.107  21.832  0.00  0.00     0.198 C 
BRANCH  20  21
ATOM     21  O19 MOL d           2.879   9.862  22.351  0.00  0.00    -0.398 OA
ATOM     22  H1  MOL d           2.920  10.155  23.254  0.00  0.00     0.209 HD
ENDBRANCH  20  21
ENDBRANCH  17  20
BRANCH  18  23
ATOM     23  O3  MOL d          -0.355  12.911  21.260  0.00  0.00    -0.393 OA
ATOM     24  H6  MOL d           0.121  13.573  21.747  0.00  0.00     0.210 HD
ENDBRANCH  18  23
ENDBRANCH   1  15
TORSDOF 4
