REMARK  11 active torsions:
REMARK  status: ('A' for Active; 'I' for Inactive)
REMARK    1  A    between atoms: C2_2  and  O2_4 
REMARK    2  A    between atoms: O2_4  and  C3_5 
REMARK    3  A    between atoms: C4_6  and  O3_7 
REMARK    4  A    between atoms: C5_8  and  O4_9 
REMARK    5  A    between atoms: O4_9  and  C6_10 
REMARK    6  A    between atoms: C10_16  and  O7_17 
REMARK    7  A    between atoms: O7_17  and  C11_18 
REMARK    8  A    between atoms: C13_21  and  C14_22 
REMARK    9  A    between atoms: C17_25  and  O9_26 
REMARK   10  A    between atoms: C22_32  and  O11_33 
REMARK   11  A    between atoms: C24_35  and  O12_37 
ROOT
ATOM      1  C11 SL0 d          34.522   3.558   8.934  0.00  0.00     0.157 A 
ATOM      2  C12 SL0 d          36.050   3.417   8.957  0.00  0.00     0.223 A 
ATOM      3  O8  SL0 d          36.726   3.442   7.917  0.00  0.00    -0.284 OA
ATOM      4  C13 SL0 d          33.847   3.533  10.091  0.00  0.00     0.123 A 
ATOM      5  O10 SL0 d          34.488   3.402  11.323  0.00  0.00    -0.306 OA
ATOM      6  C20 SL0 d          35.984   3.244  11.438  0.00  0.00     0.096 A 
ATOM      7  C21 SL0 d          36.504   3.133  12.696  0.00  0.00     0.075 A 
ATOM      8  C22 SL0 d          37.859   2.995  12.810  0.00  0.00     0.071 A 
ATOM      9  C23 SL0 d          38.687   3.007  11.694  0.00  0.00     0.074 A 
ATOM     10  C24 SL0 d          38.119   3.139  10.442  0.00  0.00     0.085 A 
ATOM     11  C25 SL0 d          36.760   3.272  10.311  0.00  0.00     0.084 A 
ENDROOT
BRANCH   1  12
ATOM     12  O7  SL0 d          33.851   3.685   7.712  0.00  0.00    -0.311 OA
BRANCH  12  13
ATOM     13  C10 SL0 d          34.230   4.825   6.973  0.00  0.00     0.298 C 
ATOM     14  C4  SL0 d          33.290   4.926   5.768  0.00  0.00     0.206 C 
ATOM     15  C3  SL0 d          31.926   5.209   6.208  0.00  0.00     0.197 C 
ATOM     16  C5  SL0 d          31.858   6.487   7.065  0.00  0.00     0.192 C 
ATOM     17  C8  SL0 d          32.892   6.400   8.162  0.00  0.00     0.152 C 
ATOM     18  C9  SL0 d          32.988   7.700   8.965  0.00  0.00     0.042 C 
ATOM     19  O6  SL0 d          34.138   6.025   7.670  0.00  0.00    -0.351 OA
BRANCH  14  20
ATOM     20  O3  SL0 d          33.705   5.964   4.933  0.00  0.00    -0.388 OA
ATOM     21  H6  SL0 d          33.124   6.017   4.183  0.00  0.00     0.210 HD
ENDBRANCH  14  20
BRANCH  15  22
ATOM     22  O2  SL0 d          31.066   5.326   5.116  0.00  0.00    -0.311 OA
BRANCH  22  23
ATOM     23  C2  SL0 d          30.238   4.250   4.837  0.00  0.00     0.255 C 
ATOM     24  C1  SL0 d          29.113   4.405   3.794  0.00  0.00     0.126 C 
ATOM     25  O1  SL0 d          30.490   3.134   5.325  0.00  0.00    -0.266 OA
ENDBRANCH  22  23
ENDBRANCH  15  22
BRANCH  16  26
ATOM     26  O4  SL0 d          30.575   6.678   7.563  0.00  0.00    -0.311 OA
BRANCH  26  27
ATOM     27  C6  SL0 d          29.762   7.691   7.082  0.00  0.00     0.255 C 
ATOM     28  O5  SL0 d          30.251   8.628   6.429  0.00  0.00    -0.266 OA
ATOM     29  C7  SL0 d          28.280   7.539   7.191  0.00  0.00     0.126 C 
ENDBRANCH  26  27
ENDBRANCH  16  26
ENDBRANCH  12  13
ENDBRANCH   1  12
BRANCH   4  30
ATOM     30  C14 SL0 d          32.328   3.588  10.254  0.00  0.00     0.001 A 
ATOM     31  C15 SL0 d          31.802   3.999  11.485  0.00  0.00     0.017 A 
ATOM     32  C16 SL0 d          30.426   3.996  11.678  0.00  0.00     0.037 A 
ATOM     33  C17 SL0 d          29.600   3.528  10.648  0.00  0.00     0.065 A 
ATOM     34  C18 SL0 d          30.130   3.075   9.442  0.00  0.00     0.037 A 
ATOM     35  C19 SL0 d          31.519   3.077   9.251  0.00  0.00     0.017 A 
BRANCH  33  36
ATOM     36  O9  SL0 d          28.217   3.516  10.823  0.00  0.00    -0.361 OA
ATOM     37  H18 SL0 d          27.803   3.173  10.040  0.00  0.00     0.217 HD
ENDBRANCH  33  36
ENDBRANCH   4  30
BRANCH  10  38
ATOM     38  O12 SL0 d          38.928   3.141   9.280  0.00  0.00    -0.360 OA
ATOM     39  H24 SL0 d          38.813   3.963   8.817  0.00  0.00     0.217 HD
ENDBRANCH  10  38
BRANCH   8  40
ATOM     40  O11 SL0 d          38.352   2.884  14.076  0.00  0.00    -0.361 OA
ATOM     41  H22 SL0 d          39.297   2.793  14.040  0.00  0.00     0.217 HD
ENDBRANCH   8  40
TORSDOF 11
