REMARK  6 active torsions:
REMARK  status: ('A' for Active; 'I' for Inactive)
REMARK    1  A    between atoms: O28_1  and  C27_2 
REMARK    2  A    between atoms: C27_2  and  C26_3 
REMARK    3  A    between atoms: C26_3  and  N12_4 
REMARK    4  A    between atoms: C10_8  and  C1_9 
REMARK    5  A    between atoms: N9_12  and  C_18 
REMARK    6  A    between atoms: C_18  and  C16_19 
ROOT
ATOM      1  C1  KRW d          18.110  82.221   4.632  0.00  0.00     0.090 A 
ATOM      2  N4  KRW d          18.476  83.488   5.031  0.00  0.00    -0.224 NA
ATOM      3  C5  KRW d          18.414  83.695   6.369  0.00  0.00     0.198 A 
ATOM      4  N9  KRW d          18.710  84.824   7.114  0.00  0.00    -0.226 N 
ATOM      5  N8  KRW d          18.506  84.578   8.367  0.00  0.00    -0.062 NA
ATOM      6  N7  KRW d          18.091  83.365   8.554  0.00  0.00    -0.108 NA
ATOM      7  C6  KRW d          18.022  82.761   7.272  0.00  0.00     0.220 A 
ATOM      8  N3  KRW d          17.650  81.503   6.929  0.00  0.00    -0.234 NA
ATOM      9  C2  KRW d          17.702  81.242   5.581  0.00  0.00     0.151 A 
ENDROOT
BRANCH   4  10
ATOM     10  C   KRW d          19.185  86.105   6.572  0.00  0.00     0.193 C 
BRANCH  10  11
ATOM     11  C16 KRW d          20.652  85.988   6.152  0.00  0.00    -0.037 A 
ATOM     12  C19 KRW d          21.008  85.766   4.775  0.00  0.00     0.022 A 
ATOM     13  C20 KRW d          22.379  85.655   4.376  0.00  0.00    -0.007 A 
ATOM     14  C25 KRW d          22.760  85.432   3.016  0.00  0.00     0.015 A 
ATOM     15  C21 KRW d          23.438  85.766   5.364  0.00  0.00     0.066 A 
ATOM     16  C24 KRW d          24.146  85.330   2.687  0.00  0.00     0.020 A 
ATOM     17  C23 KRW d          25.106  85.456   3.737  0.00  0.00     0.117 A 
ATOM     18  N22 KRW d          24.762  85.669   5.046  0.00  0.00    -0.260 NA
ATOM     19  C18 KRW d          23.074  85.986   6.734  0.00  0.00     0.033 A 
ATOM     20  C17 KRW d          21.699  86.096   7.124  0.00  0.00     0.011 A 
ENDBRANCH  10  11
ENDBRANCH   4  10
BRANCH   1  21
ATOM     21  C10 KRW d          18.162  81.920   3.164  0.00  0.00     0.030 A 
ATOM     22  C11 KRW d          17.861  80.728   2.506  0.00  0.00     0.127 A 
ATOM     23  N12 KRW d          18.088  81.021   1.156  0.00  0.00    -0.278 N 
ATOM     24  N13 KRW d          18.476  82.233   0.963  0.00  0.00    -0.184 NA
ATOM     25  C14 KRW d          18.550  82.841   2.099  0.00  0.00     0.154 A 
BRANCH  23  26
ATOM     26  C26 KRW d          17.913  80.057   0.067  0.00  0.00     0.176 C 
BRANCH  26  27
ATOM     27  C27 KRW d          16.442  79.681  -0.118  0.00  0.00     0.185 C 
BRANCH  27  28
ATOM     28  O28 KRW d          16.311  78.753  -1.175  0.00  0.00    -0.399 OA
ATOM     29  H1  KRW d          15.395  78.525  -1.283  0.00  0.00     0.209 HD
ENDBRANCH  27  28
ENDBRANCH  26  27
ENDBRANCH  23  26
ENDBRANCH   1  21
TORSDOF 6
