REMARK  11 active torsions:
REMARK  status: ('A' for Active; 'I' for Inactive)
REMARK    1  A    between atoms: C7_2  and  N1_3 
REMARK    2  A    between atoms: C4_5  and  O4_6 
REMARK    3  A    between atoms: C3_7  and  O3_8 
REMARK    4  A    between atoms: C2_9  and  O2_10 
REMARK    5  A    between atoms: N2_14  and  C8_15 
REMARK    6  A    between atoms: C8_15  and  C9_16 
REMARK    7  A    between atoms: C9_16  and  C10_17 
REMARK    8  A    between atoms: C10_17  and  C11_18 
REMARK    9  A    between atoms: C11_18  and  C12_19 
REMARK   10  A    between atoms: C12_19  and  C13_20 
REMARK   11  A    between atoms: C13_20  and  C14_21 
ROOT
ATOM      1  N1  NCW d          -1.262   9.093   9.730  0.00  0.00    -0.320 N 
ATOM      2  C5  NCW d          -2.064   9.239   8.531  0.00  0.00     0.144 C 
ATOM      3  C4  NCW d          -1.145  10.062   7.644  0.00  0.00     0.174 C 
ATOM      4  C3  NCW d          -0.597  11.348   8.316  0.00  0.00     0.182 C 
ATOM      5  C2  NCW d          -0.219  11.167   9.792  0.00  0.00     0.198 C 
ATOM      6  C6  NCW d          -3.174  10.124   9.059  0.00  0.00     0.198 C 
ATOM      7  O1  NCW d          -2.606  10.813  10.192  0.00  0.00    -0.362 OA
ATOM      8  C1  NCW d          -1.289  10.323  10.491  0.00  0.00     0.257 C 
ENDROOT
BRANCH   1   9
ATOM      9  C7  NCW d          -0.611   7.965  10.087  0.00  0.00     0.172 C 
ATOM     10  S1  NCW d           0.242   7.864  11.428  0.00  0.00    -0.041 SA
ATOM     11  N2  NCW d          -0.677   6.883   9.303  0.00  0.00    -0.367 N 
ATOM     12  H11 NCW d          -1.433   6.812   8.652  0.00  0.00     0.161 HD
BRANCH  11  13
ATOM     13  C8  NCW d           0.301   5.801   9.351  0.00  0.00     0.122 C 
BRANCH  13  14
ATOM     14  C9  NCW d          -0.249   4.553   8.673  0.00  0.00     0.020 C 
BRANCH  14  15
ATOM     15  C10 NCW d          -0.899   4.897   7.331  0.00  0.00     0.002 C 
BRANCH  15  16
ATOM     16  C11 NCW d          -0.378   4.057   6.187  0.00  0.00     0.000 C 
BRANCH  16  17
ATOM     17  C12 NCW d           1.157   4.211   6.156  0.00  0.00     0.000 C 
BRANCH  17  18
ATOM     18  C13 NCW d           1.770   2.970   6.591  0.00  0.00    -0.000 C 
BRANCH  18  19
ATOM     19  C14 NCW d           0.689   1.873   6.436  0.00  0.00    -0.005 C 
ATOM     20  C15 NCW d           1.031   0.755   7.361  0.00  0.00     0.005 C 
ENDBRANCH  18  19
ENDBRANCH  17  18
ENDBRANCH  16  17
ENDBRANCH  15  16
ENDBRANCH  14  15
ENDBRANCH  13  14
ENDBRANCH  11  13
ENDBRANCH   1   9
BRANCH   3  21
ATOM     21  O4  NCW d          -1.910  10.386   6.473  0.00  0.00    -0.391 OA
ATOM     22  H3  NCW d          -1.377  10.904   5.881  0.00  0.00     0.210 HD
ENDBRANCH   3  21
BRANCH   5  23
ATOM     23  O2  NCW d           0.016  12.453  10.404  0.00  0.00    -0.388 OA
ATOM     24  H7  NCW d           0.726  12.893   9.951  0.00  0.00     0.210 HD
ENDBRANCH   5  23
BRANCH   4  25
ATOM     25  O3  NCW d           0.591  11.839   7.695  0.00  0.00    -0.390 OA
ATOM     26  H5  NCW d           0.881  12.624   8.145  0.00  0.00     0.210 HD
ENDBRANCH   4  25
TORSDOF 11
