4kzb_ligand

Created by X-TOOL on Sat Nov 28 16:06:01 2015
 28 28  0  0  0  0  0  0  0  0999 V2000
   23.6380    8.1750   17.2290  C 0  0  0  4  0  4
   23.8810    6.8900   16.5110  C 0  0  0  2  0  4
   23.6140    5.6750   17.3520  C 0  5  0  1  0  3
   22.8030    5.7380   18.3200  O 0  0  0  1  0  1
   24.1730    4.5750   17.0970  O 0  0  0  1  0  1
   23.1430    6.8280   15.2840  N 0  0  0  1  0  3
   21.7020    6.8370   15.2740  C 0  0  0  1  0  3
   20.9640    5.6690   15.4850  C 0  0  0  2  0  3
   19.5840    5.7090   15.4620  C 0  0  0  2  0  3
   18.9240    6.9100   15.2430  C 0  0  0  2  0  3
   19.6580    8.0660   15.0500  C 0  0  0  2  0  3
   21.0430    8.0400   15.0510  C 0  0  0  2  0  3
   23.8870    6.4320   13.9060  S 0  0  0  1  0  4
   23.9110    4.6790   13.6810  C 0  0  0  4  0  4
   25.2490    6.9050   14.0640  O 0  0  0  1  0  1
   23.2160    7.0380   12.7880  O 0  0  0  1  0  1
   24.2183    8.1883   18.1634  H 0  0  0  1  0  1
   22.5669    8.2684   17.4613  H 0  0  0  1  0  1
   23.9497    9.0157   16.5918  H 0  0  0  1  0  1
   24.9496    6.8698   16.2509  H 0  0  0  1  0  1
   21.4755    4.7307   15.6669  H 0  0  0  1  0  1
   19.0144    4.7996   15.6155  H 0  0  0  1  0  1
   17.8406    6.9417   15.2234  H 0  0  0  1  0  1
   19.1418    9.0066   14.8956  H 0  0  0  1  0  1
   21.6074    8.9494   14.8795  H 0  0  0  1  0  1
   24.4222    4.4374   12.7374  H 0  0  0  1  0  1
   22.8791    4.2996   13.6465  H 0  0  0  1  0  1
   24.4467    4.2090   14.5189  H 0  0  0  1  0  1
  1  2  1  0  0  2
  2  3  1  0  0  2
  2  6  1  0  0  2
  3  4  2  0  0  2
  3  5  2  0  0  2
  6  7  1  0  0  2
  6 13  1  0  0  2
  7  8  4  0  0  1
  7 12  4  0  0  1
  8  9  4  0  0  1
  9 10  4  0  0  1
 10 11  4  0  0  1
 11 12  4  0  0  1
 13 14  1  0  0  2
 13 15  2  0  0  2
 13 16  2  0  0  2
  1 17  1  0  0  2
  1 18  1  0  0  2
  1 19  1  0  0  2
  2 20  1  0  0  2
  8 21  1  0  0  2
  9 22  1  0  0  2
 10 23  1  0  0  2
 11 24  1  0  0  2
 12 25  1  0  0  2
 14 26  1  0  0  2
 14 27  1  0  0  2
 14 28  1  0  0  2
M  END
> <MOLECULAR_FORMULA>
C10H12NO4S

> <MOLECULAR_WEIGHT>
242.2

> <NUM_HB_ATOMS>
4  

> <NUM_ROTOR>
1  

> <XLOGP2>
0.98 

$$$$
