REMARK  4 active torsions:
REMARK  status: ('A' for Active; 'I' for Inactive)
REMARK    1  A    between atoms: C02_2  and  C03_3 
REMARK    2  A    between atoms: C02_2  and  N06_6 
REMARK    3  A    between atoms: N06_6  and  C07_7 
REMARK    4  A    between atoms: N06_6  and  S13_13 
ROOT
ATOM      1  N06 NZ2 d          23.143   6.828  15.284  0.00  0.00    -0.262 N 
ENDROOT
BRANCH   1   2
ATOM      2  C02 NZ2 d          23.881   6.890  16.511  0.00  0.00     0.198 C 
ATOM      3  C01 NZ2 d          23.638   8.175  17.229  0.00  0.00     0.045 C 
BRANCH   2   4
ATOM      4  C03 NZ2 d          23.614   5.675  17.352  0.00  0.00     0.197 C 
ATOM      5  O04 NZ2 d          22.803   5.738  18.320  0.00  0.00    -0.646 OA
ATOM      6  O05 NZ2 d          24.173   4.575  17.097  0.00  0.00    -0.646 OA
ENDBRANCH   2   4
ENDBRANCH   1   2
BRANCH   1   7
ATOM      7  C07 NZ2 d          21.702   6.837  15.274  0.00  0.00     0.045 A 
ATOM      8  C08 NZ2 d          20.964   5.669  15.485  0.00  0.00     0.030 A 
ATOM      9  C09 NZ2 d          19.584   5.709  15.462  0.00  0.00     0.002 A 
ATOM     10  C10 NZ2 d          18.924   6.910  15.243  0.00  0.00     0.000 A 
ATOM     11  C11 NZ2 d          19.658   8.066  15.050  0.00  0.00     0.002 A 
ATOM     12  C12 NZ2 d          21.043   8.040  15.051  0.00  0.00     0.030 A 
ENDBRANCH   1   7
BRANCH   1  13
ATOM     13  S13 NZ2 d          23.887   6.432  13.906  0.00  0.00     0.230 S 
ATOM     14  C14 NZ2 d          23.911   4.679  13.681  0.00  0.00     0.186 C 
ATOM     15  O15 NZ2 d          25.249   6.905  14.064  0.00  0.00    -0.206 OA
ATOM     16  O16 NZ2 d          23.216   7.038  12.788  0.00  0.00    -0.206 OA
ENDBRANCH   1  13
TORSDOF 4
