REMARK  3 active torsions:
REMARK  status: ('A' for Active; 'I' for Inactive)
REMARK    1  A    between atoms: N_2  and  CA_4 
REMARK    2  A    between atoms: CA_4  and  C_5 
REMARK       I    between atoms: C_5  and  NAM_7 
REMARK    3  A    between atoms: NAM_7  and  CAP_8 
ROOT
ATOM      1  CAP P34 d          29.351   9.377  18.613  0.00  0.00     0.035 A 
ATOM      2  CAK P34 d          28.142   8.517  18.614  0.00  0.00     0.044 A 
ATOM      3  CAU P34 d          27.400   8.156  19.849  0.00  0.00     0.004 A 
ATOM      4  CAT P34 d          26.168   7.312  19.900  0.00  0.00    -0.008 A 
ATOM      5  CAI P34 d          25.570   6.707  18.721  0.00  0.00     0.013 A 
ATOM      6  CAF P34 d          24.369   5.876  18.809  0.00  0.00     0.001 A 
ATOM      7  CAE P34 d          23.770   5.612  20.060  0.00  0.00     0.001 A 
ATOM      8  CAH P34 d          24.327   6.179  21.249  0.00  0.00     0.018 A 
ATOM      9  CAS P34 d          25.533   7.005  21.197  0.00  0.00     0.043 A 
ATOM     10  CAQ P34 d          26.074   7.570  22.384  0.00  0.00     0.257 A 
ATOM     11  OAD P34 d          25.596   7.370  23.506  0.00  0.00    -0.267 OA
ATOM     12  NAN P34 d          27.265   8.389  22.310  0.00  0.00    -0.322 N 
ATOM     13  CAR P34 d          27.922   8.693  21.077  0.00  0.00     0.046 A 
ATOM     14  CAJ P34 d          29.112   9.536  21.115  0.00  0.00     0.033 A 
ATOM     15  CAG P34 d          29.816   9.862  19.881  0.00  0.00     0.032 A 
ATOM     16  H16 P34 d          27.645   8.758  23.158  0.00  0.00     0.169 HD
ENDROOT
BRANCH   1  17
ATOM     17  NAM P34 d          29.871   9.562  17.327  0.00  0.00    -0.326 N 
ATOM     18  C   P34 d          31.022  10.021  16.615  0.00  0.00     0.248 C 
ATOM     19  O   P34 d          30.809  10.781  15.649  0.00  0.00    -0.271 OA
ATOM     20  H10 P34 d          29.186   9.264  16.663  0.00  0.00     0.169 HD
BRANCH  18  21
ATOM     21  CA  P34 d          32.525   9.649  16.908  0.00  0.00     0.336 C 
BRANCH  21  22
ATOM     22  N   P34 d          32.851   8.717  18.068  0.00  0.00    -0.070 N 
ATOM     23  CAA P34 d          31.888   7.603  18.138  0.00  0.00     0.269 C 
ATOM     24  CAB P34 d          32.886   9.462  19.336  0.00  0.00     0.269 C 
ATOM     25  H4  P34 d          33.767   8.328  17.908  0.00  0.00     0.279 HD
ENDBRANCH  21  22
ENDBRANCH  18  21
ENDBRANCH   1  17
TORSDOF 3
