REMARK  0 active torsions:
REMARK  status: ('A' for Active; 'I' for Inactive)
ROOT
ATOM      1  N1  BZI d          25.358  12.533  11.401  0.00  0.00    -0.242 NA
ATOM      2  C2  BZI d          25.126  12.510  12.681  0.00  0.00     0.208 A 
ATOM      3  N3  BZI d          23.962  13.160  12.955  0.00  0.00    -0.349 N 
ATOM      4  C3A BZI d          23.447  13.613  11.750  0.00  0.00     0.062 A 
ATOM      5  C4  BZI d          22.312  14.325  11.389  0.00  0.00     0.032 A 
ATOM      6  C5  BZI d          22.087  14.623  10.061  0.00  0.00     0.002 A 
ATOM      7  C6  BZI d          22.986  14.213   9.086  0.00  0.00     0.002 A 
ATOM      8  C7  BZI d          24.113  13.513   9.422  0.00  0.00     0.034 A 
ATOM      9  C7A BZI d          24.358  13.200  10.762  0.00  0.00     0.084 A 
ATOM     10  H2  BZI d          23.541  13.291  13.886  0.00  0.00     0.167 HD
ENDROOT
TORSDOF 0
