REMARK  2 active torsions:
REMARK  status: ('A' for Active; 'I' for Inactive)
REMARK    1  A    between atoms: C1_1  and  C_7 
REMARK    2  A    between atoms: C_7  and  N1_8 
ROOT
ATOM      1  C   BEN d          53.501  66.200 -27.813  0.00  0.00     0.102 C 
ATOM      2  N2  BEN d          52.987  64.994 -27.942  0.00  0.00    -0.385 N 
ATOM      3  H8  BEN d          52.394  64.771 -28.754  0.00  0.00     0.157 HD
ATOM      4  H9  BEN d          53.178  64.274 -27.231  0.00  0.00     0.157 HD
ENDROOT
BRANCH   1   5
ATOM      5  C1  BEN d          53.220  67.262 -28.887  0.00  0.00     0.007 A 
ATOM      6  C2  BEN d          52.625  66.884 -30.174  0.00  0.00     0.015 A 
ATOM      7  C3  BEN d          52.363  67.891 -31.190  0.00  0.00     0.001 A 
ATOM      8  C4  BEN d          52.693  69.285 -30.934  0.00  0.00     0.000 A 
ATOM      9  C5  BEN d          53.279  69.672 -29.670  0.00  0.00     0.001 A 
ATOM     10  C6  BEN d          53.543  68.667 -28.648  0.00  0.00     0.015 A 
ENDBRANCH   1   5
BRANCH   1  11
ATOM     11  N1  BEN d          54.264  66.503 -26.777  0.00  0.00    -0.385 N 
ATOM     12  H6  BEN d          54.456  65.795 -26.054  0.00  0.00     0.157 HD
ATOM     13  H7  BEN d          54.667  67.447 -26.693  0.00  0.00     0.157 HD
ENDBRANCH   1  11
TORSDOF 2
