REMARK  4 active torsions:
REMARK  status: ('A' for Active; 'I' for Inactive)
REMARK    1  A    between atoms: C2_3  and  O1_1 
REMARK    2  A    between atoms: C4_5  and  O2_8 
REMARK    3  A    between atoms: C13_19  and  O3_10 
REMARK    4  A    between atoms: C9_15  and  C8_13 
ROOT
ATOM      1  C2  1K0 d          22.454  32.755  21.197  0.00  0.00     0.073 A 
ATOM      2  C3  1K0 d          21.571  33.020  22.256  0.00  0.00     0.074 A 
ATOM      3  C4  1K0 d          21.497  34.235  22.846  0.00  0.00     0.088 A 
ATOM      4  N1  1K0 d          23.088  37.620  22.437  0.00  0.00    -0.306 N 
ATOM      5  C6  1K0 d          22.290  35.311  22.413  0.00  0.00     0.094 A 
ATOM      6  N2  1K0 d          23.962  36.070  20.836  0.00  0.00    -0.229 NA
ATOM      7  C7  1K0 d          22.246  36.624  22.988  0.00  0.00     0.262 A 
ATOM      8  C8  1K0 d          23.898  37.306  21.389  0.00  0.00     0.141 A 
ATOM      9  O5  1K0 d          21.494  36.973  23.922  0.00  0.00    -0.267 OA
ATOM     10  C19 1K0 d          23.172  35.013  21.333  0.00  0.00     0.080 A 
ATOM     11  C20 1K0 d          23.272  33.771  20.729  0.00  0.00     0.069 A 
ATOM     12  H5  1K0 d          23.088  38.546  22.814  0.00  0.00     0.170 HD
ENDROOT
BRANCH   8  13
ATOM     13  C9  1K0 d          24.759  38.367  20.842  0.00  0.00     0.011 A 
ATOM     14  C18 1K0 d          26.022  38.143  20.254  0.00  0.00     0.025 A 
ATOM     15  C16 1K0 d          26.827  39.215  19.892  0.00  0.00    -0.027 A 
ATOM     16  C17 1K0 d          28.180  38.878  19.352  0.00  0.00     0.051 C 
ATOM     17  C13 1K0 d          26.372  40.550  20.064  0.00  0.00     0.077 A 
ATOM     18  C11 1K0 d          25.108  40.788  20.586  0.00  0.00    -0.027 A 
ATOM     19  C12 1K0 d          24.635  42.203  20.739  0.00  0.00     0.051 C 
ATOM     20  C10 1K0 d          24.318  39.729  20.973  0.00  0.00     0.025 A 
BRANCH  17  21
ATOM     21  O3  1K0 d          27.196  41.570  19.783  0.00  0.00    -0.360 OA
ATOM     22  H9  1K0 d          26.749  42.392  19.948  0.00  0.00     0.217 HD
ENDBRANCH  17  21
ENDBRANCH   8  13
BRANCH   3  23
ATOM     23  O2  1K0 d          20.661  34.493  23.926  0.00  0.00    -0.355 OA
ATOM     24  C5  1K0 d          19.864  33.404  24.447  0.00  0.00     0.210 C 
ENDBRANCH   3  23
BRANCH   1  25
ATOM     25  O1  1K0 d          22.469  31.507  20.627  0.00  0.00    -0.356 OA
ATOM     26  C1  1K0 d          23.239  31.221  19.479  0.00  0.00     0.210 C 
ENDBRANCH   1  25
TORSDOF 4
