REMARK  14 active torsions:
REMARK  status: ('A' for Active; 'I' for Inactive)
REMARK    1  A    between atoms: N1_1  and  C31_39 
REMARK    2  A    between atoms: C2_3  and  C3_4 
REMARK       I    between atoms: C3_4  and  N2_6 
REMARK    3  A    between atoms: N2_6  and  C4_7 
REMARK    4  A    between atoms: N3_11  and  C10_14 
REMARK    5  A    between atoms: C10_14  and  C11_15 
REMARK    6  A    between atoms: C11_15  and  O2_16 
REMARK    7  A    between atoms: C11_15  and  C12_17 
REMARK    8  A    between atoms: C12_17  and  C13_18 
REMARK    9  A    between atoms: C13_18  and  C14_19 
REMARK   10  A    between atoms: C13_18  and  C21_26 
REMARK   11  A    between atoms: C14_19  and  C15_20 
REMARK       I    between atoms: C21_26  and  N4_28 
REMARK   12  A    between atoms: N4_28  and  C22_29 
REMARK   13  A    between atoms: C23_30  and  O4_31 
REMARK   14  A    between atoms: C31_39  and  C32_40 
ROOT
ATOM      1  C11 MK1 d          23.898  15.680   5.045  0.00  0.00     0.145 C 
ENDROOT
BRANCH   1   2
ATOM      2  C10 MK1 d          24.744  16.936   4.761  0.00  0.00     0.267 C 
BRANCH   2   3
ATOM      3  N3  MK1 d          23.903  18.063   4.429  0.00  0.00    -0.053 N 
ATOM      4  C2  MK1 d          24.429  19.363   4.988  0.00  0.00     0.305 C 
ATOM      5  C1  MK1 d          23.454  20.413   4.481  0.00  0.00     0.278 C 
ATOM      6  N1  MK1 d          23.390  20.537   2.988  0.00  0.00    -0.063 N 
ATOM      7  C9  MK1 d          23.030  19.280   2.469  0.00  0.00     0.263 C 
ATOM      8  H1  MK1 d          24.300  20.786   2.633  0.00  0.00     0.280 HD
ATOM      9  C8  MK1 d          23.824  18.105   2.951  0.00  0.00     0.263 C 
ATOM     10  H15 MK1 d          22.982  17.909   4.808  0.00  0.00     0.281 HD
BRANCH   4  11
ATOM     11  C3  MK1 d          24.400  19.379   6.480  0.00  0.00     0.251 C 
ATOM     12  O1  MK1 d          23.379  19.022   7.081  0.00  0.00    -0.271 OA
ATOM     13  N2  MK1 d          25.510  19.792   7.084  0.00  0.00    -0.351 N 
ATOM     14  H5  MK1 d          26.287  20.048   6.510  0.00  0.00     0.163 HD
BRANCH  13  15
ATOM     15  C4  MK1 d          25.665  19.894   8.511  0.00  0.00     0.022 C 
ATOM     16  C5  MK1 d          27.090  20.465   8.722  0.00  0.00     0.037 C 
ATOM     17  C6  MK1 d          25.566  18.590   9.067  0.00  0.00     0.037 C 
ATOM     18  C7  MK1 d          24.712  20.832   9.085  0.00  0.00     0.037 C 
ENDBRANCH  13  15
ENDBRANCH   4  11
BRANCH   6  19
ATOM     19  C31 MK1 d          22.442  21.598   2.619  0.00  0.00     0.275 C 
BRANCH  19  20
ATOM     20  C32 MK1 d          22.762  23.054   2.997  0.00  0.00    -0.015 A 
ATOM     21  C33 MK1 d          23.878  23.712   2.445  0.00  0.00     0.125 A 
ATOM     22  N5  MK1 d          24.256  25.050   2.691  0.00  0.00    -0.273 NA
ATOM     23  C34 MK1 d          23.355  25.644   3.576  0.00  0.00     0.116 A 
ATOM     24  C35 MK1 d          22.227  25.072   4.152  0.00  0.00     0.020 A 
ATOM     25  C36 MK1 d          21.920  23.750   3.866  0.00  0.00     0.012 A 
ENDBRANCH  19  20
ENDBRANCH   6  19
ENDBRANCH   2   3
ENDBRANCH   1   2
BRANCH   1  26
ATOM     26  O2  MK1 d          24.697  14.598   4.706  0.00  0.00    -0.394 OA
ATOM     27  H23 MK1 d          24.220  13.792   4.863  0.00  0.00     0.210 HD
ENDBRANCH   1  26
BRANCH   1  28
ATOM     28  C12 MK1 d          23.478  15.564   6.521  0.00  0.00     0.047 C 
BRANCH  28  29
ATOM     29  C13 MK1 d          22.580  14.336   6.850  0.00  0.00     0.084 C 
BRANCH  29  30
ATOM     30  C14 MK1 d          22.448  14.226   8.378  0.00  0.00     0.052 C 
BRANCH  30  31
ATOM     31  C15 MK1 d          21.465  13.189   8.795  0.00  0.00    -0.057 A 
ATOM     32  C16 MK1 d          21.650  11.865   8.471  0.00  0.00     0.007 A 
ATOM     33  C17 MK1 d          20.788  10.882   8.916  0.00  0.00     0.001 A 
ATOM     34  C18 MK1 d          19.686  11.271   9.683  0.00  0.00     0.000 A 
ATOM     35  C19 MK1 d          19.485  12.603   9.998  0.00  0.00     0.001 A 
ATOM     36  C20 MK1 d          20.385  13.570   9.568  0.00  0.00     0.007 A 
ENDBRANCH  30  31
ENDBRANCH  29  30
BRANCH  29  37
ATOM     37  C21 MK1 d          21.224  14.490   6.226  0.00  0.00     0.222 C 
ATOM     38  O3  MK1 d          20.546  15.520   6.304  0.00  0.00    -0.273 OA
ATOM     39  N4  MK1 d          20.758  13.390   5.664  0.00  0.00    -0.350 N 
ATOM     40  H34 MK1 d          21.400  12.653   5.452  0.00  0.00     0.163 HD
BRANCH  39  41
ATOM     41  C22 MK1 d          19.388  13.206   5.348  0.00  0.00     0.147 C 
ATOM     42  C23 MK1 d          18.791  11.856   5.696  0.00  0.00     0.149 C 
ATOM     43  C24 MK1 d          17.552  11.729   4.809  0.00  0.00     0.073 C 
ATOM     44  C25 MK1 d          17.904  12.414   3.512  0.00  0.00    -0.047 A 
ATOM     45  C26 MK1 d          17.435  12.350   2.235  0.00  0.00     0.008 A 
ATOM     46  C30 MK1 d          19.048  13.390   3.856  0.00  0.00    -0.027 A 
ATOM     47  C27 MK1 d          18.019  13.180   1.280  0.00  0.00     0.001 A 
ATOM     48  C28 MK1 d          19.038  14.069   1.572  0.00  0.00     0.001 A 
ATOM     49  C29 MK1 d          19.531  14.156   2.862  0.00  0.00     0.010 A 
BRANCH  42  50
ATOM     50  O4  MK1 d          19.695  10.793   5.358  0.00  0.00    -0.393 OA
ATOM     51  H37 MK1 d          19.300   9.959   5.585  0.00  0.00     0.210 HD
ENDBRANCH  42  50
ENDBRANCH  39  41
ENDBRANCH  29  37
ENDBRANCH  28  29
ENDBRANCH   1  28
TORSDOF 14
