REMARK  7 active torsions:
REMARK  status: ('A' for Active; 'I' for Inactive)
REMARK    1  A    between atoms: C2_2  and  S7_7 
REMARK    2  A    between atoms: C5_5  and  C11_11 
REMARK    3  A    between atoms: S7_7  and  C8_8 
REMARK    4  A    between atoms: C8_8  and  C9_9 
REMARK    5  A    between atoms: C9_9  and  C13_13 
REMARK    6  A    between atoms: C15_15  and  S19_19 
REMARK    7  A    between atoms: S19_19  and  N23_23 
ROOT
ATOM      1  C13 E50 d          -4.857   3.083  13.629  0.00  0.00     0.012 A 
ATOM      2  C14 E50 d          -4.981   2.057  14.551  0.00  0.00     0.042 A 
ATOM      3  C15 E50 d          -5.620   2.254  15.772  0.00  0.00     0.101 A 
ATOM      4  C16 E50 d          -6.078   3.546  16.067  0.00  0.00     0.057 A 
ATOM      5  C17 E50 d          -5.908   4.595  15.206  0.00  0.00     0.026 A 
ATOM      6  C18 E50 d          -5.301   4.368  13.962  0.00  0.00     0.017 A 
ATOM      7 CL21 E50 d          -6.851   3.810  17.576  0.00  0.00    -0.083 Cl
ENDROOT
BRANCH   1   8
ATOM      8  C9  E50 d          -4.179   2.921  12.273  0.00  0.00     0.169 C 
ATOM      9  O10 E50 d          -4.544   3.582  11.244  0.00  0.00    -0.291 OA
BRANCH   8  10
ATOM     10  C8  E50 d          -2.999   1.978  12.156  0.00  0.00     0.166 C 
BRANCH  10  11
ATOM     11  S7  E50 d          -1.711   2.594  11.048  0.00  0.00    -0.082 SA
BRANCH  11  12
ATOM     12  C2  E50 d          -1.411   4.150  11.785  0.00  0.00     0.188 A 
ATOM     13  N1  E50 d          -0.491   4.896  11.195  0.00  0.00    -0.235 NA
ATOM     14  C6  E50 d          -0.256   6.137  11.746  0.00  0.00     0.128 A 
ATOM     15  C5  E50 d          -0.927   6.633  12.891  0.00  0.00    -0.023 A 
ATOM     16  C4  E50 d          -1.894   5.807  13.456  0.00  0.00     0.128 A 
ATOM     17  N3  E50 d          -2.090   4.566  12.889  0.00  0.00    -0.235 NA
BRANCH  15  18
ATOM     18  C11 E50 d          -0.594   8.031  13.407  0.00  0.00     0.037 C 
ATOM     19  C12 E50 d          -1.299   8.338  14.767  0.00  0.00     0.010 C 
ENDBRANCH  15  18
ENDBRANCH  11  12
ENDBRANCH  10  11
ENDBRANCH   8  10
ENDBRANCH   1   8
BRANCH   3  20
ATOM     20  S19 E50 d          -5.982   0.813  16.806  0.00  0.00     0.258 S 
ATOM     21  O20 E50 d          -5.340   1.055  18.079  0.00  0.00    -0.201 OA
ATOM     22  O22 E50 d          -7.437   0.770  16.790  0.00  0.00    -0.201 OA
BRANCH  20  23
ATOM     23  N23 E50 d          -5.428  -0.478  16.083  0.00  0.00    -0.324 N 
ATOM     24  H13 E50 d          -5.538  -1.376  16.509  0.00  0.00     0.169 HD
ATOM     25  H14 E50 d          -4.968  -0.397  15.199  0.00  0.00     0.169 HD
ENDBRANCH  20  23
ENDBRANCH   3  20
TORSDOF 7
