3sax_ligand

Created by X-TOOL on Fri Sep 26 17:34:53 2014
 37 38  0  0  0  0  0  0  0  0999 V2000
   -0.4910    4.8960   11.1950  N 0  0  0  1  0  2
   -1.4110    4.1500   11.7850  C 0  0  0  1  0  3
   -2.0900    4.5660   12.8890  N 0  0  0  1  0  2
   -1.8940    5.8070   13.4560  C 0  0  0  2  0  3
   -0.9270    6.6330   12.8910  C 0  0  0  1  0  3
   -0.2560    6.1370   11.7460  C 0  0  0  2  0  3
   -1.7110    2.5940   11.0480  S 0  0  0  1  0  2
   -2.9990    1.9780   12.1560  C 0  0  0  3  0  4
   -4.1790    2.9210   12.2730  C 0  0  0  1  0  3
   -4.5440    3.5820   11.2440  O 0  0  0  1  0  1
   -0.5940    8.0310   13.4070  C 0  0  0  3  0  4
   -1.2990    8.3380   14.7670  C 0  0  0  4  0  4
   -4.8570    3.0830   13.6290  C 0  0  0  1  0  3
   -4.9810    2.0570   14.5510  C 0  0  0  2  0  3
   -5.6200    2.2540   15.7720  C 0  0  0  1  0  3
   -6.0780    3.5460   16.0670  C 0  0  0  1  0  3
   -5.9080    4.5950   15.2060  C 0  0  0  2  0  3
   -5.3010    4.3680   13.9620  C 0  0  0  2  0  3
   -5.9820    0.8130   16.8060  S 0  0  0  1  0  4
   -5.3400    1.0550   18.0790  O 0  0  0  1  0  1
   -6.8510    3.8100   17.5760 Cl 0  0  0  1  0  1
   -7.4370    0.7700   16.7900  O 0  0  0  1  0  1
   -5.4280   -0.4780   16.0830  N 0  0  0  3  0  3
   -2.4738    6.1288   14.3135  H 0  0  0  1  0  1
    0.4864    6.7714   11.2754  H 0  0  0  1  0  1
   -2.5631    1.8362   13.1559  H 0  0  0  1  0  1
   -3.3589    1.0119   11.7725  H 0  0  0  1  0  1
   -0.9216    8.7714   12.6624  H 0  0  0  1  0  1
    0.4944    8.1079   13.5463  H 0  0  0  1  0  1
   -1.0307    9.3520   15.0984  H 0  0  0  1  0  1
   -0.9733    7.6074   15.5220  H 0  0  0  1  0  1
   -2.3894    8.2709   14.6382  H 0  0  0  1  0  1
   -4.5722    1.0807   14.3171  H 0  0  0  1  0  1
   -6.2384    5.5899   15.4817  H 0  0  0  1  0  1
   -5.1762    5.1851   13.2607  H 0  0  0  1  0  1
   -5.5376   -1.3758   16.5095  H 0  0  0  1  0  1
   -4.9678   -0.3973   15.1989  H 0  0  0  1  0  1
  1  2  4  0  0  1
  1  6  4  0  0  1
  2  3  4  0  0  1
  2  7  1  0  0  2
  3  4  4  0  0  1
  4  5  4  0  0  1
  5  6  4  0  0  1
  5 11  1  0  0  2
  7  8  1  0  0  2
  8  9  1  0  0  2
  9 10  2  0  0  2
  9 13  1  0  0  2
 11 12  1  0  0  2
 13 14  4  0  0  1
 13 18  4  0  0  1
 14 15  4  0  0  1
 15 16  4  0  0  1
 15 19  1  0  0  2
 16 17  4  0  0  1
 16 21  1  0  0  2
 17 18  4  0  0  1
 19 20  2  0  0  2
 19 22  2  0  0  2
 19 23  1  0  0  2
  4 24  1  0  0  2
  6 25  1  0  0  2
  8 26  1  0  0  2
  8 27  1  0  0  2
 11 28  1  0  0  2
 11 29  1  0  0  2
 12 30  1  0  0  2
 12 31  1  0  0  2
 12 32  1  0  0  2
 14 33  1  0  0  2
 17 34  1  0  0  2
 18 35  1  0  0  2
 23 36  1  0  0  2
 23 37  1  0  0  2
M  END
> <MOLECULAR_FORMULA>
C14H14N3O3S2Cl

> <MOLECULAR_WEIGHT>
371.8

> <NUM_HB_ATOMS>
7  

> <NUM_ROTOR>
5  

> <XLOGP2>
2.41 

$$$$
