REMARK  5 active torsions:
REMARK  status: ('A' for Active; 'I' for Inactive)
REMARK       I    between atoms: C7_9  and  N_1 
REMARK    1  A    between atoms: N_1  and  C1'_11 
REMARK    2  A    between atoms: C4_6  and  S_2 
REMARK    3  A    between atoms: S_2  and  N3S_16 
REMARK    4  A    between atoms: C1_3  and  C7_9 
REMARK    5  A    between atoms: C1'_11  and  C2'_14 
ROOT
ATOM      1  C1  RYY d          16.763   4.532  14.692  0.00  0.00     0.032 A 
ATOM      2  C2  RYY d          15.378   4.448  14.941  0.00  0.00     0.018 A 
ATOM      3  C3  RYY d          14.868   3.338  15.616  0.00  0.00     0.026 A 
ATOM      4  C4  RYY d          15.740   2.308  16.077  0.00  0.00     0.079 A 
ATOM      5  C5  RYY d          17.116   2.427  15.823  0.00  0.00     0.026 A 
ATOM      6  C6  RYY d          17.631   3.515  15.139  0.00  0.00     0.018 A 
ENDROOT
BRANCH   1   7
ATOM      7  C7  RYY d          17.266   5.726  13.923  0.00  0.00     0.251 C 
ATOM      8  N   RYY d          18.517   5.745  13.573  0.00  0.00    -0.357 N 
ATOM      9  H1  RYY d          19.134   5.019  13.875  0.00  0.00     0.162 HD
ATOM     10  O7  RYY d          16.497   6.668  13.690  0.00  0.00    -0.268 OA
BRANCH   8  11
ATOM     11  C1' RYY d          19.025   6.848  12.724  0.00  0.00     0.122 C 
BRANCH  11  12
ATOM     12  C2' RYY d          20.092   7.537  13.411  0.00  0.00     0.015 C 
ATOM     13  C16 RYY d          19.568   8.225  14.618  0.00  0.00     0.006 C 
ENDBRANCH  11  12
ENDBRANCH   8  11
ENDBRANCH   1   7
BRANCH   4  14
ATOM     14  S   RYY d          15.103   0.902  16.880  0.00  0.00     0.256 S 
ATOM     15  O1S RYY d          13.656   0.967  16.721  0.00  0.00    -0.201 OA
ATOM     16  O2S RYY d          15.643   0.982  18.240  0.00  0.00    -0.201 OA
BRANCH  14  17
ATOM     17  N3S RYY d          15.680  -0.370  16.123  0.00  0.00    -0.324 N 
ATOM     18  H13 RYY d          15.433  -1.289  16.430  0.00  0.00     0.169 HD
ATOM     19  H14 RYY d          16.290  -0.252  15.340  0.00  0.00     0.169 HD
ENDBRANCH  14  17
ENDBRANCH   4  14
TORSDOF 5
