REMARK  4 active torsions:
REMARK  status: ('A' for Active; 'I' for Inactive)
REMARK    1  A    between atoms: C5_10  and  O_3 
REMARK    2  A    between atoms: C1_4  and  O2_7 
REMARK    3  A    between atoms: C2_6  and  O1_5 
REMARK    4  A    between atoms: C3_8  and  C5_10 
ROOT
ATOM      1  C   GIF d          97.776  12.918   8.226  0.00  0.00     0.266 C 
ATOM      2  N   GIF d          98.162  11.505   8.251  0.00  0.00    -0.072 N 
ATOM      3  C1  GIF d          97.135  13.252   6.873  0.00  0.00     0.172 C 
ATOM      4  C2  GIF d          97.992  12.747   5.682  0.00  0.00     0.156 C 
ATOM      5  C3  GIF d          98.189  11.246   5.788  0.00  0.00     0.066 C 
ATOM      6  C4  GIF d          98.911  10.961   7.112  0.00  0.00     0.241 C 
ATOM      7  H   GIF d          97.314  10.967   8.333  0.00  0.00     0.277 HD
ATOM      8  H   GIF d          98.729  11.366   9.073  0.00  0.00     0.277 HD
ENDROOT
BRANCH   5   9
ATOM      9  C5  GIF d          98.940  10.671   4.576  0.00  0.00     0.173 C 
BRANCH   9  10
ATOM     10  O   GIF d          99.126   9.230   4.645  0.00  0.00    -0.400 OA
ATOM     11  H   GIF d          98.278   8.804   4.685  0.00  0.00     0.209 HD
ENDBRANCH   9  10
ENDBRANCH   5   9
BRANCH   4  12
ATOM     12  O1  GIF d          99.267  13.434   5.621  0.00  0.00    -0.392 OA
ATOM     13  H   GIF d          99.768  13.105   4.884  0.00  0.00     0.210 HD
ENDBRANCH   4  12
BRANCH   3  14
ATOM     14  O2  GIF d          96.912  14.665   6.786  0.00  0.00    -0.391 OA
ATOM     15  H   GIF d          96.386  14.948   7.525  0.00  0.00     0.210 HD
ENDBRANCH   3  14
TORSDOF 4
