REMARK  4 active torsions:
REMARK  status: ('A' for Active; 'I' for Inactive)
REMARK    1  A    between atoms: C14_5  and  C15_11 
REMARK    2  A    between atoms: C6_15  and  C5_14 
REMARK    3  A    between atoms: C7_17  and  O2_20 
REMARK    4  A    between atoms: C18_22  and  C19_23 
ROOT
ATOM      1  C9  MOL d          18.146  -5.392   8.737  0.00  0.00     0.052 A 
ATOM      2  C10 MOL d          19.004  -4.443   8.198  0.00  0.00     0.008 A 
ATOM      3  C13 MOL d          20.245  -3.867   8.639  0.00  0.00     0.033 A 
ATOM      4  C14 MOL d          21.011  -3.944   9.800  0.00  0.00     0.084 A 
ATOM      5  C12 MOL d          20.710  -3.058   7.556  0.00  0.00     0.047 A 
ATOM      6  C6  MOL d          16.777  -5.201   6.698  0.00  0.00     0.014 A 
ATOM      7  C11 MOL d          18.758  -3.911   6.918  0.00  0.00     0.044 A 
ATOM      8  C7  MOL d          17.011  -5.766   7.970  0.00  0.00     0.080 A 
ATOM      9  C22 MOL d          22.647  -2.587   8.785  0.00  0.00     0.119 A 
ATOM     10  C23 MOL d          21.942  -2.411   7.590  0.00  0.00     0.049 A 
ATOM     11  C24 MOL d          17.674  -4.263   6.165  0.00  0.00     0.045 A 
ATOM     12  N5  MOL d          22.224  -3.287   9.860  0.00  0.00    -0.259 NA
ATOM     13  N2  MOL d          19.800  -3.058   6.541  0.00  0.00    -0.355 N 
ATOM     14  H23 MOL d          19.867  -2.528   5.660  0.00  0.00     0.166 HD
ENDROOT
BRANCH   4  15
ATOM     15  C15 MOL d          20.602  -4.634  10.989  0.00  0.00     0.044 A 
ATOM     16  C16 MOL d          21.319  -5.644  11.652  0.00  0.00     0.038 A 
ATOM     17  N3  MOL d          20.516  -6.037  12.697  0.00  0.00    -0.281 N 
ATOM     18  C17 MOL d          22.654  -6.243  11.380  0.00  0.00     0.071 C 
ATOM     19  N4  MOL d          19.335  -5.361  12.759  0.00  0.00    -0.178 NA
ATOM     20  H8  MOL d          20.782  -6.772  13.368  0.00  0.00     0.189 HD
ATOM     21  C18 MOL d          19.377  -4.486  11.724  0.00  0.00     0.073 A 
BRANCH  21  22
ATOM     22  C19 MOL d          18.264  -3.549  11.464  0.00  0.00     0.040 A 
ATOM     23  C20 MOL d          17.422  -3.026  12.619  0.00  0.00     0.011 A 
ATOM     24  C21 MOL d          16.840  -4.036  11.693  0.00  0.00     0.011 A 
ENDBRANCH  21  22
ENDBRANCH   4  15
BRANCH   8  25
ATOM     25  O2  MOL d          16.053  -6.670   8.417  0.00  0.00    -0.355 OA
ATOM     26  C8  MOL d          16.343  -7.494   9.525  0.00  0.00     0.210 C 
ENDBRANCH   8  25
BRANCH   6  27
ATOM     27  C5  MOL d          15.574  -5.633   5.989  0.00  0.00     0.035 A 
ATOM     28  C3  MOL d          15.248  -6.918   5.655  0.00  0.00     0.088 A 
ATOM     29  O1  MOL d          13.993  -6.958   5.123  0.00  0.00    -0.217 OA
ATOM     30  C4  MOL d          16.003  -8.174   5.752  0.00  0.00     0.080 C 
ATOM     31  N1  MOL d          13.502  -5.672   5.088  0.00  0.00    -0.133 NA
ATOM     32  C2  MOL d          14.439  -4.844   5.587  0.00  0.00     0.072 A 
ATOM     33  C1  MOL d          14.279  -3.376   5.671  0.00  0.00     0.074 C 
ENDBRANCH   6  27
TORSDOF 4
