REMARK  3 active torsions:
REMARK  status: ('A' for Active; 'I' for Inactive)
REMARK       I    between atoms: C15_9  and  N1_1 
REMARK    1  A    between atoms: C12_21  and  C15_9 
REMARK    2  A    between atoms: C3_26  and  C2_27 
REMARK    3  A    between atoms: C2_27  and  C1_28 
ROOT
ATOM      1  C4  MOL d           4.244  -8.676 -23.165  0.00  0.00     0.090 C 
ATOM      2  C5  MOL d           4.803  -9.976 -23.523  0.00  0.00     0.026 A 
ATOM      3  C6  MOL d           6.146 -10.234 -23.550  0.00  0.00    -0.023 A 
ATOM      4  C7  MOL d           6.285 -11.599 -24.007  0.00  0.00     0.041 A 
ATOM      5  C8  MOL d           5.013 -12.089 -24.259  0.00  0.00     0.032 A 
ATOM      6  C10 MOL d           1.927 -12.132 -23.667  0.00  0.00     0.057 A 
ATOM      7  C13 MOL d           0.686  -9.992 -25.000  0.00  0.00     0.057 A 
ATOM      8  C17 MOL d           5.831 -14.122 -25.544  0.00  0.00    -0.036 C 
ATOM      9  C20 MOL d           5.980 -13.517 -26.945  0.00  0.00     0.015 C 
ATOM     10  C21 MOL d           5.532 -15.611 -25.675  0.00  0.00     0.015 C 
ATOM     11  C22 MOL d           7.298  -9.309 -23.258  0.00  0.00     0.051 C 
ATOM     12  O2  MOL d           8.580 -12.129 -24.175  0.00  0.00    -0.292 OA
ATOM     13  C19 MOL d           7.414 -12.503 -24.287  0.00  0.00     0.162 C 
ATOM     14  C18 MOL d           7.125 -13.920 -24.735  0.00  0.00     0.093 C 
ATOM     15  C16 MOL d           4.674 -13.442 -24.805  0.00  0.00     0.067 C 
ATOM     16  N   MOL d           4.114 -11.094 -23.958  0.00  0.00    -0.315 N 
ATOM     17  C9  MOL d           2.685 -11.060 -24.113  0.00  0.00     0.074 A 
ATOM     18  C14 MOL d           2.059  -9.993 -24.777  0.00  0.00     0.097 A 
ATOM     19  C12 MOL d          -0.077 -11.106 -24.597  0.00  0.00     0.056 A 
ATOM     20  C11 MOL d           0.572 -12.164 -23.938  0.00  0.00     0.052 A 
ATOM     21 CL   MOL d          -0.249 -13.624 -23.511  0.00  0.00    -0.083 Cl
ATOM     22  O   MOL d           2.822  -8.963 -25.308  0.00  0.00    -0.343 OA
ATOM     23  C3  MOL d           3.470  -8.082 -24.339  0.00  0.00     0.134 C 
ENDROOT
BRANCH  19  24
ATOM     24  C15 MOL d          -1.539 -11.099 -24.948  0.00  0.00     0.251 C 
ATOM     25  N1  MOL d          -2.412 -11.543 -24.054  0.00  0.00    -0.366 N 
ATOM     26  H1  MOL d          -3.389 -11.547 -24.268  0.00  0.00     0.159 HD
ATOM     27  H2  MOL d          -2.094 -11.874 -23.166  0.00  0.00     0.159 HD
ATOM     28  O1  MOL d          -1.902 -10.666 -26.037  0.00  0.00    -0.268 OA
ENDBRANCH  19  24
BRANCH  23  29
ATOM     29  C2  MOL d           2.663  -6.843 -24.079  0.00  0.00     0.032 C 
BRANCH  29  30
ATOM     30  C1  MOL d           3.470  -5.582 -24.206  0.00  0.00    -0.002 C 
ATOM     31  C   MOL d           3.939  -5.300 -25.635  0.00  0.00     0.005 C 
ENDBRANCH  29  30
ENDBRANCH  23  29
TORSDOF 3
