REMARK  8 active torsions:
REMARK  status: ('A' for Active; 'I' for Inactive)
REMARK    1  A    between atoms: N1_1  and  C1_2 
REMARK       I    between atoms: C18_22  and  N1_1 
REMARK    2  A    between atoms: C1_2  and  C2_3 
REMARK    3  A    between atoms: C5_6  and  N2_9 
REMARK    4  A    between atoms: N07_11  and  C31_10 
REMARK    5  A    between atoms: C31_10  and  C32_24 
REMARK    6  A    between atoms: C18_22  and  C17_21 
REMARK    7  A    between atoms: C32_24  and  S33_25 
REMARK    8  A    between atoms: S33_25  and  C36_28 
ROOT
ATOM      1  N07 MOL d          17.945 -15.954  23.487  0.00  0.00    -0.248 N 
ATOM      2  C08 MOL d          19.040 -16.196  22.651  0.00  0.00     0.347 A 
ATOM      3  O09 MOL d          19.745 -17.200  22.588  0.00  0.00    -0.245 OA
ATOM      4  N10 MOL d          19.201 -15.053  21.859  0.00  0.00    -0.232 N 
ATOM      5  N11 MOL d          18.207 -14.146  22.211  0.00  0.00    -0.218 N 
ATOM      6  C12 MOL d          17.430 -14.699  23.211  0.00  0.00     0.348 A 
ATOM      7  O13 MOL d          16.457 -14.148  23.693  0.00  0.00    -0.245 OA
ATOM      8  C14 MOL d          20.444 -14.598  21.253  0.00  0.00     0.181 C 
ATOM      9  C15 MOL d          20.138 -13.483  20.280  0.00  0.00    -0.006 C 
ATOM     10  C16 MOL d          19.009 -12.764  20.413  0.00  0.00     0.007 C 
ATOM     11  C17 MOL d          17.994 -12.889  21.514  0.00  0.00     0.228 C 
ENDROOT
BRANCH  11  12
ATOM     12  C18 MOL d          16.595 -12.962  20.813  0.00  0.00     0.246 C 
ATOM     13  O19 MOL d          16.363 -13.775  19.931  0.00  0.00    -0.271 OA
ATOM     14  N1  MOL d          15.564 -12.177  21.376  0.00  0.00    -0.359 N 
ATOM     15  H1  MOL d          15.464 -12.179  22.371  0.00  0.00     0.162 HD
BRANCH  14  16
ATOM     16  C1  MOL d          14.634 -11.362  20.595  0.00  0.00     0.127 C 
BRANCH  16  17
ATOM     17  C2  MOL d          13.147 -11.294  21.101  0.00  0.00     0.003 C 
ATOM     18  C3  MOL d          13.062 -10.694  22.540  0.00  0.00     0.008 C 
ATOM     19  C4  MOL d          11.693 -10.939  23.267  0.00  0.00     0.033 C 
ATOM     20  C5  MOL d          11.393 -12.461  23.234  0.00  0.00     0.183 C 
ATOM     21  C6  MOL d          11.101 -12.818  21.770  0.00  0.00     0.033 C 
ATOM     22  C7  MOL d          12.415 -12.667  20.944  0.00  0.00     0.008 C 
BRANCH  20  23
ATOM     23  N2  MOL d          10.329 -12.847  24.171  0.00  0.00    -0.075 N 
ATOM     24  H14 MOL d          10.173 -13.841  24.111  0.00  0.00     0.274 HD
ATOM     25  H15 MOL d           9.479 -12.359  23.934  0.00  0.00     0.274 HD
ATOM     26  H16 MOL d          10.605 -12.606  25.110  0.00  0.00     0.274 HD
ENDBRANCH  20  23
ENDBRANCH  16  17
ENDBRANCH  14  16
ENDBRANCH  11  12
BRANCH   1  27
ATOM     27  C31 MOL d          17.371 -16.934  24.395  0.00  0.00     0.154 C 
BRANCH  27  28
ATOM     28  C32 MOL d          16.902 -16.402  25.739  0.00  0.00     0.166 C 
BRANCH  28  29
ATOM     29  S33 MOL d          18.203 -17.028  26.751  0.00  0.00     0.177 S 
ATOM     30  O35 MOL d          18.536 -18.371  26.220  0.00  0.00    -0.223 OA
ATOM     31  O34 MOL d          17.948 -16.912  28.158  0.00  0.00    -0.223 OA
BRANCH  29  32
ATOM     32  C36 MOL d          19.706 -16.113  26.436  0.00  0.00     0.059 A 
ATOM     33  C41 MOL d          20.348 -16.271  25.201  0.00  0.00     0.023 A 
ATOM     34  C40 MOL d          21.535 -15.599  24.934  0.00  0.00     0.002 A 
ATOM     35  C39 MOL d          22.083 -14.781  25.919  0.00  0.00     0.000 A 
ATOM     36  C38 MOL d          21.452 -14.636  27.151  0.00  0.00     0.002 A 
ATOM     37  C37 MOL d          20.258 -15.302  27.420  0.00  0.00     0.023 A 
ENDBRANCH  29  32
ENDBRANCH  28  29
ENDBRANCH  27  28
ENDBRANCH   1  27
TORSDOF 8
