REMARK  12 active torsions:
REMARK  status: ('A' for Active; 'I' for Inactive)
REMARK    1  A    between atoms: N7_7  and  C18_18 
REMARK    2  A    between atoms: C8_8  and  C11_11 
REMARK       I    between atoms: C11_11  and  N12_12 
REMARK    3  A    between atoms: N12_12  and  C13_13 
REMARK    4  A    between atoms: C18_18  and  C19_19 
REMARK    5  A    between atoms: C19_19  and  C20_20 
REMARK    6  A    between atoms: C19_19  and  O21_21 
REMARK    7  A    between atoms: C20_20  and  N22_22 
REMARK    8  A    between atoms: C20_20  and  C23_23 
REMARK       I    between atoms: N22_22  and  C24_24 
REMARK    9  A    between atoms: C23_23  and  S74_34 
REMARK   10  A    between atoms: C24_24  and  C29_26 
REMARK   11  A    between atoms: C33_30  and  O38_32 
REMARK   12  A    between atoms: S74_34  and  C77_35 
ROOT
ATOM      1  C19 MOL d         -10.098  17.196  27.093  0.00  0.00     0.167 C 
ENDROOT
BRANCH   1   2
ATOM      2  C18 MOL d         -10.670  16.763  28.440  0.00  0.00     0.269 C 
BRANCH   2   3
ATOM      3  N7  MOL d         -11.039  15.341  28.364  0.00  0.00    -0.055 N 
ATOM      4  C8  MOL d         -11.036  14.706  29.695  0.00  0.00     0.279 C 
ATOM      5  C9  MOL d         -11.308  13.210  29.569  0.00  0.00     0.048 C 
ATOM      6  C2  MOL d         -12.675  12.975  28.923  0.00  0.00    -0.006 C 
ATOM      7  C1  MOL d         -12.847  13.784  27.623  0.00  0.00     0.016 C 
ATOM      8  C3  MOL d         -12.884  11.466  28.745  0.00  0.00     0.005 C 
ATOM      9  C6  MOL d         -12.169  13.160  26.402  0.00  0.00     0.007 C 
ATOM     10  C10 MOL d         -12.376  15.234  27.748  0.00  0.00     0.241 C 
ATOM     11  C5  MOL d         -12.623  11.710  26.268  0.00  0.00     0.000 C 
ATOM     12  C4  MOL d         -12.181  10.928  27.496  0.00  0.00     0.000 C 
ATOM     13  H11 MOL d         -10.370  14.863  27.782  0.00  0.00     0.281 HD
BRANCH   4  14
ATOM     14  C11 MOL d          -9.698  14.839  30.356  0.00  0.00     0.249 C 
ATOM     15  N12 MOL d          -9.725  15.152  31.650  0.00  0.00    -0.351 N 
ATOM     16  H17 MOL d         -10.619  15.260  32.084  0.00  0.00     0.163 HD
ATOM     17  O17 MOL d          -8.692  14.631  29.701  0.00  0.00    -0.271 OA
BRANCH  15  18
ATOM     18  C13 MOL d          -8.537  15.349  32.479  0.00  0.00     0.022 C 
ATOM     19  C14 MOL d          -7.666  16.433  31.856  0.00  0.00     0.037 C 
ATOM     20  C15 MOL d          -7.775  14.041  32.622  0.00  0.00     0.037 C 
ATOM     21  C16 MOL d          -8.968  15.766  33.877  0.00  0.00     0.037 C 
ENDBRANCH  15  18
ENDBRANCH   4  14
ENDBRANCH   2   3
ENDBRANCH   1   2
BRANCH   1  22
ATOM     22  C20 MOL d          -8.625  16.829  26.933  0.00  0.00     0.124 C 
BRANCH  22  23
ATOM     23  N22 MOL d          -8.283  17.044  25.549  0.00  0.00    -0.349 N 
ATOM     24  C24 MOL d          -8.014  16.064  24.689  0.00  0.00     0.252 C 
ATOM     25  O25 MOL d          -8.065  14.874  24.972  0.00  0.00    -0.268 OA
ATOM     26  H32 MOL d          -8.246  17.986  25.215  0.00  0.00     0.163 HD
BRANCH  24  27
ATOM     27  C29 MOL d          -7.603  16.485  23.312  0.00  0.00     0.040 A 
ATOM     28  C30 MOL d          -6.411  17.200  23.128  0.00  0.00     0.018 A 
ATOM     29  C31 MOL d          -6.009  17.610  21.854  0.00  0.00     0.004 A 
ATOM     30  C32 MOL d          -6.776  17.330  20.719  0.00  0.00     0.037 A 
ATOM     31  C33 MOL d          -7.976  16.624  20.814  0.00  0.00     0.072 A 
ATOM     32  C34 MOL d          -8.453  16.168  22.138  0.00  0.00    -0.013 A 
ATOM     33  C39 MOL d          -9.745  15.398  22.276  0.00  0.00     0.052 C 
BRANCH  31  34
ATOM     34  O38 MOL d          -8.713  16.355  19.704  0.00  0.00    -0.360 OA
ATOM     35  H38 MOL d          -8.275  16.712  18.940  0.00  0.00     0.217 HD
ENDBRANCH  31  34
ENDBRANCH  24  27
ENDBRANCH  22  23
BRANCH  22  36
ATOM     36  C23 MOL d          -7.696  17.651  27.827  0.00  0.00     0.107 C 
BRANCH  36  37
ATOM     37  S74 MOL d          -6.125  16.855  27.928  0.00  0.00    -0.128 SA
BRANCH  37  38
ATOM     38  C77 MOL d          -5.128  17.538  26.732  0.00  0.00     0.000 A 
ATOM     39  C78 MOL d          -4.017  16.829  26.271  0.00  0.00     0.018 A 
ATOM     40  C79 MOL d          -3.185  17.376  25.295  0.00  0.00     0.001 A 
ATOM     41  C80 MOL d          -3.460  18.637  24.774  0.00  0.00     0.000 A 
ATOM     42  C81 MOL d          -4.569  19.348  25.226  0.00  0.00     0.001 A 
ATOM     43  C82 MOL d          -5.398  18.800  26.205  0.00  0.00     0.018 A 
ENDBRANCH  37  38
ENDBRANCH  36  37
ENDBRANCH  22  36
ENDBRANCH   1  22
BRANCH   1  44
ATOM     44  O21 MOL d         -10.286  18.598  26.902  0.00  0.00    -0.392 OA
ATOM     45  H31 MOL d         -11.206  18.810  27.005  0.00  0.00     0.210 HD
ENDBRANCH   1  44
TORSDOF 12
