REMARK  6 active torsions:
REMARK  status: ('A' for Active; 'I' for Inactive)
REMARK    1  A    between atoms: C6_6  and  N7_7 
REMARK    2  A    between atoms: N7_7  and  S8_8 
REMARK    3  A    between atoms: S8_8  and  C10_10 
REMARK    4  A    between atoms: C13_13  and  N17_17 
REMARK    5  A    between atoms: N18_18  and  C19_19 
REMARK    6  A    between atoms: C21_21  and  N25_25 
ROOT
ATOM      1  C9  NUE d         -16.900   6.071  -4.412  0.00  0.00     0.027 A 
ATOM      2  C10 NUE d         -16.473   4.863  -5.046  0.00  0.00     0.080 A 
ATOM      3  C11 NUE d         -16.494   7.388  -4.911  0.00  0.00     0.035 A 
ATOM      4  C12 NUE d         -15.672   5.023  -6.212  0.00  0.00     0.027 A 
ATOM      5  C13 NUE d         -15.700   7.445  -6.024  0.00  0.00     0.079 A 
ATOM      6  C14 NUE d         -15.300   6.289  -6.673  0.00  0.00     0.035 A 
ENDROOT
BRANCH   5   7
ATOM      7  N17 NUE d         -15.209   8.661  -6.507  0.00  0.00    -0.150 NA
ATOM      8  N18 NUE d         -15.596   9.746  -5.969  0.00  0.00    -0.148 NA
BRANCH   8   9
ATOM      9  C19 NUE d         -15.019  10.953  -6.399  0.00  0.00     0.102 C 
ATOM     10  C20 NUE d         -14.016  11.018  -7.415  0.00  0.00     0.020 C 
ATOM     11  C22 NUE d         -13.463  12.207  -7.745  0.00  0.00     0.067 C 
ATOM     12  C24 NUE d         -13.983  13.425  -7.204  0.00  0.00     0.100 C 
ATOM     13  C28 NUE d         -12.354  12.248  -8.756  0.00  0.00     0.021 C 
ATOM     14  C23 NUE d         -14.988  13.385  -6.280  0.00  0.00    -0.000 C 
ATOM     15  O27 NUE d         -13.425  14.566  -7.520  0.00  0.00    -0.195 OA
ATOM     16  C21 NUE d         -15.491  12.174  -5.883  0.00  0.00     0.065 C 
ATOM     17  C26 NUE d         -15.507  14.696  -5.758  0.00  0.00     0.053 C 
BRANCH  16  18
ATOM     18  N25 NUE d         -16.509  12.136  -4.959  0.00  0.00    -0.397 N 
ATOM     19  H   NUE d         -16.894  11.231  -4.654  0.00  0.00     0.156 HD
ATOM     20  H   NUE d         -16.886  13.013  -4.572  0.00  0.00     0.156 HD
ENDBRANCH  16  18
ENDBRANCH   8   9
ENDBRANCH   5   7
BRANCH   2  21
ATOM     21  S8  NUE d         -16.914   3.342  -4.450  0.00  0.00     0.264 S 
ATOM     22  O15 NUE d         -17.950   3.821  -3.500  0.00  0.00    -0.200 OA
ATOM     23  O16 NUE d         -17.240   2.623  -5.657  0.00  0.00    -0.200 OA
BRANCH  21  24
ATOM     24  N7  NUE d         -15.577   2.554  -3.869  0.00  0.00    -0.264 N 
ATOM     25  H   NUE d         -15.187   1.815  -4.418  0.00  0.00     0.180 HD
BRANCH  24  26
ATOM     26  C6  NUE d         -14.986   2.859  -2.690  0.00  0.00     0.136 A 
ATOM     27  C4  NUE d         -15.581   3.744  -1.762  0.00  0.00     0.051 A 
ATOM     28  C2  NUE d         -14.925   4.047  -0.582  0.00  0.00     0.005 A 
ATOM     29  C1  NUE d         -13.692   3.437  -0.327  0.00  0.00     0.019 A 
ATOM     30  C3  NUE d         -13.145   2.544  -1.277  0.00  0.00     0.119 A 
ATOM     31  N5  NUE d         -13.772   2.280  -2.421  0.00  0.00    -0.243 NA
ENDBRANCH  24  26
ENDBRANCH  21  24
ENDBRANCH   2  21
TORSDOF 6
