REMARK  7 active torsions:
REMARK  status: ('A' for Active; 'I' for Inactive)
REMARK    1  A    between atoms: C7A_18  and  N3_2 
REMARK    2  A    between atoms: C5_5  and  C6_8 
REMARK    3  A    between atoms: C6_8  and  C7_9 
REMARK    4  A    between atoms: C7_9  and  O7_10 
REMARK    5  A    between atoms: O7_10  and  P1_19 
REMARK    6  A    between atoms: C4A_14  and  N4A_15 
REMARK    7  A    between atoms: C5A_16  and  C7A_18 
ROOT
ATOM      1  N3  TPS d           7.678  50.351 111.258  0.00  0.00    -0.349 N 
ATOM      2  C2  TPS d           8.951  50.308 110.918  0.00  0.00     0.141 A 
ATOM      3  S1  TPS d           9.498  51.930 111.120  0.00  0.00    -0.087 SA
ATOM      4  C5  TPS d           7.970  52.632 111.671  0.00  0.00     0.008 A 
ATOM      5  C4  TPS d           7.133  51.537 111.651  0.00  0.00     0.021 A 
ATOM      6  CM4 TPS d           5.671  51.669 112.063  0.00  0.00     0.069 C 
ENDROOT
BRANCH   1   7
ATOM      7  C7A TPS d           6.855  49.078 111.213  0.00  0.00     0.172 C 
BRANCH   7   8
ATOM      8  C5A TPS d           7.649  47.825 110.771  0.00  0.00     0.023 A 
ATOM      9  C4A TPS d           7.937  47.523 109.402  0.00  0.00     0.132 A 
ATOM     10  N3A TPS d           8.641  46.409 109.107  0.00  0.00    -0.216 NA
ATOM     11  C2A TPS d           9.071  45.587 110.062  0.00  0.00     0.124 A 
ATOM     12  CM2 TPS d           9.858  44.353 109.685  0.00  0.00     0.093 C 
ATOM     13  N1A TPS d           8.820  45.837 111.350  0.00  0.00    -0.245 NA
ATOM     14  C6A TPS d           8.128  46.921 111.734  0.00  0.00     0.131 A 
BRANCH   9  15
ATOM     15  N4A TPS d           7.507  48.361 108.389  0.00  0.00    -0.383 N 
ATOM     16  H12 TPS d           6.970  49.210 108.616  0.00  0.00     0.157 HD
ATOM     17  H13 TPS d           7.724  48.136 107.407  0.00  0.00     0.157 HD
ENDBRANCH   9  15
ENDBRANCH   7   8
ENDBRANCH   1   7
BRANCH   4  18
ATOM     18  C6  TPS d           7.793  54.072 112.039  0.00  0.00     0.075 C 
BRANCH  18  19
ATOM     19  C7  TPS d           9.169  54.633 111.680  0.00  0.00     0.187 C 
BRANCH  19  20
ATOM     20  O7  TPS d           9.332  56.015 111.974  0.00  0.00    -0.282 OA
BRANCH  20  21
ATOM     21  P1  TPS d          10.832  56.404 111.515  0.00  0.00     0.422 P 
ATOM     22  O1  TPS d          11.848  55.454 112.209  0.00  0.00    -0.617 OA
ATOM     23  O2  TPS d          11.152  57.924 111.820  0.00  0.00    -0.617 OA
ATOM     24  O3  TPS d          10.941  56.189 109.990  0.00  0.00    -0.617 OA
ENDBRANCH  20  21
ENDBRANCH  19  20
ENDBRANCH  18  19
ENDBRANCH   4  18
TORSDOF 7
