REMARK  4 active torsions:
REMARK  status: ('A' for Active; 'I' for Inactive)
REMARK    1  A    between atoms: C5_3  and  C4_1 
REMARK    2  A    between atoms: C4_1  and  N3_8 
REMARK    3  A    between atoms: C7_5  and  N6_11 
REMARK    4  A    between atoms: N3_8  and  S2_10 
ROOT
ATOM      1  C5  MOL d           8.547  56.980   0.414  0.00  0.00     0.126 A 
ATOM      2  N6  MOL d           7.291  56.728   0.913  0.00  0.00    -0.326 N 
ATOM      3  C17 MOL d           6.572  57.923   0.869  0.00  0.00     0.081 A 
ATOM      4  C18 MOL d           5.277  58.416   1.212  0.00  0.00     0.041 A 
ATOM      5  C19 MOL d           4.062  57.861   1.817  0.00  0.00     0.034 A 
ATOM      6  C20 MOL d           3.151  58.849   1.922  0.00  0.00     0.091 A 
ATOM      7  N21 MOL d           3.678  60.011   1.414  0.00  0.00    -0.350 N 
ATOM      8  C23 MOL d           4.963  59.783   0.973  0.00  0.00     0.139 A 
ATOM      9  N24 MOL d           5.865  60.601   0.425  0.00  0.00    -0.240 NA
ATOM     10  C25 MOL d           7.073  60.198   0.108  0.00  0.00     0.153 A 
ATOM     11  C26 MOL d           7.475  58.865   0.318  0.00  0.00     0.104 A 
ATOM     12  N27 MOL d           8.632  58.223   0.071  0.00  0.00    -0.230 NA
ATOM     13  H20 MOL d           3.187  60.915   1.369  0.00  0.00     0.166 HD
ENDROOT
BRANCH   1  14
ATOM     14  C4  MOL d           9.687  55.977   0.310  0.00  0.00     0.210 C 
BRANCH  14  15
ATOM     15  N3  MOL d          10.890  56.515  -0.352  0.00  0.00    -0.313 N 
ATOM     16  H10 MOL d          11.458  57.187   0.123  0.00  0.00     0.172 HD
BRANCH  15  17
ATOM     17  S2  MOL d          11.313  56.013  -1.890  0.00  0.00     0.223 S 
ATOM     18  C1  MOL d          11.714  54.248  -1.776  0.00  0.00     0.185 C 
ATOM     19  O28 MOL d          12.477  56.778  -2.157  0.00  0.00    -0.206 OA
ATOM     20  O29 MOL d          10.140  56.193  -2.669  0.00  0.00    -0.206 OA
ENDBRANCH  15  17
ENDBRANCH  14  15
ENDBRANCH   1  14
BRANCH   2  21
ATOM     21  C7  MOL d           6.914  55.381   1.397  0.00  0.00     0.096 C 
ATOM     22  C14 MOL d           5.437  54.930   1.269  0.00  0.00     0.031 C 
ATOM     23  C12 MOL d           5.085  54.491   2.734  0.00  0.00    -0.012 C 
ATOM     24  C11 MOL d           5.942  55.503   3.583  0.00  0.00     0.011 C 
ATOM     25  C16 MOL d           5.841  53.137   2.990  0.00  0.00     0.005 C 
ATOM     26  C9  MOL d           7.302  55.123   2.894  0.00  0.00     0.009 C 
ATOM     27  C15 MOL d           7.370  53.563   3.058  0.00  0.00     0.007 C 
ENDBRANCH   2  21
TORSDOF 4
