REMARK  5 active torsions:
REMARK  status: ('A' for Active; 'I' for Inactive)
REMARK       I    between atoms: N18_8  and  C19_6 
REMARK    1  A    between atoms: C17_9  and  N18_8 
REMARK    2  A    between atoms: C16_10  and  C17_9 
REMARK    3  A    between atoms: C15_11  and  C16_10 
REMARK    4  A    between atoms: C14_12  and  C15_11 
REMARK    5  A    between atoms: C14_12  and  N1_13 
ROOT
ATOM      1  C2  MOL d          24.575  51.209  -4.473  0.00  0.00     0.030 A 
ATOM      2  C3  MOL d          23.225  51.778  -4.638  0.00  0.00     0.078 C 
ATOM      3  C4  MOL d          22.896  51.820  -6.114  0.00  0.00     0.129 C 
ATOM      4  C6  MOL d          24.310  49.826  -6.494  0.00  0.00     0.254 C 
ATOM      5  N1  MOL d          25.431  51.383  -3.452  0.00  0.00    -0.349 N 
ATOM      6  C7  MOL d          25.097  50.310  -5.348  0.00  0.00     0.067 A 
ATOM      7  O21 MOL d          24.601  48.805  -7.140  0.00  0.00    -0.268 OA
ATOM      8  N5  MOL d          23.188  50.511  -6.740  0.00  0.00    -0.356 N 
ATOM      9  C8  MOL d          26.360  49.895  -4.859  0.00  0.00     0.008 A 
ATOM     10  C9  MOL d          26.555  50.578  -3.652  0.00  0.00     0.046 A 
ATOM     11  C10 MOL d          27.684  50.434  -2.864  0.00  0.00     0.030 A 
ATOM     12  C11 MOL d          28.650  49.540  -3.271  0.00  0.00     0.002 A 
ATOM     13  C12 MOL d          28.506  48.820  -4.480  0.00  0.00     0.001 A 
ATOM     14  C13 MOL d          27.378  48.984  -5.286  0.00  0.00     0.015 A 
ATOM     15  H17 MOL d          22.518  50.123  -7.373  0.00  0.00     0.162 HD
ENDROOT
BRANCH   5  16
ATOM     16  C14 MOL d          25.311  52.254  -2.297  0.00  0.00     0.129 C 
BRANCH  16  17
ATOM     17  C15 MOL d          24.881  51.506  -1.049  0.00  0.00     0.022 C 
BRANCH  17  18
ATOM     18  C16 MOL d          23.496  50.932  -1.095  0.00  0.00     0.021 C 
BRANCH  18  19
ATOM     19  C17 MOL d          23.010  50.428   0.250  0.00  0.00     0.122 C 
BRANCH  19  20
ATOM     20  N18 MOL d          23.827  49.346   0.761  0.00  0.00    -0.361 N 
ATOM     21  C19 MOL d          23.444  48.085   0.781  0.00  0.00     0.213 C 
ATOM     22  O20 MOL d          22.335  47.741   0.275  0.00  0.00    -0.274 OA
ATOM     23  C22 MOL d          24.339  47.079   1.421  0.00  0.00     0.117 C 
ATOM     24  H8  MOL d          24.734  49.569   1.119  0.00  0.00     0.162 HD
ENDBRANCH  19  20
ENDBRANCH  18  19
ENDBRANCH  17  18
ENDBRANCH  16  17
ENDBRANCH   5  16
TORSDOF 5
