REMARK  2 active torsions:
REMARK  status: ('A' for Active; 'I' for Inactive)
REMARK    1  A    between atoms: C1'_1  and  C1_4 
REMARK    2  A    between atoms: C4_7  and  O4_10 
ROOT
ATOM      1  C1  PHB d          16.706   3.462  14.676  0.00  0.00     0.041 A 
ATOM      2  C2  PHB d          18.048   3.921  14.660  0.00  0.00     0.021 A 
ATOM      3  C3  PHB d          18.442   5.210  14.192  0.00  0.00     0.037 A 
ATOM      4  C4  PHB d          17.344   5.950  13.653  0.00  0.00     0.065 A 
ATOM      5  C5  PHB d          16.015   5.496  13.658  0.00  0.00     0.037 A 
ATOM      6  C6  PHB d          15.681   4.278  14.229  0.00  0.00     0.021 A 
ENDROOT
BRANCH   1   7
ATOM      7  C1' PHB d          16.440   2.187  15.235  0.00  0.00     0.209 C 
ATOM      8  O1' PHB d          15.253   1.847  15.541  0.00  0.00    -0.644 OA
ATOM      9  O2' PHB d          17.341   1.404  15.630  0.00  0.00    -0.644 OA
ENDBRANCH   1   7
BRANCH   4  10
ATOM     10  O4  PHB d          17.546   7.215  13.084  0.00  0.00    -0.361 OA
ATOM     11  H5  PHB d          18.469   7.436  13.125  0.00  0.00     0.217 HD
ENDBRANCH   4  10
TORSDOF 2
