REMARK  5 active torsions:
REMARK  status: ('A' for Active; 'I' for Inactive)
REMARK    1  A    between atoms: N_1  and  CA_2 
REMARK    2  A    between atoms: CA_2  and  CB_3 
REMARK    3  A    between atoms: CA_2  and  C_10 
REMARK    4  A    between atoms: CB_3  and  CG_4 
REMARK    5  A    between atoms: CE1_7  and  NT_9 
ROOT
ATOM      1  CG  B3U d           3.036  24.028  29.185  0.00  0.00     0.047 A 
ATOM      2  CD2 B3U d           2.119  24.301  30.139  0.00  0.00     0.162 A 
ATOM      3  NE2 B3U d           0.948  23.768  29.688  0.00  0.00    -0.075 NA
ATOM      4  CE1 B3U d           1.128  23.198  28.512  0.00  0.00     0.698 A 
ATOM      5  ND1 B3U d           2.396  23.337  28.179  0.00  0.00    -0.193 N 
ATOM      6  H8  B3U d           2.834  22.988  27.314  0.00  0.00     0.184 HD
ENDROOT
BRANCH   1   7
ATOM      7  CB  B3U d           4.485  24.313  29.035  0.00  0.00     0.103 C 
BRANCH   7   8
ATOM      8  CA  B3U d           4.909  25.579  29.738  0.00  0.00     0.289 C 
BRANCH   8   9
ATOM      9  N   B3U d           4.906  25.474  31.204  0.00  0.00    -0.065 N 
ATOM     10  H1  B3U d           5.446  24.671  31.484  0.00  0.00     0.275 HD
ATOM     11  H2  B3U d           3.958  25.372  31.532  0.00  0.00     0.275 HD
ATOM     12  H3  B3U d           5.312  26.307  31.601  0.00  0.00     0.275 HD
ENDBRANCH   8   9
BRANCH   8  13
ATOM     13  C   B3U d           4.078  26.812  29.345  0.00  0.00     0.204 C 
ATOM     14  OXT B3U d           3.801  27.103  28.178  0.00  0.00    -0.646 OA
ATOM     15  O   B3U d           3.696  27.496  30.312  0.00  0.00    -0.646 OA
ENDBRANCH   8  13
ENDBRANCH   7   8
ENDBRANCH   1   7
BRANCH   4  16
ATOM     16  NT  B3U d           0.192  22.525  27.679  0.00  0.00    -0.233 N 
ATOM     17  H9  B3U d          -0.791  22.437  27.975  0.00  0.00     0.174 HD
ATOM     18  H10 B3U d           0.497  22.125  26.780  0.00  0.00     0.174 HD
ENDBRANCH   4  16
TORSDOF 5
