REMARK  6 active torsions:
REMARK  status: ('A' for Active; 'I' for Inactive)
REMARK    1  A    between atoms: C2_2  and  O30_22 
REMARK    2  A    between atoms: C6_6  and  O29_21 
REMARK    3  A    between atoms: C10_8  and  O27_20 
REMARK    4  A    between atoms: C11_9  and  C14_10 
REMARK    5  A    between atoms: C17_13  and  O24_19 
REMARK    6  A    between atoms: C18_14  and  O23_18 
ROOT
ATOM      1  C1  QUE d          11.915  18.626 -12.209  0.00  0.00     0.074 A 
ATOM      2  C2  QUE d          12.260  17.576 -11.363  0.00  0.00     0.085 A 
ATOM      3  C3  QUE d          13.469  16.882 -11.548  0.00  0.00     0.084 A 
ATOM      4  C4  QUE d          14.341  17.247 -12.585  0.00  0.00     0.096 A 
ATOM      5  C5  QUE d          13.984  18.307 -13.422  0.00  0.00     0.075 A 
ATOM      6  C6  QUE d          12.778  18.993 -13.236  0.00  0.00     0.071 A 
ATOM      7  C9  QUE d          13.827  15.834 -10.699  0.00  0.00     0.223 A 
ATOM      8  C10 QUE d          15.034  15.176 -10.897  0.00  0.00     0.152 A 
ATOM      9  C11 QUE d          15.872  15.555 -11.955  0.00  0.00     0.123 A 
ATOM     10  O12 QUE d          15.544  16.596 -12.810  0.00  0.00    -0.306 OA
ATOM     11  O13 QUE d          13.106  15.493  -9.760  0.00  0.00    -0.284 OA
ENDROOT
BRANCH   9  12
ATOM     12  C14 QUE d          17.079  14.872 -12.090  0.00  0.00     0.004 A 
ATOM     13  C15 QUE d          17.121  13.520 -12.443  0.00  0.00     0.017 A 
ATOM     14  C16 QUE d          18.355  12.871 -12.540  0.00  0.00     0.040 A 
ATOM     15  C17 QUE d          19.542  13.568 -12.280  0.00  0.00     0.098 A 
ATOM     16  C18 QUE d          19.504  14.913 -11.918  0.00  0.00     0.099 A 
ATOM     17  C19 QUE d          18.267  15.563 -11.819  0.00  0.00     0.053 A 
BRANCH  15  18
ATOM     18  O24 QUE d          20.742  12.942 -12.377  0.00  0.00    -0.358 OA
ATOM     19  H7  QUE d          20.606  12.037 -12.630  0.00  0.00     0.217 HD
ENDBRANCH  15  18
BRANCH  16  20
ATOM     20  O23 QUE d          20.665  15.581 -11.668  0.00  0.00    -0.358 OA
ATOM     21  H6  QUE d          21.400  14.990 -11.782  0.00  0.00     0.217 HD
ENDBRANCH  16  20
ENDBRANCH   9  12
BRANCH   8  22
ATOM     22  O27 QUE d          15.389  14.149 -10.057  0.00  0.00    -0.355 OA
ATOM     23  H8  QUE d          14.711  14.028  -9.402  0.00  0.00     0.218 HD
ENDBRANCH   8  22
BRANCH   2  24
ATOM     24  O30 QUE d          11.397  17.250 -10.358  0.00  0.00    -0.360 OA
ATOM     25  H10 QUE d          11.835  17.350  -9.521  0.00  0.00     0.217 HD
ENDBRANCH   2  24
BRANCH   6  26
ATOM     26  O29 QUE d          12.433  20.032 -14.054  0.00  0.00    -0.361 OA
ATOM     27  H9  QUE d          11.590  20.378 -13.786  0.00  0.00     0.217 HD
ENDBRANCH   6  26
TORSDOF 6
