REMARK  6 active torsions:
REMARK  status: ('A' for Active; 'I' for Inactive)
REMARK    1  A    between atoms: C1_1  and  S15_9 
REMARK    2  A    between atoms: S15_9  and  N16_10 
REMARK    3  A    between atoms: N16_10  and  C17_11 
REMARK    4  A    between atoms: C17_11  and  C18_12 
REMARK    5  A    between atoms: C17_11  and  C27_18 
REMARK       I    between atoms: C18_12  and  N19_13 
REMARK    6  A    between atoms: N19_13  and  O20_14 
ROOT
ATOM      1  N16 MOL d          10.439  17.790  26.514  0.00  0.00    -0.301 N 
ATOM      2  H7  MOL d          10.010  16.903  26.685  0.00  0.00     0.173 HD
ENDROOT
BRANCH   1   3
ATOM      3  S15 MOL d           9.470  19.196  26.221  0.00  0.00     0.259 S 
ATOM      4  O22 MOL d          10.362  19.962  25.420  0.00  0.00    -0.201 OA
ATOM      5  O23 MOL d           8.179  18.742  25.731  0.00  0.00    -0.201 OA
BRANCH   3   6
ATOM      6  C1  MOL d           9.227  20.017  27.768  0.00  0.00     0.080 A 
ATOM      7  C2  MOL d           8.293  19.475  28.707  0.00  0.00     0.035 A 
ATOM      8  C3  MOL d           8.050  20.167  29.921  0.00  0.00    -0.022 A 
ATOM      9  C4  MOL d           8.762  21.371  30.150  0.00  0.00     0.122 A 
ATOM     10  C11 MOL d           7.032  19.658  30.907  0.00  0.00     0.051 C 
ATOM     11  C5  MOL d           9.737  21.895  29.231  0.00  0.00     0.044 A 
ATOM     12  F10 MOL d           8.523  22.066  31.274  0.00  0.00    -0.206 F 
ATOM     13  C6  MOL d           9.947  21.215  28.039  0.00  0.00     0.028 A 
ENDBRANCH   3   6
ENDBRANCH   1   3
BRANCH   1  14
ATOM     14  C17 MOL d          11.899  17.924  26.507  0.00  0.00     0.191 C 
BRANCH  14  15
ATOM     15  C18 MOL d          12.469  18.438  27.846  0.00  0.00     0.264 C 
ATOM     16  N19 MOL d          13.390  19.438  27.723  0.00  0.00    -0.236 N 
ATOM     17  H9  MOL d          13.642  19.792  26.822  0.00  0.00     0.197 HD
ATOM     18  O21 MOL d          12.160  17.999  28.917  0.00  0.00    -0.269 OA
BRANCH  16  19
ATOM     19  O20 MOL d          13.969  19.952  28.873  0.00  0.00    -0.287 OA
ATOM     20  H10 MOL d          14.585  20.636  28.638  0.00  0.00     0.244 HD
ENDBRANCH  16  19
ENDBRANCH  14  15
BRANCH  14  21
ATOM     21  C27 MOL d          12.671  16.626  26.200  0.00  0.00     0.022 C 
ATOM     22  C29 MOL d          12.371  15.942  24.822  0.00  0.00     0.033 C 
ATOM     23  C30 MOL d          13.160  14.664  24.562  0.00  0.00     0.168 C 
ATOM     24  O31 MOL d          14.542  14.927  24.700  0.00  0.00    -0.391 OA
ATOM     25  C32 MOL d          14.942  15.430  25.993  0.00  0.00     0.168 C 
ATOM     26  C33 MOL d          14.210  16.748  26.305  0.00  0.00     0.033 C 
ENDBRANCH  14  21
ENDBRANCH   1  14
TORSDOF 6
