REMARK  13 active torsions:
REMARK  status: ('A' for Active; 'I' for Inactive)
REMARK    1  A    between atoms: C6_4  and  N6_34 
REMARK    2  A    between atoms: CAK_17  and  CBH_16 
REMARK    3  A    between atoms: CAI_18  and  CAK_17 
REMARK    4  A    between atoms: CAH_19  and  CAI_18 
REMARK    5  A    between atoms: CAJ_20  and  CAH_19 
REMARK    6  A    between atoms: CAZ_21  and  CAJ_20 
REMARK       I    between atoms: NAV_23  and  CAZ_21 
REMARK    7  A    between atoms: SBK_24  and  NAV_23 
REMARK    8  A    between atoms: NAW_27  and  SBK_24 
REMARK    9  A    between atoms: CAN_28  and  NAW_27 
REMARK   10  A    between atoms: CBE_29  and  CAN_28 
REMARK   11  A    between atoms: OAX_30  and  CBE_29 
REMARK   12  A    between atoms: CBG_31  and  OAX_30 
REMARK   13  A    between atoms: CBG_31  and  N9_32 
ROOT
ATOM      1  SBK MOL d          -3.954  -4.765   6.407  0.00  0.00     0.321 S 
ATOM      2  OAD MOL d          -5.313  -4.967   5.990  0.00  0.00    -0.182 OA
ATOM      3  OAE MOL d          -3.094  -4.934   5.269  0.00  0.00    -0.182 OA
ENDROOT
BRANCH   1   4
ATOM      4  NAV MOL d          -3.560  -5.822   7.546  0.00  0.00    -0.237 N 
ATOM      5  CAZ MOL d          -4.459  -6.253   8.430  0.00  0.00     0.232 C 
ATOM      6  OAB MOL d          -5.542  -5.723   8.611  0.00  0.00    -0.273 OA
ATOM      7  H18 MOL d          -2.622  -6.164   7.594  0.00  0.00     0.183 HD
BRANCH   5   8
ATOM      8  CAJ MOL d          -4.079  -7.476   9.230  0.00  0.00     0.104 C 
BRANCH   8   9
ATOM      9  CAH MOL d          -3.683  -7.067  10.642  0.00  0.00     0.009 C 
BRANCH   9  10
ATOM     10  CAI MOL d          -3.558  -8.295  11.533  0.00  0.00     0.002 C 
BRANCH  10  11
ATOM     11  CAK MOL d          -3.212  -7.911  12.966  0.00  0.00     0.017 C 
BRANCH  11  12
ATOM     12  CBH MOL d          -3.392  -9.121  13.870  0.00  0.00     0.072 C 
ATOM     13  CBI MOL d          -2.173 -10.038  13.860  0.00  0.00     0.123 C 
ATOM     14  NAU MOL d          -0.967  -9.329  13.476  0.00  0.00    -0.335 N 
ATOM     15  CBF MOL d          -1.820 -10.552  15.257  0.00  0.00     0.119 C 
ATOM     16  CBA MOL d          -0.014  -9.450  14.396  0.00  0.00     0.316 C 
ATOM     17  H4  MOL d          -0.865  -8.813  12.625  0.00  0.00     0.164 HD
ATOM     18  OAC MOL d           1.077  -8.903  14.353  0.00  0.00    -0.247 OA
ATOM     19  NAT MOL d          -0.416 -10.237  15.383  0.00  0.00    -0.336 N 
ATOM     20  H5  MOL d           0.175 -10.569  16.118  0.00  0.00     0.164 HD
ATOM     21  CAO MOL d          -2.562  -9.808  16.355  0.00  0.00     0.101 C 
ATOM     22  SAY MOL d          -3.592  -8.643  15.547  0.00  0.00    -0.160 SA
ENDBRANCH  11  12
ENDBRANCH  10  11
ENDBRANCH   9  10
ENDBRANCH   8   9
ENDBRANCH   5   8
ENDBRANCH   1   4
BRANCH   1  23
ATOM     23  NAW MOL d          -3.776  -3.269   6.939  0.00  0.00    -0.300 N 
ATOM     24  H19 MOL d          -4.158  -2.508   6.414  0.00  0.00     0.173 HD
BRANCH  23  25
ATOM     25  CAN MOL d          -3.068  -3.004   8.173  0.00  0.00     0.160 C 
BRANCH  25  26
ATOM     26  CBE MOL d          -3.037  -1.512   8.479  0.00  0.00     0.190 C 
BRANCH  26  27
ATOM     27  OAX MOL d          -4.334  -1.133   8.925  0.00  0.00    -0.370 OA
BRANCH  27  28
ATOM     28  CBG MOL d          -4.346   0.131   9.583  0.00  0.00     0.301 C 
BRANCH  28  29
ATOM     29  N9  MOL d          -4.547  -0.143  11.002  0.00  0.00    -0.302 N 
ATOM     30  C4  MOL d          -5.715  -0.418  11.586  0.00  0.00     0.166 A 
ATOM     31  C5  MOL d          -5.469  -0.617  12.933  0.00  0.00     0.149 A 
ATOM     32  N3  MOL d          -6.977  -0.536  11.111  0.00  0.00    -0.222 NA
ATOM     33  C6  MOL d          -6.528  -0.926  13.773  0.00  0.00     0.155 A 
ATOM     34  N7  MOL d          -4.147  -0.449  13.134  0.00  0.00    -0.236 NA
ATOM     35  N1  MOL d          -7.771  -1.027  13.254  0.00  0.00    -0.222 NA
ATOM     36  C2  MOL d          -7.983  -0.836  11.943  0.00  0.00     0.237 A 
ATOM     37  C8  MOL d          -3.589  -0.156  11.939  0.00  0.00     0.214 A 
BRANCH  33  38
ATOM     38  N6  MOL d          -6.317  -1.123  15.098  0.00  0.00    -0.382 N 
ATOM     39  H26 MOL d          -7.108  -1.352  15.717  0.00  0.00     0.157 HD
ATOM     40  H27 MOL d          -5.366  -1.043  15.486  0.00  0.00     0.157 HD
ENDBRANCH  33  38
ENDBRANCH  28  29
ENDBRANCH  27  28
ENDBRANCH  26  27
ENDBRANCH  25  26
ENDBRANCH  23  25
ENDBRANCH   1  23
TORSDOF 13
