REMARK  16 active torsions:
REMARK  status: ('A' for Active; 'I' for Inactive)
REMARK    1  A    between atoms: C1_1  and  C2_4 
REMARK    2  A    between atoms: C2_4  and  C3_5 
REMARK    3  A    between atoms: C3_5  and  C4_6 
REMARK    4  A    between atoms: C4_6  and  C5_7 
REMARK    5  A    between atoms: C5_7  and  C6_8 
REMARK    6  A    between atoms: C6_8  and  C7_9 
REMARK    7  A    between atoms: C7_9  and  C8_10 
REMARK    8  A    between atoms: C8_10  and  C9_11 
REMARK    9  A    between atoms: C9_11  and  C10_12 
REMARK   10  A    between atoms: C10_12  and  C11_13 
REMARK   11  A    between atoms: C11_13  and  C12_14 
REMARK   12  A    between atoms: C12_14  and  C13_15 
REMARK   13  A    between atoms: C13_15  and  C14_16 
REMARK   14  A    between atoms: C14_16  and  C15_17 
REMARK   15  A    between atoms: C15_17  and  C16_18 
REMARK   16  A    between atoms: C16_18  and  C17_19 
ROOT
ATOM      1  C8  STE d           7.558 -22.808  -4.783  0.00  0.00     0.000 C 
ENDROOT
BRANCH   1   2
ATOM      2  C7  STE d           7.110 -21.826  -5.863  0.00  0.00     0.000 C 
BRANCH   2   3
ATOM      3  C6  STE d           8.021 -20.632  -6.041  0.00  0.00     0.000 C 
BRANCH   3   4
ATOM      4  C5  STE d           8.113 -19.694  -4.826  0.00  0.00     0.000 C 
BRANCH   4   5
ATOM      5  C4  STE d           6.795 -19.204  -4.291  0.00  0.00     0.001 C 
BRANCH   5   6
ATOM      6  C3  STE d           6.957 -18.098  -3.280  0.00  0.00     0.010 C 
BRANCH   6   7
ATOM      7  C2  STE d           5.683 -17.695  -2.574  0.00  0.00     0.113 C 
BRANCH   7   8
ATOM      8  C1  STE d           5.802 -16.578  -1.563  0.00  0.00     0.172 C 
ATOM      9  O1  STE d           6.859 -15.921  -1.497  0.00  0.00    -0.648 OA
ATOM     10  O2  STE d           4.781 -16.351  -0.846  0.00  0.00    -0.648 OA
ENDBRANCH   7   8
ENDBRANCH   6   7
ENDBRANCH   5   6
ENDBRANCH   4   5
ENDBRANCH   3   4
ENDBRANCH   2   3
ENDBRANCH   1   2
BRANCH   1  11
ATOM     11  C9  STE d           6.504 -23.846  -4.535  0.00  0.00     0.000 C 
BRANCH  11  12
ATOM     12  C10 STE d           6.861 -25.009  -3.646  0.00  0.00     0.000 C 
BRANCH  12  13
ATOM     13  C11 STE d           7.421 -24.623  -2.347  0.00  0.00     0.000 C 
BRANCH  13  14
ATOM     14  C12 STE d           6.600 -23.587  -1.545  0.00  0.00     0.000 C 
BRANCH  14  15
ATOM     15  C13 STE d           7.056 -23.445  -0.113  0.00  0.00     0.000 C 
BRANCH  15  16
ATOM     16  C14 STE d           6.387 -22.360   0.660  0.00  0.00     0.000 C 
BRANCH  16  17
ATOM     17  C15 STE d           6.579 -20.958   0.107  0.00  0.00     0.000 C 
BRANCH  17  18
ATOM     18  C16 STE d           8.042 -20.548  -0.165  0.00  0.00    -0.000 C 
BRANCH  18  19
ATOM     19  C17 STE d           8.942 -20.547   1.109  0.00  0.00    -0.005 C 
ATOM     20  C18 STE d          10.391 -20.258   0.749  0.00  0.00     0.005 C 
ENDBRANCH  18  19
ENDBRANCH  17  18
ENDBRANCH  16  17
ENDBRANCH  15  16
ENDBRANCH  14  15
ENDBRANCH  13  14
ENDBRANCH  12  13
ENDBRANCH  11  12
ENDBRANCH   1  11
TORSDOF 16
