REMARK  5 active torsions:
REMARK  status: ('A' for Active; 'I' for Inactive)
REMARK    1  A    between atoms: C1_1  and  S_7 
REMARK    2  A    between atoms: C4_4  and  C7_11 
REMARK    3  A    between atoms: S_7  and  N1_10 
REMARK    4  A    between atoms: C7_11  and  C8_12 
REMARK    5  A    between atoms: C8_12  and  N2_13 
REMARK       I    between atoms: N2_13  and  C9_14 
ROOT
ATOM      1  C1  M25 d         -17.119  -0.335 -19.218  0.00  0.00     0.079 A 
ATOM      2  C2  M25 d         -17.267  -1.195 -18.126  0.00  0.00     0.026 A 
ATOM      3  C3  M25 d         -17.837  -0.691 -16.968  0.00  0.00     0.009 A 
ATOM      4  C4  M25 d         -18.263   0.647 -16.851  0.00  0.00    -0.057 A 
ATOM      5  C5  M25 d         -18.100   1.499 -17.967  0.00  0.00     0.009 A 
ATOM      6  C6  M25 d         -17.528   1.028 -19.163  0.00  0.00     0.026 A 
ENDROOT
BRANCH   4   7
ATOM      7  C7  M25 d         -18.866   1.136 -15.561  0.00  0.00     0.058 C 
BRANCH   7   8
ATOM      8  C8  M25 d         -17.794   1.619 -14.595  0.00  0.00     0.127 C 
BRANCH   8   9
ATOM      9  N2  M25 d         -18.426   2.072 -13.357  0.00  0.00    -0.361 N 
ATOM     10  C9  M25 d         -18.794   3.374 -13.158  0.00  0.00     0.213 C 
ATOM     11  C10 M25 d         -19.434   3.621 -11.805  0.00  0.00     0.117 C 
ATOM     12  O3  M25 d         -18.628   4.284 -13.980  0.00  0.00    -0.274 OA
ATOM     13  H11 M25 d         -18.595   1.406 -12.630  0.00  0.00     0.162 HD
ENDBRANCH   8   9
ENDBRANCH   7   8
ENDBRANCH   4   7
BRANCH   1  14
ATOM     14  S   M25 d         -16.399  -0.943 -20.710  0.00  0.00     0.256 S 
ATOM     15  O1  M25 d         -16.047   0.171 -21.558  0.00  0.00    -0.201 OA
ATOM     16  O2  M25 d         -17.381  -1.879 -21.242  0.00  0.00    -0.201 OA
BRANCH  14  17
ATOM     17  N1  M25 d         -15.029  -1.755 -20.331  0.00  0.00    -0.324 N 
ATOM     18  H5  M25 d         -14.480  -2.174 -21.054  0.00  0.00     0.169 HD
ATOM     19  H6  M25 d         -14.741  -1.832 -19.376  0.00  0.00     0.169 HD
ENDBRANCH  14  17
ENDBRANCH   1  14
TORSDOF 5
