REMARK  12 active torsions:
REMARK  status: ('A' for Active; 'I' for Inactive)
REMARK       I    between atoms: N6_1  and  C18_2 
REMARK       I    between atoms: C18_2  and  N5_3 
REMARK    1  A    between atoms: N4_4  and  C14_5 
REMARK    2  A    between atoms: C17_8  and  C11_11 
REMARK    3  A    between atoms: C11_11  and  N3_12 
REMARK       I    between atoms: N3_12  and  C10_13 
REMARK    4  A    between atoms: C10_13  and  C8_15 
REMARK    5  A    between atoms: C8_15  and  N2_17 
REMARK       I    between atoms: N2_17  and  C7_18 
REMARK    6  A    between atoms: C7_18  and  C5_19 
REMARK    7  A    between atoms: C5_19  and  C6_20 
REMARK    8  A    between atoms: C5_19  and  N1_22 
REMARK    9  A    between atoms: C6_20  and  O3_21 
REMARK   10  A    between atoms: N1_22  and  S1_25 
REMARK   11  A    between atoms: S1_25  and  C1_27 
REMARK   12  A    between atoms: C1_27  and  C4_28 
ROOT
ATOM      1  C8  SM1 d          28.659  10.316  31.394  0.00  0.00     0.172 C 
ATOM      2  C22 SM1 d          27.434  11.224  31.664  0.00  0.00     0.042 C 
ENDROOT
BRANCH   1   3
ATOM      3  C10 SM1 d          28.445   9.501  30.197  0.00  0.00     0.240 C 
ATOM      4  N3  SM1 d          28.166   8.219  30.315  0.00  0.00    -0.355 N 
ATOM      5  H12 SM1 d          28.040   7.849  31.235  0.00  0.00     0.162 HD
ATOM      6  O5  SM1 d          28.546  10.070  29.100  0.00  0.00    -0.271 OA
BRANCH   4   7
ATOM      7  C11 SM1 d          28.034   7.336  29.224  0.00  0.00     0.161 C 
BRANCH   7   8
ATOM      8  C17 SM1 d          29.346   6.860  28.729  0.00  0.00    -0.040 C 
ATOM      9  C12 SM1 d          30.005   7.492  27.657  0.00  0.00     0.011 C 
ATOM     10  C13 SM1 d          31.287   7.054  27.266  0.00  0.00     0.030 C 
ATOM     11  C14 SM1 d          31.915   6.004  27.961  0.00  0.00     0.049 C 
ATOM     12  C15 SM1 d          31.204   5.277  28.945  0.00  0.00     0.030 C 
ATOM     13  C16 SM1 d          29.945   5.741  29.351  0.00  0.00     0.011 C 
BRANCH  11  14
ATOM     14  N4  SM1 d          33.214   5.736  27.650  0.00  0.00    -0.193 N 
ATOM     15  C18 SM1 d          33.874   4.562  27.521  0.00  0.00     0.669 C 
ATOM     16  N6  SM1 d          35.215   4.523  27.334  0.00  0.00    -0.235 N 
ATOM     17  N5  SM1 d          33.228   3.391  27.579  0.00  0.00    -0.235 N 
ATOM     18  H1  SM1 d          35.696   3.617  27.238  0.00  0.00     0.174 HD
ATOM     19  H2  SM1 d          35.754   5.399  27.287  0.00  0.00     0.174 HD
ATOM     20  H3  SM1 d          32.208   3.372  27.720  0.00  0.00     0.174 HD
ATOM     21  H4  SM1 d          33.751   2.509  27.483  0.00  0.00     0.174 HD
ATOM     22  H5  SM1 d          33.794   6.571  27.485  0.00  0.00     0.184 HD
ENDBRANCH  11  14
ENDBRANCH   7   8
ENDBRANCH   4   7
ENDBRANCH   1   3
BRANCH   1  23
ATOM     23  N2  SM1 d          29.759  11.182  31.247  0.00  0.00    -0.346 N 
ATOM     24  C7  SM1 d          31.008  10.890  30.989  0.00  0.00     0.243 C 
ATOM     25  O4  SM1 d          31.352   9.715  30.848  0.00  0.00    -0.271 OA
ATOM     26  H17 SM1 d          29.558  12.156  31.355  0.00  0.00     0.163 HD
BRANCH  24  27
ATOM     27  C5  SM1 d          32.008  11.949  30.856  0.00  0.00     0.208 C 
BRANCH  27  28
ATOM     28  C6  SM1 d          32.722  12.272  32.199  0.00  0.00     0.199 C 
BRANCH  28  29
ATOM     29  O3  SM1 d          31.750  12.583  33.210  0.00  0.00    -0.398 OA
ATOM     30  H21 SM1 d          32.195  12.779  34.026  0.00  0.00     0.209 HD
ENDBRANCH  28  29
ENDBRANCH  27  28
BRANCH  27  31
ATOM     31  N1  SM1 d          33.103  11.594  29.916  0.00  0.00    -0.303 N 
ATOM     32  H22 SM1 d          33.948  11.168  30.240  0.00  0.00     0.173 HD
BRANCH  31  33
ATOM     33  S1  SM1 d          32.866  11.936  28.283  0.00  0.00     0.231 S 
ATOM     34  O2  SM1 d          32.388  13.391  28.076  0.00  0.00    -0.206 OA
ATOM     35  O1  SM1 d          34.243  11.655  27.612  0.00  0.00    -0.206 OA
BRANCH  33  36
ATOM     36  C1  SM1 d          31.648  10.876  27.604  0.00  0.00     0.201 C 
BRANCH  36  37
ATOM     37  C4  SM1 d          31.470  11.088  26.149  0.00  0.00    -0.043 A 
ATOM     38  C19 SM1 d          32.210  10.316  25.216  0.00  0.00     0.008 A 
ATOM     39  C20 SM1 d          32.093  10.536  23.826  0.00  0.00     0.001 A 
ATOM     40  C21 SM1 d          31.190  11.514  23.359  0.00  0.00     0.000 A 
ATOM     41  C2  SM1 d          30.404  12.247  24.278  0.00  0.00     0.001 A 
ATOM     42  C3  SM1 d          30.565  12.062  25.673  0.00  0.00     0.008 A 
ENDBRANCH  36  37
ENDBRANCH  33  36
ENDBRANCH  31  33
ENDBRANCH  27  31
ENDBRANCH  24  27
ENDBRANCH   1  23
TORSDOF 12
