REMARK  4 active torsions:
REMARK  status: ('A' for Active; 'I' for Inactive)
REMARK    1  A    between atoms: N_1  and  CA_2 
REMARK    2  A    between atoms: CA_2  and  C_3 
REMARK    3  A    between atoms: CA_2  and  CB_6 
REMARK    4  A    between atoms: CB_6  and  OG_7 
ROOT
ATOM      1  CA  DSN d          31.507  32.428  28.187  0.00  0.00     0.306 C 
ENDROOT
BRANCH   1   2
ATOM      2  N   DSN d          32.155  33.683  27.721  0.00  0.00    -0.063 N 
ATOM      3  H1  DSN d          31.566  34.469  27.947  0.00  0.00     0.275 HD
ATOM      4  H2  DSN d          32.291  33.641  26.723  0.00  0.00     0.275 HD
ATOM      5  H3  DSN d          33.048  33.790  28.177  0.00  0.00     0.275 HD
ENDBRANCH   1   2
BRANCH   1   6
ATOM      6  C   DSN d          32.337  31.206  27.880  0.00  0.00     0.206 C 
ATOM      7  O   DSN d          31.979  30.102  28.327  0.00  0.00    -0.646 OA
ATOM      8  OXT DSN d          33.357  31.298  27.134  0.00  0.00    -0.646 OA
ENDBRANCH   1   6
BRANCH   1   9
ATOM      9  CB  DSN d          31.248  32.456  29.714  0.00  0.00     0.208 C 
BRANCH   9  10
ATOM     10  OG  DSN d          32.466  32.611  30.464  0.00  0.00    -0.398 OA
ATOM     11  H7  DSN d          32.265  32.623  31.392  0.00  0.00     0.209 HD
ENDBRANCH   9  10
ENDBRANCH   1   9
TORSDOF 4
