REMARK  4 active torsions:
REMARK  status: ('A' for Active; 'I' for Inactive)
REMARK    1  A    between atoms: C2_2  and  O5_5 
REMARK    2  A    between atoms: O5_5  and  C6_6 
REMARK       I    between atoms: C6_6  and  N8_8 
REMARK    3  A    between atoms: C10_10  and  N12_12 
REMARK    4  A    between atoms: N12_12  and  C13_13 
ROOT
ATOM      1  C13 TB7 d         -30.246   1.676   0.791  0.00  0.00     0.683 A 
ATOM      2  N14 TB7 d         -31.086   2.053   1.802  0.00  0.00    -0.155 N 
ATOM      3  C15 TB7 d         -32.257   1.419   2.163  0.00  0.00     0.273 A 
ATOM      4  O16 TB7 d         -32.996   1.763   3.089  0.00  0.00    -0.267 OA
ATOM      5  C17 TB7 d         -32.565   0.246   1.329  0.00  0.00     0.079 A 
ATOM      6  C18 TB7 d         -33.703  -0.492   1.567  0.00  0.00     0.022 A 
ATOM      7  C19 TB7 d         -33.959  -1.586   0.754  0.00  0.00     0.020 A 
ATOM      8  C20 TB7 d         -33.048  -1.864  -0.251  0.00  0.00     0.119 A 
ATOM      9  N21 TB7 d         -31.931  -1.145  -0.489  0.00  0.00    -0.242 NA
ATOM     10  C22 TB7 d         -31.705  -0.095   0.312  0.00  0.00     0.158 A 
ATOM     11  N23 TB7 d         -30.535   0.649   0.050  0.00  0.00    -0.174 N 
ATOM     12  H16 TB7 d         -30.828   2.863   2.328  0.00  0.00     0.187 HD
ATOM     13  H20 TB7 d         -29.913   0.379  -0.725  0.00  0.00     0.186 HD
ENDROOT
BRANCH   1  14
ATOM     14  N12 TB7 d         -29.147   2.515   0.691  0.00  0.00    -0.219 N 
ATOM     15  H15 TB7 d         -29.019   3.298   1.347  0.00  0.00     0.178 HD
BRANCH  14  16
ATOM     16  C10 TB7 d         -28.202   2.266  -0.341  0.00  0.00     0.126 C 
ATOM     17  C9  TB7 d         -26.965   1.483   0.112  0.00  0.00     0.127 C 
ATOM     18  N8  TB7 d         -26.138   2.540  -0.508  0.00  0.00    -0.224 NA
ATOM     19  C6  TB7 d         -24.871   2.868  -0.051  0.00  0.00     0.341 C 
ATOM     20  C11 TB7 d         -27.295   3.468  -0.607  0.00  0.00     0.127 C 
ATOM     21  O7  TB7 d         -24.078   2.057   0.397  0.00  0.00    -0.245 OA
BRANCH  19  22
ATOM     22  O5  TB7 d         -24.627   4.220  -0.118  0.00  0.00    -0.298 OA
BRANCH  22  23
ATOM     23  C2  TB7 d         -23.280   4.688   0.089  0.00  0.00     0.061 C 
ATOM     24  C1  TB7 d         -22.244   3.884  -0.664  0.00  0.00     0.046 C 
ATOM     25  C3  TB7 d         -23.291   6.044  -0.564  0.00  0.00     0.046 C 
ATOM     26  C4  TB7 d         -22.925   4.829   1.580  0.00  0.00     0.046 C 
ENDBRANCH  22  23
ENDBRANCH  19  22
ENDBRANCH  14  16
ENDBRANCH   1  14
TORSDOF 4
