REMARK  5 active torsions:
REMARK  status: ('A' for Active; 'I' for Inactive)
REMARK       I    between atoms: C80_2  and  N82_3 
REMARK    1  A    between atoms: C80_2  and  C23_5 
REMARK    2  A    between atoms: C18_9  and  S24_11 
REMARK    3  A    between atoms: S24_11  and  C07_12 
REMARK    4  A    between atoms: C13_19  and  C16_21 
REMARK    5  A    between atoms: C17_22  and  C02_23 
ROOT
ATOM      1  C07 AXI d          59.391  15.714  48.741  0.00  0.00     0.008 A 
ATOM      2  C08 AXI d          59.311  15.750  50.141  0.00  0.00     0.020 A 
ATOM      3  C09 AXI d          58.537  14.794  50.828  0.00  0.00     0.017 A 
ATOM      4  C12 AXI d          58.710  14.733  48.028  0.00  0.00     0.053 A 
ATOM      5  C11 AXI d          57.916  13.758  48.730  0.00  0.00     0.090 A 
ATOM      6  N15 AXI d          57.146  12.691  48.298  0.00  0.00    -0.174 NA
ATOM      7  N14 AXI d          56.592  12.068  49.393  0.00  0.00    -0.277 N 
ATOM      8  C13 AXI d          56.988  12.712  50.507  0.00  0.00     0.062 A 
ATOM      9  C10 AXI d          57.836  13.794  50.100  0.00  0.00     0.022 A 
ATOM     10  H12 AXI d          55.975  11.244  49.365  0.00  0.00     0.189 HD
ENDROOT
BRANCH   1  11
ATOM     11  S24 AXI d          60.388  16.932  47.884  0.00  0.00    -0.089 SA
BRANCH  11  12
ATOM     12  C18 AXI d          62.046  16.831  48.545  0.00  0.00     0.021 A 
ATOM     13  C23 AXI d          62.900  17.942  48.502  0.00  0.00     0.049 A 
ATOM     14  C22 AXI d          64.185  17.849  49.022  0.00  0.00     0.018 A 
ATOM     15  C21 AXI d          64.624  16.661  49.586  0.00  0.00     0.001 A 
ATOM     16  C20 AXI d          63.775  15.555  49.632  0.00  0.00     0.001 A 
ATOM     17  C19 AXI d          62.485  15.648  49.108  0.00  0.00     0.020 A 
BRANCH  13  18
ATOM     18  C80 AXI d          62.441  19.224  47.899  0.00  0.00     0.252 C 
ATOM     19  O81 AXI d          62.022  19.247  46.758  0.00  0.00    -0.268 OA
ATOM     20  N82 AXI d          62.498  20.429  48.662  0.00  0.00    -0.361 N 
ATOM     21  C88 AXI d          62.052  21.674  48.070  0.00  0.00     0.149 C 
ATOM     22  H1  AXI d          62.844  20.414  49.600  0.00  0.00     0.162 HD
ENDBRANCH  13  18
ENDBRANCH  11  12
ENDBRANCH   1  11
BRANCH   8  23
ATOM     23  C16 AXI d          56.609  12.355  51.918  0.00  0.00     0.034 C 
ATOM     24  C17 AXI d          57.313  12.863  52.977  0.00  0.00     0.034 C 
BRANCH  24  25
ATOM     25  C02 AXI d          57.067  12.311  54.354  0.00  0.00     0.056 A 
ATOM     26  N03 AXI d          57.691  12.856  55.408  0.00  0.00    -0.261 NA
ATOM     27  C04 AXI d          57.501  12.394  56.656  0.00  0.00     0.117 A 
ATOM     28  C05 AXI d          56.641  11.329  56.863  0.00  0.00     0.019 A 
ATOM     29  C06 AXI d          55.983  10.748  55.790  0.00  0.00     0.004 A 
ATOM     30  C01 AXI d          56.198  11.245  54.513  0.00  0.00     0.031 A 
ENDBRANCH  24  25
ENDBRANCH   8  23
TORSDOF 5
