REMARK  2 active torsions:
REMARK  status: ('A' for Active; 'I' for Inactive)
REMARK    1  A    between atoms: S1_2  and  N3_4 
REMARK    2  A    between atoms: S1_2  and  C8_5 
ROOT
ATOM      1  C8  D9Z d          -5.228   1.692  16.171  0.00  0.00     0.236 A 
ATOM      2  S2  D9Z d          -5.866   2.957  15.204  0.00  0.00    -0.033 SA
ATOM      3  N2  D9Z d          -3.899   1.700  16.301  0.00  0.00    -0.128 NA
ATOM      4  N1  D9Z d          -3.354   2.748  15.564  0.00  0.00    -0.140 NA
ATOM      5  C7  D9Z d          -4.246   3.527  14.925  0.00  0.00     0.134 A 
ATOM      6  C1  D9Z d          -3.824   4.632  14.170  0.00  0.00     0.023 A 
ATOM      7  C6  D9Z d          -2.479   4.934  14.050  0.00  0.00     0.016 A 
ATOM      8  C2  D9Z d          -4.747   5.424  13.543  0.00  0.00     0.047 A 
ATOM      9  C3  D9Z d          -4.427   6.505  12.752  0.00  0.00     0.025 A 
ATOM     10  C4  D9Z d          -3.058   6.811  12.629  0.00  0.00     0.002 A 
ATOM     11  C5  D9Z d          -2.100   6.054  13.273  0.00  0.00     0.001 A 
ATOM     12 CL1  D9Z d          -6.446   5.333  13.505  0.00  0.00    -0.083 Cl
ENDROOT
BRANCH   1  13
ATOM     13  S1  D9Z d          -6.067   0.470  16.907  0.00  0.00     0.282 S 
ATOM     14  O2  D9Z d          -7.422   0.690  16.638  0.00  0.00    -0.199 OA
ATOM     15  O1  D9Z d          -5.689   0.592  18.289  0.00  0.00    -0.199 OA
BRANCH  13  16
ATOM     16  N3  D9Z d          -5.478  -0.904  16.356  0.00  0.00    -0.323 N 
ATOM     17  H1  D9Z d          -5.636  -1.170  15.405  0.00  0.00     0.169 HD
ATOM     18  H2  D9Z d          -4.950  -1.500  16.961  0.00  0.00     0.169 HD
ENDBRANCH  13  16
ENDBRANCH   1  13
TORSDOF 2
