REMARK  22 active torsions:
REMARK  status: ('A' for Active; 'I' for Inactive)
REMARK    1  A    between atoms: O2_13  and  C1_1 
REMARK    2  A    between atoms: C2_2  and  O2_3 
REMARK    3  A    between atoms: C3_4  and  O3_5 
REMARK    4  A    between atoms: C4_6  and  O4_7 
REMARK    5  A    between atoms: O3_25  and  C1_11 
REMARK    6  A    between atoms: C2_12  and  O2_13 
REMARK    7  A    between atoms: C3_14  and  O3_15 
REMARK    8  A    between atoms: C4_16  and  O4_17 
REMARK    9  A    between atoms: O3_40  and  C1_21 
REMARK   10  A    between atoms: C2_22  and  O2_23 
REMARK   11  A    between atoms: C3_24  and  O3_25 
REMARK   12  A    between atoms: C4_26  and  O4_27 
REMARK   13  A    between atoms: O2_48  and  C1_31 
REMARK   14  A    between atoms: C2_32  and  N2_39 
REMARK   15  A    between atoms: C3_33  and  O3_40 
REMARK   16  A    between atoms: C4_34  and  O4_41 
REMARK   17  A    between atoms: C5_35  and  C6_36 
REMARK   18  A    between atoms: C6_36  and  O6_43 
REMARK       I    between atoms: N2_39  and  C7_37 
REMARK   19  A    between atoms: C1_45  and  O1_46 
REMARK   20  A    between atoms: O2_48  and  C2_49 
REMARK   21  A    between atoms: C3_50  and  O3_51 
REMARK   22  A    between atoms: C4_52  and  O4_53 
ROOT
ATOM      1  C1  MOL d          -5.399  21.056  33.930  0.00  0.00     0.292 C 
ATOM      2  C2  MOL d          -6.627  21.732  33.317  0.00  0.00     0.205 C 
ATOM      3  C3  MOL d          -7.050  22.931  34.159  0.00  0.00     0.189 C 
ATOM      4  C4  MOL d          -5.866  23.878  34.416  0.00  0.00     0.178 C 
ATOM      5  C5  MOL d          -4.656  23.122  34.962  0.00  0.00     0.152 C 
ATOM      6  O5  MOL d          -4.337  22.022  34.090  0.00  0.00    -0.351 OA
ATOM      7  C6  MOL d          -3.463  24.065  35.056  0.00  0.00     0.042 C 
ENDROOT
BRANCH   1   8
ATOM      8  O3  MOL d          -5.740  20.379  35.159  0.00  0.00    -0.348 OA
BRANCH   8   9
ATOM      9  C3  MOL d          -5.462  18.964  35.130  0.00  0.00     0.183 C 
ATOM     10  C2  MOL d          -6.685  18.164  34.634  0.00  0.00     0.171 C 
ATOM     11  C1  MOL d          -6.378  16.664  34.713  0.00  0.00     0.286 C 
ATOM     12  O5  MOL d          -6.007  16.310  36.050  0.00  0.00    -0.349 OA
ATOM     13  C5  MOL d          -4.815  16.958  36.530  0.00  0.00     0.179 C 
ATOM     14  C4  MOL d          -5.002  18.486  36.519  0.00  0.00     0.180 C 
BRANCH  10  15
ATOM     15  N2  MOL d          -6.999  18.508  33.256  0.00  0.00    -0.349 N 
ATOM     16  C7  MOL d          -8.153  19.101  32.947  0.00  0.00     0.214 C 
ATOM     17  C8  MOL d          -8.382  19.405  31.480  0.00  0.00     0.117 C 
ATOM     18  O7  MOL d          -8.991  19.406  33.792  0.00  0.00    -0.274 OA
ATOM     19  H42 MOL d          -6.342  18.297  32.532  0.00  0.00     0.163 HD
ENDBRANCH  10  15
BRANCH  11  20
ATOM     20  O2  MOL d          -7.511  15.900  34.266  0.00  0.00    -0.346 OA
BRANCH  20  21
ATOM     21  C2  MOL d          -7.190  14.656  33.605  0.00  0.00     0.211 C 
ATOM     22  C1  MOL d          -6.261  13.755  34.446  0.00  0.00     0.291 C 
ATOM     23  O5  MOL d          -6.952  13.282  35.620  0.00  0.00    -0.351 OA
ATOM     24  C5  MOL d          -8.116  12.475  35.326  0.00  0.00     0.152 C 
ATOM     25  C4  MOL d          -9.135  13.300  34.509  0.00  0.00     0.178 C 
ATOM     26  C6  MOL d          -8.708  11.921  36.620  0.00  0.00     0.042 C 
ATOM     27  C3  MOL d          -8.480  13.911  33.255  0.00  0.00     0.183 C 
BRANCH  22  28
ATOM     28  O1  MOL d          -5.752  12.674  33.641  0.00  0.00    -0.363 OA
ATOM     29  C7  MOL d          -5.121  11.637  34.391  0.00  0.00     0.204 C 
ENDBRANCH  22  28
BRANCH  25  30
ATOM     30  O4  MOL d         -10.239  12.486  34.133  0.00  0.00    -0.390 OA
ATOM     31  H53 MOL d         -10.879  13.015  33.672  0.00  0.00     0.210 HD
ENDBRANCH  25  30
BRANCH  27  32
ATOM     32  O3  MOL d          -9.391  14.810  32.636  0.00  0.00    -0.390 OA
ATOM     33  H51 MOL d          -9.587  15.522  33.234  0.00  0.00     0.210 HD
ENDBRANCH  27  32
ENDBRANCH  20  21
ENDBRANCH  11  20
BRANCH  13  34
ATOM     34  C6  MOL d          -4.479  16.425  37.922  0.00  0.00     0.198 C 
BRANCH  34  35
ATOM     35  O6  MOL d          -4.618  15.010  37.948  0.00  0.00    -0.398 OA
ATOM     36  H44 MOL d          -5.513  14.777  37.731  0.00  0.00     0.209 HD
ENDBRANCH  34  35
ENDBRANCH  13  34
BRANCH  14  37
ATOM     37  O4  MOL d          -3.789  19.134  36.870  0.00  0.00    -0.390 OA
ATOM     38  H43 MOL d          -3.919  20.075  36.859  0.00  0.00     0.210 HD
ENDBRANCH  14  37
ENDBRANCH   8   9
ENDBRANCH   1   8
BRANCH   2  39
ATOM     39  O2  MOL d          -6.357  22.144  31.987  0.00  0.00    -0.388 OA
ATOM     40  H24 MOL d          -7.129  22.561  31.623  0.00  0.00     0.210 HD
ENDBRANCH   2  39
BRANCH   3  41
ATOM     41  O3  MOL d          -8.112  23.651  33.496  0.00  0.00    -0.348 OA
BRANCH  41  42
ATOM     42  C1  MOL d          -9.325  23.743  34.276  0.00  0.00     0.292 C 
ATOM     43  C2  MOL d         -10.151  24.967  33.876  0.00  0.00     0.211 C 
ATOM     44  C3  MOL d         -10.741  24.769  32.469  0.00  0.00     0.183 C 
ATOM     45  C4  MOL d         -11.529  23.453  32.384  0.00  0.00     0.178 C 
ATOM     46  C5  MOL d         -10.678  22.270  32.876  0.00  0.00     0.152 C 
ATOM     47  O5  MOL d         -10.158  22.559  34.196  0.00  0.00    -0.351 OA
ATOM     48  C6  MOL d         -11.518  20.992  32.927  0.00  0.00     0.042 C 
BRANCH  43  49
ATOM     49  O2  MOL d         -11.226  25.075  34.821  0.00  0.00    -0.346 OA
BRANCH  49  50
ATOM     50  C1  MOL d         -11.696  26.401  35.097  0.00  0.00     0.292 C 
ATOM     51  C2  MOL d         -12.911  26.281  36.023  0.00  0.00     0.204 C 
ATOM     52  C3  MOL d         -12.468  25.722  37.396  0.00  0.00     0.183 C 
ATOM     53  C4  MOL d         -11.309  26.560  37.984  0.00  0.00     0.178 C 
ATOM     54  C5  MOL d         -10.164  26.708  36.971  0.00  0.00     0.152 C 
ATOM     55  O5  MOL d         -10.678  27.230  35.716  0.00  0.00    -0.351 OA
ATOM     56  C6  MOL d          -9.107  27.651  37.542  0.00  0.00     0.042 C 
BRANCH  51  57
ATOM     57  O2  MOL d         -13.559  27.536  36.175  0.00  0.00    -0.388 OA
ATOM     58  H3  MOL d         -14.307  27.437  36.752  0.00  0.00     0.210 HD
ENDBRANCH  51  57
BRANCH  52  59
ATOM     59  O3  MOL d         -13.564  25.666  38.299  0.00  0.00    -0.390 OA
ATOM     60  H5  MOL d         -13.915  26.540  38.424  0.00  0.00     0.210 HD
ENDBRANCH  52  59
BRANCH  53  61
ATOM     61  O4  MOL d         -10.819  25.969  39.181  0.00  0.00    -0.390 OA
ATOM     62  H7  MOL d         -11.520  25.923  39.820  0.00  0.00     0.210 HD
ENDBRANCH  53  61
ENDBRANCH  49  50
ENDBRANCH  43  49
BRANCH  44  63
ATOM     63  O3  MOL d         -11.577  25.861  32.118  0.00  0.00    -0.390 OA
ATOM     64  H15 MOL d         -12.289  25.927  32.744  0.00  0.00     0.210 HD
ENDBRANCH  44  63
BRANCH  45  65
ATOM     65  O4  MOL d         -11.970  23.229  31.051  0.00  0.00    -0.390 OA
ATOM     66  H17 MOL d         -12.531  23.946  30.780  0.00  0.00     0.210 HD
ENDBRANCH  45  65
ENDBRANCH  41  42
ENDBRANCH   3  41
BRANCH   4  67
ATOM     67  O4  MOL d          -6.250  24.885  35.331  0.00  0.00    -0.390 OA
ATOM     68  H27 MOL d          -6.976  25.379  34.970  0.00  0.00     0.210 HD
ENDBRANCH   4  67
TORSDOF 22
