REMARK  6 active torsions:
REMARK  status: ('A' for Active; 'I' for Inactive)
REMARK    1  A    between atoms: CBA_4  and  NAA_5 
REMARK    2  A    between atoms: NBQ_11  and  CBO_12 
REMARK    3  A    between atoms: CBI_21  and  OAE_22 
REMARK    4  A    between atoms: C3'_32  and  O3'_33 
REMARK    5  A    between atoms: C1'_35  and  N9_36 
REMARK    6  A    between atoms: C6_44  and  N6_45 
ROOT
ATOM      1  CBO 1YC d          43.812  34.997  15.752  0.00  0.00     0.263 C 
ATOM      2  OAX 1YC d          43.064  35.090  16.941  0.00  0.00    -0.353 OA
ATOM      3  CBK 1YC d          41.655  34.784  16.661  0.00  0.00     0.180 C 
ATOM      4  CAN 1YC d          41.219  33.441  17.280  0.00  0.00     0.216 C 
ATOM      5  OP3 1YC d          42.060  32.397  16.843  0.00  0.00    -0.287 OA
ATOM      6  P2' 1YC d          41.718  30.827  17.106  0.00  0.00     0.408 P 
ATOM      7  O2' 1YC d          40.789  30.433  15.919  0.00  0.00    -0.277 OA
ATOM      8  OP2 1YC d          40.933  30.734  18.402  0.00  0.00    -0.624 OA
ATOM      9  OP1 1YC d          43.066  30.107  17.047  0.00  0.00    -0.624 OA
ATOM     10  CBI 1YC d          41.542  34.733  15.180  0.00  0.00     0.183 C 
ATOM     11  CBM 1YC d          42.911  34.304  14.766  0.00  0.00     0.215 C 
ATOM     12  OAZ 1YC d          43.190  34.749  13.418  0.00  0.00    -0.277 OA
ATOM     13  PBS 1YC d          43.363  33.657  12.248  0.00  0.00     0.408 P 
ATOM     14  OAH 1YC d          44.843  33.170  12.396  0.00  0.00    -0.624 OA
ATOM     15  OAI 1YC d          43.047  34.248  10.884  0.00  0.00    -0.624 OA
ATOM     16  O5' 1YC d          42.408  32.364  12.544  0.00  0.00    -0.287 OA
ATOM     17  C5' 1YC d          41.194  32.333  11.950  0.00  0.00     0.216 C 
ATOM     18  C4' 1YC d          40.429  31.114  12.457  0.00  0.00     0.180 C 
ATOM     19  O4' 1YC d          41.241  29.915  12.406  0.00  0.00    -0.353 OA
ATOM     20  C3' 1YC d          40.130  31.333  13.897  0.00  0.00     0.183 C 
ATOM     21  C2' 1YC d          41.243  30.738  14.599  0.00  0.00     0.215 C 
ATOM     22  C1' 1YC d          41.491  29.504  13.720  0.00  0.00     0.263 C 
ENDROOT
BRANCH   1  23
ATOM     23  NBQ 1YC d          45.034  34.179  15.961  0.00  0.00    -0.295 N 
ATOM     24  CBG 1YC d          46.281  34.529  15.651  0.00  0.00     0.161 A 
ATOM     25  NAS 1YC d          46.794  35.688  15.162  0.00  0.00    -0.174 N 
ATOM     26  CBE 1YC d          47.089  33.504  15.940  0.00  0.00     0.171 A 
ATOM     27  CBA 1YC d          48.124  35.831  14.951  0.00  0.00     0.680 A 
ATOM     28  H4  1YC d          46.160  36.471  14.948  0.00  0.00     0.186 HD
ATOM     29  NAT 1YC d          48.971  34.790  15.267  0.00  0.00    -0.154 N 
ATOM     30  CBC 1YC d          48.428  33.610  15.741  0.00  0.00     0.292 A 
ATOM     31  H1  1YC d          49.960  34.887  15.155  0.00  0.00     0.187 HD
ATOM     32  OAC 1YC d          49.220  32.702  15.994  0.00  0.00    -0.265 OA
ATOM     33  NAR 1YC d          46.325  32.523  16.436  0.00  0.00    -0.234 NA
ATOM     34  CAL 1YC d          45.049  32.928  16.411  0.00  0.00     0.214 A 
BRANCH  27  35
ATOM     35  NAA 1YC d          48.648  36.959  14.488  0.00  0.00    -0.234 N 
ATOM     36  H2  1YC d          48.035  37.750  14.245  0.00  0.00     0.174 HD
ATOM     37  H3  1YC d          49.668  37.043  14.371  0.00  0.00     0.174 HD
ENDBRANCH  27  35
ENDBRANCH   1  23
BRANCH  10  38
ATOM     38  OAE 1YC d          41.270  36.043  14.697  0.00  0.00    -0.390 OA
ATOM     39  H11 1YC d          41.196  36.021  13.750  0.00  0.00     0.210 HD
ENDBRANCH  10  38
BRANCH  20  40
ATOM     40  O3' 1YC d          38.942  30.643  14.278  0.00  0.00    -0.390 OA
ATOM     41  H17 1YC d          38.770  30.796  15.200  0.00  0.00     0.210 HD
ENDBRANCH  20  40
BRANCH  22  42
ATOM     42  N9  1YC d          42.873  29.091  13.690  0.00  0.00    -0.294 N 
ATOM     43  C8  1YC d          43.935  29.818  13.297  0.00  0.00     0.214 A 
ATOM     44  N7  1YC d          45.048  29.080  13.452  0.00  0.00    -0.236 NA
ATOM     45  C5  1YC d          44.686  27.880  13.943  0.00  0.00     0.149 A 
ATOM     46  C4  1YC d          43.334  27.894  14.078  0.00  0.00     0.167 A 
ATOM     47  C6  1YC d          45.395  26.778  14.257  0.00  0.00     0.155 A 
ATOM     48  N3  1YC d          42.669  26.830  14.567  0.00  0.00    -0.222 NA
ATOM     49  C2  1YC d          43.412  25.694  14.890  0.00  0.00     0.237 A 
ATOM     50  N1  1YC d          44.782  25.688  14.734  0.00  0.00    -0.222 NA
BRANCH  47  51
ATOM     51  N6  1YC d          46.731  26.787  14.094  0.00  0.00    -0.382 N 
ATOM     52  H22 1YC d          47.284  25.951  14.330  0.00  0.00     0.157 HD
ATOM     53  H23 1YC d          47.200  27.630  13.733  0.00  0.00     0.157 HD
ENDBRANCH  47  51
ENDBRANCH  22  42
TORSDOF 6
