3d8y_ligand

Created by X-TOOL on Fri Sep 26 17:34:44 2014
 46 48  0  0  0  0  0  0  0  0999 V2000
   42.2270   -1.7160   14.7530  C 0  0  0  3  0  4
   43.1250   -2.8800   15.2050  C 0  0  0  3  0  4
   42.6620   -4.2360   14.6330  C 0  0  0  3  0  4
   41.9140   -4.1070   13.2930  C 0  0  0  3  0  4
   40.7510   -3.0930   13.3500  C 0  0  0  3  0  4
   40.8450   -2.1940   14.5310  N 0  3  0  2  0  4
   39.8820   -1.0510   14.5420  C 0  0  0  3  0  4
   39.4700   -0.4660   13.1450  C 0  0  0  2  0  4
   38.7200   -1.3620   12.2590  O 0  0  0  1  0  2
   38.5110    0.6850   13.4210  C 0  0  0  2  0  4
   38.5910    1.6270   12.3400  O 0  0  0  2  0  2
   37.1380    0.0070   13.3960  C 0  0  0  3  0  4
   37.3150   -0.9370   12.2130  C 0  0  0  2  0  4
   36.4730   -2.1580   12.2900  N 0  0  0  1  0  3
   36.8630   -3.2190   13.1310  C 0  0  0  2  0  3
   36.0960   -4.3810   13.2120  C 0  0  0  1  0  3
   36.5530   -5.5170   14.1380  C 0  0  0  4  0  4
   34.9300   -4.4880   12.4450  C 0  0  0  1  0  3
   34.2250   -5.4980   12.4940  O 0  0  0  1  0  1
   34.5370   -3.4370   11.6020  N 0  0  0  2  0  3
   35.3000   -2.2630   11.5130  C 0  0  0  1  0  3
   34.9280   -1.3460   10.7770  O 0  0  0  1  0  1
   42.6210   -1.2956   13.8160  H 0  0  0  1  0  1
   42.2219   -0.9378   15.5304  H 0  0  0  1  0  1
   43.1061   -2.9350   16.3035  H 0  0  0  1  0  1
   44.1530   -2.6857   14.8652  H 0  0  0  1  0  1
   41.9912   -4.7125   15.3631  H 0  0  0  1  0  1
   43.5470   -4.8709   14.4793  H 0  0  0  1  0  1
   41.5076   -5.0924   13.0215  H 0  0  0  1  0  1
   42.6277   -3.7797   12.5226  H 0  0  0  1  0  1
   39.8014   -3.6459   13.4008  H 0  0  0  1  0  1
   40.7703   -2.4805   12.4365  H 0  0  0  1  0  1
   40.6063   -2.7642   15.3272  H 0  0  0  1  0  1
   40.3377   -0.2362   15.1238  H 0  0  0  1  0  1
   38.9649   -1.3920   15.0446  H 0  0  0  1  0  1
   40.3744   -0.1162   12.6257  H 0  0  0  1  0  1
   38.7147    1.1736   14.3852  H 0  0  0  1  0  1
   37.9952    2.3482   12.5052  H 0  0  0  1  0  1
   36.3302    0.7324   13.2192  H 0  0  0  1  0  1
   36.9397   -0.5428   14.3279  H 0  0  0  1  0  1
   37.0957   -0.4032   11.2766  H 0  0  0  1  0  1
   37.7724   -3.1309   13.7237  H 0  0  0  1  0  1
   37.4860   -5.2258   14.6426  H 0  0  0  1  0  1
   36.7257   -6.4269   13.5445  H 0  0  0  1  0  1
   35.7748   -5.7123   14.8905  H 0  0  0  1  0  1
   33.7027   -3.5260   11.0580  H 0  0  0  1  0  1
  1  2  1  0  0  1
  1  6  1  0  0  1
  2  3  1  0  0  1
  3  4  1  0  0  1
  4  5  1  0  0  1
  5  6  1  0  0  1
  6  7  1  0  0  2
  7  8  1  0  0  2
  8  9  1  0  0  1
  8 10  1  0  0  1
  9 13  1  0  0  1
 10 11  1  0  0  2
 10 12  1  0  0  1
 12 13  1  0  0  1
 13 14  1  0  0  2
 14 15  1  0  0  1
 14 21  1  0  0  1
 15 16  2  0  0  1
 16 17  1  0  0  2
 16 18  1  0  0  1
 18 19  2  0  0  2
 18 20  1  0  0  1
 20 21  1  0  0  1
 21 22  2  0  0  2
  1 23  1  0  0  2
  1 24  1  0  0  2
  2 25  1  0  0  2
  2 26  1  0  0  2
  3 27  1  0  0  2
  3 28  1  0  0  2
  4 29  1  0  0  2
  4 30  1  0  0  2
  5 31  1  0  0  2
  5 32  1  0  0  2
  6 33  1  0  0  2
  7 34  1  0  0  2
  7 35  1  0  0  2
  8 36  1  0  0  2
 10 37  1  0  0  2
 11 38  1  0  0  2
 12 39  1  0  0  2
 12 40  1  0  0  2
 13 41  1  0  0  2
 15 42  1  0  0  2
 17 43  1  0  0  2
 17 44  1  0  0  2
 17 45  1  0  0  2
 20 46  1  0  0  2
M  END
> <MOLECULAR_FORMULA>
C15H24N3O4

> <MOLECULAR_WEIGHT>
310.2

> <NUM_HB_ATOMS>
6  

> <NUM_ROTOR>
3  

> <XLOGP2>
-0.45

$$$$
