REMARK  6 active torsions:
REMARK  status: ('A' for Active; 'I' for Inactive)
REMARK    1  A    between atoms: P_1  and  O5_5 
REMARK    2  A    between atoms: O5_5  and  C5_6 
REMARK    3  A    between atoms: C5_6  and  C4_7 
REMARK    4  A    between atoms: C3_9  and  O3_10 
REMARK    5  A    between atoms: C2_11  and  O2_12 
REMARK    6  A    between atoms: C1_13  and  N9_14 
ROOT
ATOM      1  C4  MOL d          14.556  17.037   5.545  0.00  0.00     0.180 A 
ATOM      2  O4  MOL d          15.768  17.201   4.783  0.00  0.00    -0.353 OA
ATOM      3  C3  MOL d          14.377  18.382   6.303  0.00  0.00     0.182 A 
ATOM      4  C2  MOL d          15.537  19.245   5.895  0.00  0.00     0.198 A 
ATOM      5  C1  MOL d          16.347  18.502   4.867  0.00  0.00     0.262 A 
ENDROOT
BRANCH   5   6
ATOM      6  N9  MOL d          16.241  18.901   3.415  0.00  0.00    -0.293 N 
ATOM      7  C8  MOL d          15.709  18.392   2.266  0.00  0.00     0.214 A 
ATOM      8  N7  MOL d          15.876  19.114   1.188  0.00  0.00    -0.234 NA
ATOM      9  C5  MOL d          16.580  20.214   1.599  0.00  0.00     0.173 A 
ATOM     10  C6  MOL d          17.080  21.334   0.993  0.00  0.00     0.292 A 
ATOM     11  C4  MOL d          16.806  20.078   3.000  0.00  0.00     0.186 A 
ATOM     12  O6  MOL d          16.936  21.531  -0.232  0.00  0.00    -0.265 OA
ATOM     13  N1  MOL d          17.795  22.330   1.743  0.00  0.00    -0.152 N 
ATOM     14  C2  MOL d          18.017  22.199   3.142  0.00  0.00     0.703 A 
ATOM     15  H10 MOL d          18.146  23.137   1.268  0.00  0.00     0.187 HD
ATOM     16  N2  MOL d          18.675  23.120   3.829  0.00  0.00    -0.233 N 
ATOM     17  N3  MOL d          17.522  21.062   3.792  0.00  0.00    -0.044 NA
ATOM     18  H11 MOL d          18.822  23.000   4.841  0.00  0.00     0.174 HD
ATOM     19  H12 MOL d          19.040  23.956   3.351  0.00  0.00     0.174 HD
ENDBRANCH   5   6
BRANCH   4  20
ATOM     20  O2  MOL d          16.400  19.666   6.947  0.00  0.00    -0.388 OA
ATOM     21  H7  MOL d          16.774  18.904   7.373  0.00  0.00     0.210 HD
ENDBRANCH   4  20
BRANCH   1  22
ATOM     22  C5  MOL d          13.547  16.726   4.483  0.00  0.00     0.217 C 
BRANCH  22  23
ATOM     23  O5  MOL d          13.759  15.546   3.743  0.00  0.00    -0.280 OA
BRANCH  23  24
ATOM     24  P   MOL d          12.659  14.474   3.503  0.00  0.00     0.422 P 
ATOM     25  O1P MOL d          12.232  13.934   4.931  0.00  0.00    -0.617 OA
ATOM     26  O2P MOL d          13.178  13.379   2.665  0.00  0.00    -0.617 OA
ATOM     27  O3P MOL d          11.467  15.168   3.013  0.00  0.00    -0.617 OA
ENDBRANCH  23  24
ENDBRANCH  22  23
ENDBRANCH   1  22
BRANCH   3  28
ATOM     28  O3  MOL d          14.382  18.094   7.759  0.00  0.00    -0.390 OA
ATOM     29  H5  MOL d          15.208  17.690   7.998  0.00  0.00     0.210 HD
ENDBRANCH   3  28
TORSDOF 6
