REMARK  7 active torsions:
REMARK  status: ('A' for Active; 'I' for Inactive)
REMARK    1  A    between atoms: N4_4  and  S1_1 
REMARK    2  A    between atoms: C2_2  and  C5_5 
REMARK    3  A    between atoms: C7_7  and  C3_3 
REMARK       I    between atoms: C5_5  and  N12_12 
REMARK    4  A    between atoms: C11_11  and  N6_6 
REMARK       I    between atoms: N14_14  and  C7_7 
REMARK    5  A    between atoms: N12_12  and  C15_15 
REMARK    6  A    between atoms: C22_22  and  N14_14 
REMARK    7  A    between atoms: C26_26  and  O37_37 
ROOT
ATOM      1  C2  MOL d           8.993  66.494   2.659  0.00  0.00     0.111 C 
ATOM      2  C3  MOL d           9.705  66.995   3.952  0.00  0.00     0.111 C 
ATOM      3  N4  MOL d           8.948  68.853   2.660  0.00  0.00    -0.309 N 
ATOM      4  C8  MOL d           8.120  67.704   2.268  0.00  0.00     0.150 C 
ATOM      5  C9  MOL d           9.806  68.510   3.791  0.00  0.00     0.150 C 
ENDROOT
BRANCH   1   6
ATOM      6  C5  MOL d           8.171  65.249   2.920  0.00  0.00     0.229 C 
ATOM      7  N12 MOL d           8.761  64.062   2.747  0.00  0.00    -0.324 N 
ATOM      8  H7  MOL d           9.718  64.082   2.458  0.00  0.00     0.169 HD
ATOM      9  O23 MOL d           7.015  65.313   3.299  0.00  0.00    -0.273 OA
BRANCH   7  10
ATOM     10  C15 MOL d           8.188  62.781   2.925  0.00  0.00     0.073 A 
ATOM     11  C16 MOL d           8.512  61.855   1.957  0.00  0.00     0.145 A 
ATOM     12  C13 MOL d           8.055  60.551   2.003  0.00  0.00     0.074 A 
ATOM     13  F34 MOL d           9.315  62.261   0.950  0.00  0.00    -0.204 F 
ATOM     14  C11 MOL d           7.249  60.159   3.049  0.00  0.00     0.045 A 
ATOM     15  C28 MOL d           6.898  61.085   4.030  0.00  0.00     0.032 A 
ATOM     16  C29 MOL d           7.388  62.400   3.992  0.00  0.00     0.035 A 
BRANCH  14  17
ATOM     17  N6  MOL d           6.775  58.840   3.060  0.00  0.00    -0.290 N 
ATOM     18  C10 MOL d           5.815  58.486   2.187  0.00  0.00     0.252 A 
ATOM     19  C25 MOL d           5.313  57.170   2.188  0.00  0.00     0.075 A 
ATOM     20  O27 MOL d           5.353  59.322   1.420  0.00  0.00    -0.268 OA
ATOM     21  C31 MOL d           5.799  56.275   3.087  0.00  0.00     0.007 A 
ATOM     22  C30 MOL d           6.818  56.667   3.969  0.00  0.00     0.018 A 
ATOM     23  C21 MOL d           7.297  57.924   3.929  0.00  0.00     0.100 A 
ENDBRANCH  14  17
ENDBRANCH   7  10
ENDBRANCH   1   6
BRANCH   2  24
ATOM     24  C7  MOL d          11.063  66.359   4.022  0.00  0.00     0.228 C 
ATOM     25  N14 MOL d          11.647  66.174   5.203  0.00  0.00    -0.327 N 
ATOM     26  H9  MOL d          11.196  66.519   6.026  0.00  0.00     0.169 HD
ATOM     27  O24 MOL d          11.630  66.017   3.012  0.00  0.00    -0.273 OA
BRANCH  25  28
ATOM     28  C22 MOL d          12.868  65.515   5.328  0.00  0.00     0.037 A 
ATOM     29  C18 MOL d          13.571  65.033   4.212  0.00  0.00     0.074 A 
ATOM     30  C17 MOL d          14.754  64.334   4.428  0.00  0.00     0.151 A 
ATOM     31  C26 MOL d          15.185  64.092   5.728  0.00  0.00     0.106 A 
ATOM     32  F35 MOL d          15.493  63.857   3.384  0.00  0.00    -0.203 F 
ATOM     33  C32 MOL d          14.468  64.553   6.821  0.00  0.00     0.042 A 
ATOM     34  C36 MOL d          13.296  65.255   6.614  0.00  0.00     0.032 A 
BRANCH  31  35
ATOM     35  O37 MOL d          16.337  63.393   5.956  0.00  0.00    -0.353 OA
ATOM     36  C38 MOL d          16.457  62.747   7.215  0.00  0.00     0.210 C 
ENDBRANCH  31  35
ENDBRANCH  25  28
ENDBRANCH   2  24
BRANCH   3  37
ATOM     37  S1  MOL d           8.244  70.337   2.702  0.00  0.00     0.224 S 
ATOM     38  O19 MOL d           7.650  70.411   1.411  0.00  0.00    -0.206 OA
ATOM     39  O20 MOL d           9.324  71.187   3.076  0.00  0.00    -0.206 OA
ATOM     40  C33 MOL d           7.029  70.185   4.037  0.00  0.00     0.186 C 
ENDBRANCH   3  37
TORSDOF 7
