REMARK  6 active torsions:
REMARK  status: ('A' for Active; 'I' for Inactive)
REMARK    1  A    between atoms: C2_2  and  S10_10 
REMARK    2  A    between atoms: S10_10  and  C11_11 
REMARK    3  A    between atoms: C11_11  and  C12_12 
REMARK    4  A    between atoms: C12_12  and  C15_15 
REMARK    5  A    between atoms: C17_17  and  S21_21 
REMARK    6  A    between atoms: S21_21  and  N25_25 
ROOT
ATOM      1  C12 E38 d          -4.165   2.750  12.114  0.00  0.00     0.169 C 
ATOM      2  O13 E38 d          -4.632   3.346  11.077  0.00  0.00    -0.291 OA
ENDROOT
BRANCH   1   3
ATOM      3  C11 E38 d          -3.000   1.760  12.034  0.00  0.00     0.166 C 
BRANCH   3   4
ATOM      4  S10 E38 d          -1.617   2.179  10.866  0.00  0.00    -0.084 SA
BRANCH   4   5
ATOM      5  C2  E38 d          -1.194   3.784  11.527  0.00  0.00     0.167 A 
ATOM      6  N1  E38 d          -0.271   4.625  11.030  0.00  0.00    -0.333 N 
ATOM      7  C5  E38 d          -0.313   5.700  11.820  0.00  0.00     0.063 A 
ATOM      8  H1  E38 d           0.339   4.473  10.214  0.00  0.00     0.168 HD
ATOM      9  C4  E38 d          -1.288   5.504  12.780  0.00  0.00     0.087 A 
ATOM     10  C6  E38 d           0.466   6.874  11.748  0.00  0.00     0.033 A 
ATOM     11  N3  E38 d          -1.817   4.303  12.613  0.00  0.00    -0.223 NA
ATOM     12  C9  E38 d          -1.608   6.448  13.731  0.00  0.00     0.053 A 
ATOM     13  C8  E38 d          -0.823   7.576  13.676  0.00  0.00     0.013 A 
ATOM     14  C7  E38 d           0.204   7.852  12.721  0.00  0.00     0.021 A 
ATOM     15 BR14 E38 d          -1.297   8.770  15.077  0.00  0.00    -0.051 Br
ENDBRANCH   4   5
ENDBRANCH   3   4
ENDBRANCH   1   3
BRANCH   1  16
ATOM     16  C15 E38 d          -4.767   3.055  13.523  0.00  0.00     0.012 A 
ATOM     17  C16 E38 d          -5.000   1.987  14.421  0.00  0.00     0.042 A 
ATOM     18  C17 E38 d          -5.545   2.198  15.629  0.00  0.00     0.101 A 
ATOM     19  C18 E38 d          -5.972   3.466  16.013  0.00  0.00     0.057 A 
ATOM     20  C19 E38 d          -5.752   4.541  15.132  0.00  0.00     0.026 A 
ATOM     21 CL23 E38 d          -6.703   3.798  17.464  0.00  0.00    -0.083 Cl
ATOM     22  C20 E38 d          -5.190   4.326  13.926  0.00  0.00     0.017 A 
BRANCH  18  23
ATOM     23  S21 E38 d          -5.894   0.773  16.687  0.00  0.00     0.258 S 
ATOM     24  O22 E38 d          -7.393   0.687  16.694  0.00  0.00    -0.201 OA
ATOM     25  O24 E38 d          -5.265   1.042  17.969  0.00  0.00    -0.201 OA
BRANCH  23  26
ATOM     26  N25 E38 d          -5.285  -0.560  16.000  0.00  0.00    -0.324 N 
ATOM     27  H10 E38 d          -5.387  -1.446  16.452  0.00  0.00     0.169 HD
ATOM     28  H11 E38 d          -4.807  -0.497  15.124  0.00  0.00     0.169 HD
ENDBRANCH  23  26
ENDBRANCH  18  23
ENDBRANCH   1  16
TORSDOF 6
