REMARK  9 active torsions:
REMARK  status: ('A' for Active; 'I' for Inactive)
REMARK    1  A    between atoms: C2_2  and  O23_23 
REMARK    2  A    between atoms: C5_5  and  O24_24 
REMARK    3  A    between atoms: C6_6  and  O25_25 
REMARK    4  A    between atoms: C10_10  and  O28_28 
REMARK    5  A    between atoms: C11_11  and  O30_30 
REMARK    6  A    between atoms: C15_15  and  O33_33 
REMARK    7  A    between atoms: C16_16  and  O37_37 
REMARK    8  A    between atoms: C21_21  and  O40_40 
REMARK    9  A    between atoms: O33_33  and  C34_34 
REMARK       I    between atoms: C34_34  and  N36_36 
ROOT
ATOM      1  C1  GMY d         -25.834  34.500  -5.565  0.00  0.00     0.014 A 
ATOM      2  C2  GMY d         -26.065  34.258  -4.086  0.00  0.00     0.101 A 
ATOM      3  C3  GMY d         -25.640  32.955  -3.405  0.00  0.00     0.067 A 
ATOM      4  C4  GMY d         -24.903  31.852  -4.153  0.00  0.00     0.071 A 
ATOM      5  C5  GMY d         -24.680  32.052  -5.661  0.00  0.00     0.101 A 
ATOM      6  C6  GMY d         -25.139  33.351  -6.345  0.00  0.00     0.110 A 
ATOM      7  C7  GMY d         -26.286  35.837  -6.196  0.00  0.00     0.049 C 
ATOM      8  C8  GMY d         -25.180  36.905  -6.277  0.00  0.00    -0.012 C 
ATOM      9  C9  GMY d         -24.035  36.472  -7.214  0.00  0.00     0.039 C 
ATOM     10  C10 GMY d         -22.669  37.200  -7.093  0.00  0.00     0.150 C 
ATOM     11  C11 GMY d         -21.652  36.655  -8.148  0.00  0.00     0.150 C 
ATOM     12  C12 GMY d         -21.101  35.251  -7.835  0.00  0.00     0.013 C 
ATOM     13  C13 GMY d         -20.556  35.224  -6.403  0.00  0.00     0.013 C 
ATOM     14  C14 GMY d         -20.935  34.069  -5.478  0.00  0.00     0.014 C 
ATOM     15  C15 GMY d         -19.893  34.085  -4.355  0.00  0.00     0.166 C 
ATOM     16  C16 GMY d         -20.374  34.135  -2.889  0.00  0.00     0.150 C 
ATOM     17  C17 GMY d         -21.306  35.295  -2.669  0.00  0.00     0.034 C 
ATOM     18  C18 GMY d         -22.698  35.537  -2.179  0.00  0.00     0.003 C 
ATOM     19  C19 GMY d         -23.828  34.663  -1.764  0.00  0.00     0.009 C 
ATOM     20  C20 GMY d         -25.034  35.251  -1.024  0.00  0.00     0.030 C 
ATOM     21  C21 GMY d         -25.804  33.903  -0.923  0.00  0.00     0.221 C 
ATOM     22  N22 GMY d         -25.899  32.951  -1.992  0.00  0.00    -0.361 N 
ATOM     23  C27 GMY d         -24.633  37.229  -4.876  0.00  0.00     0.010 C 
ATOM     24  C31 GMY d         -19.932  34.997  -8.838  0.00  0.00     0.012 C 
ATOM     25  C32 GMY d         -21.223  32.706  -6.153  0.00  0.00     0.012 C 
ATOM     26  C39 GMY d         -24.626  35.939   0.296  0.00  0.00     0.014 C 
ATOM     27  H23 GMY d         -26.238  32.035  -1.664  0.00  0.00     0.162 HD
ENDROOT
BRANCH  15  28
ATOM     28  O33 GMY d         -19.015  33.021  -4.415  0.00  0.00    -0.296 OA
BRANCH  28  29
ATOM     29  C34 GMY d         -17.699  33.107  -4.815  0.00  0.00     0.358 C 
ATOM     30  O35 GMY d         -17.392  33.976  -5.570  0.00  0.00    -0.239 OA
ATOM     31  N36 GMY d         -16.978  31.853  -4.746  0.00  0.00    -0.346 N 
ATOM     32  H42 GMY d         -16.016  31.814  -5.016  0.00  0.00     0.161 HD
ATOM     33  H43 GMY d         -17.442  31.026  -4.428  0.00  0.00     0.161 HD
ENDBRANCH  28  29
ENDBRANCH  15  28
BRANCH  16  34
ATOM     34  O37 GMY d         -19.212  34.476  -2.163  0.00  0.00    -0.388 OA
ATOM     35  C38 GMY d         -19.240  34.678  -0.786  0.00  0.00     0.202 C 
ENDBRANCH  16  34
BRANCH  11  36
ATOM     36  O30 GMY d         -22.307  36.510  -9.387  0.00  0.00    -0.393 OA
ATOM     37  H35 GMY d         -22.677  37.345  -9.648  0.00  0.00     0.210 HD
ENDBRANCH  11  36
BRANCH  10  38
ATOM     38  O28 GMY d         -22.871  38.538  -7.510  0.00  0.00    -0.388 OA
ATOM     39  C29 GMY d         -21.981  39.591  -7.152  0.00  0.00     0.202 C 
ENDBRANCH  10  38
BRANCH  21  40
ATOM     40  O40 GMY d         -25.506  33.239   0.027  0.00  0.00    -0.377 OA
ATOM     41  H50 GMY d         -25.421  33.799   0.790  0.00  0.00     0.212 HD
ENDBRANCH  21  40
BRANCH   2  42
ATOM     42  O23 GMY d         -26.684  35.242  -3.322  0.00  0.00    -0.358 OA
ATOM     43  H24 GMY d         -26.889  35.987  -3.874  0.00  0.00     0.217 HD
ENDBRANCH   2  42
BRANCH   6  44
ATOM     44  O25 GMY d         -24.920  33.505  -7.695  0.00  0.00    -0.352 OA
ATOM     45  C26 GMY d         -26.086  33.600  -8.504  0.00  0.00     0.210 C 
ENDBRANCH   6  44
BRANCH   5  46
ATOM     46  O24 GMY d         -24.049  31.036  -6.388  0.00  0.00    -0.358 OA
ATOM     47  H25 GMY d         -23.838  30.316  -5.806  0.00  0.00     0.217 HD
ENDBRANCH   5  46
TORSDOF 9
