REMARK  6 active torsions:
REMARK  status: ('A' for Active; 'I' for Inactive)
REMARK    1  A    between atoms: C1'_21  and  N1_1 
REMARK    2  A    between atoms: O3'_18  and  P_9 
REMARK    3  A    between atoms: C5'_14  and  O5'_13 
REMARK    4  A    between atoms: C4'_15  and  C5'_14 
REMARK    5  A    between atoms: C3'_17  and  O3'_18 
REMARK    6  A    between atoms: C2'_19  and  O2'_20 
ROOT
ATOM      1  C4' U3P d          20.060   4.780  12.177  0.00  0.00     0.180 C 
ATOM      2  O4' U3P d          21.176   4.593  11.287  0.00  0.00    -0.353 OA
ATOM      3  C3' U3P d          20.570   4.661  13.606  0.00  0.00     0.199 C 
ATOM      4  C2' U3P d          22.074   4.418  13.478  0.00  0.00     0.199 C 
ATOM      5  C1' U3P d          22.218   4.013  12.013  0.00  0.00     0.264 C 
ENDROOT
BRANCH   5   6
ATOM      6  N1  U3P d          23.493   4.323  11.348  0.00  0.00    -0.280 N 
ATOM      7  C2  U3P d          24.336   3.266  11.082  0.00  0.00     0.331 A 
ATOM      8  N3  U3P d          25.478   3.613  10.406  0.00  0.00    -0.275 N 
ATOM      9  O2  U3P d          24.112   2.114  11.426  0.00  0.00    -0.246 OA
ATOM     10  C4  U3P d          25.846   4.879  10.000  0.00  0.00     0.250 A 
ATOM     11  H1  U3P d          26.110   2.870  10.184  0.00  0.00     0.173 HD
ATOM     12  C5  U3P d          24.927   5.908  10.350  0.00  0.00     0.092 A 
ATOM     13  O4  U3P d          26.866   5.023   9.340  0.00  0.00    -0.268 OA
ATOM     14  C6  U3P d          23.805   5.602  10.990  0.00  0.00     0.104 A 
ENDBRANCH   5   6
BRANCH   4  15
ATOM     15  O2' U3P d          22.627   3.457  14.329  0.00  0.00    -0.388 OA
ATOM     16  H10 U3P d          22.214   2.617  14.167  0.00  0.00     0.210 HD
ENDBRANCH   4  15
BRANCH   1  17
ATOM     17  C5' U3P d          19.433   6.126  11.904  0.00  0.00     0.198 C 
BRANCH  17  18
ATOM     18  O5' U3P d          20.397   7.169  12.177  0.00  0.00    -0.398 OA
ATOM     19  H4  U3P d          21.155   7.052  11.617  0.00  0.00     0.209 HD
ENDBRANCH  17  18
ENDBRANCH   1  17
BRANCH   3  20
ATOM     20  O3' U3P d          20.029   3.462  14.179  0.00  0.00    -0.272 OA
BRANCH  20  21
ATOM     21  P   U3P d          18.786   3.504  15.195  0.00  0.00     0.422 P 
ATOM     22  O1P U3P d          18.985   2.313  16.076  0.00  0.00    -0.617 OA
ATOM     23  O2P U3P d          17.521   3.640  14.419  0.00  0.00    -0.617 OA
ATOM     24  O3P U3P d          19.018   4.810  16.072  0.00  0.00    -0.617 OA
ENDBRANCH  20  21
ENDBRANCH   3  20
TORSDOF 6
