1n3z_ligand

Created by X-TOOL on Fri Sep 26 17:34:22 2014
 32 33  0  0  0  0  0  0  0  0999 V2000
   23.4930    4.3230   11.3480  N 0  0  0  1  0  3
   24.3360    3.2660   11.0820  C 0  0  0  1  0  3
   25.4780    3.6130   10.4060  N 0  0  0  2  0  3
   25.8460    4.8790   10.0000  C 0  0  0  1  0  3
   24.9270    5.9080   10.3500  C 0  0  0  2  0  3
   23.8050    5.6020   10.9900  C 0  0  0  2  0  3
   24.1120    2.1140   11.4260  O 0  0  0  1  0  1
   26.8660    5.0230    9.3400  O 0  0  0  1  0  1
   18.7860    3.5040   15.1950  P 0  0  0  1  0  4
   18.9850    2.3130   16.0760  O 0  0  0  1  0  1
   17.5210    3.6400   14.4190  O 0  0  0  1  0  1
   19.0180    4.8100   16.0720  O 0  0  0  1  0  1
   20.3970    7.1690   12.1770  O 0  0  0  2  0  2
   19.4330    6.1260   11.9040  C 0  0  0  3  0  4
   20.0600    4.7800   12.1770  C 0  0  0  2  0  4
   21.1760    4.5930   11.2870  O 0  0  0  1  0  2
   20.5700    4.6610   13.6060  C 0  0  0  2  0  4
   20.0290    3.4620   14.1790  O 0  0  0  1  0  2
   22.0740    4.4180   13.4780  C 0  0  0  2  0  4
   22.6270    3.4570   14.3290  O 0  0  0  2  0  2
   22.2180    4.0130   12.0130  C 0  0  0  2  0  4
   26.1100    2.8704   10.1843  H 0  0  0  1  0  1
   25.1438    6.9439   10.0934  H 0  0  0  1  0  1
   23.1081    6.4011   11.2384  H 0  0  0  1  0  1
   21.1554    7.0522   11.6170  H 0  0  0  1  0  1
   19.1230    6.1794   10.8500  H 0  0  0  1  0  1
   18.5542    6.2597   12.5519  H 0  0  0  1  0  1
   19.3092    3.9962   11.9985  H 0  0  0  1  0  1
   20.3329    5.5509   14.2075  H 0  0  0  1  0  1
   22.6061    5.3629   13.6625  H 0  0  0  1  0  1
   22.2138    2.6170   14.1672  H 0  0  0  1  0  1
   22.1009    2.9199   11.9747  H 0  0  0  1  0  1
  1  2  1  0  0  1
  1  6  1  0  0  1
 21  1  1  0  0  2
  2  3  1  0  0  1
  2  7  2  0  0  2
  3  4  1  0  0  1
  5  4  1  0  0  1
  4  8  2  0  0  2
  6  5  2  0  0  1
  9 10  2  0  0  2
  9 11  2  0  0  2
  9 12  2  0  0  2
 18  9  1  0  0  2
 14 13  1  0  0  2
 15 14  1  0  0  2
 15 16  1  0  0  1
 17 15  1  0  0  1
 16 21  1  0  0  1
 17 18  1  0  0  2
 17 19  1  0  0  1
 19 20  1  0  0  2
 19 21  1  0  0  1
  3 22  1  0  0  2
  5 23  1  0  0  2
  6 24  1  0  0  2
 13 25  1  0  0  2
 14 26  1  0  0  2
 14 27  1  0  0  2
 15 28  1  0  0  2
 17 29  1  0  0  2
 19 30  1  0  0  2
 20 31  1  0  0  2
 21 32  1  0  0  2
M  END
> <MOLECULAR_FORMULA>
C9H11N2O9P

> <MOLECULAR_WEIGHT>
322.1

> <NUM_HB_ATOMS>
10 

> <NUM_ROTOR>
3  

> <XLOGP2>
-3.38

$$$$
