REMARK  5 active torsions:
REMARK  status: ('A' for Active; 'I' for Inactive)
REMARK    1  A    between atoms: C1_1  and  C7_7 
REMARK    2  A    between atoms: C7_7  and  N1_8 
REMARK    3  A    between atoms: C8_12  and  C1'_13 
REMARK    4  A    between atoms: C5'_17  and  C1''_20 
REMARK    5  A    between atoms: C6'_18  and  O6'_19 
ROOT
ATOM      1  C1  MOL d           8.838   1.408  24.732  0.00  0.00     0.008 A 
ATOM      2  C2  MOL d           9.577   1.257  23.518  0.00  0.00     0.017 A 
ATOM      3  C3  MOL d          10.172   2.363  22.870  0.00  0.00     0.031 A 
ATOM      4  C4  MOL d          10.019   3.607  23.444  0.00  0.00     0.043 A 
ATOM      5  C5  MOL d           9.315   3.756  24.607  0.00  0.00    -0.006 A 
ATOM      6  C6  MOL d           8.716   2.696  25.272  0.00  0.00     0.029 A 
ATOM      7  N3  MOL d          10.473   4.783  23.082  0.00  0.00    -0.355 N 
ATOM      8  CN4 MOL d           9.353   5.068  24.946  0.00  0.00     0.044 A 
ATOM      9  C8  MOL d          10.097   5.697  23.954  0.00  0.00     0.046 A 
ATOM     10  H8  MOL d          11.039   4.965  22.241  0.00  0.00     0.166 HD
ENDROOT
BRANCH   9  11
ATOM     11  C1' MOL d          10.289   7.077  23.812  0.00  0.00     0.025 A 
ATOM     12  C2' MOL d           9.905   7.941  24.840  0.00  0.00     0.016 A 
ATOM     13  C3' MOL d          10.083   9.308  24.720  0.00  0.00     0.002 A 
ATOM     14  C4' MOL d          10.651   9.824  23.568  0.00  0.00     0.015 A 
ATOM     15  C5' MOL d          11.055   8.992  22.517  0.00  0.00     0.008 A 
ATOM     16  C6' MOL d          10.867   7.608  22.641  0.00  0.00     0.089 A 
BRANCH  15  17
ATOM     17  C1' MOL d          11.695   9.629  21.447  0.00  0.00    -0.023 A 
ATOM     18  C2' MOL d          12.914   9.154  20.983  0.00  0.00     0.012 A 
ATOM     19  C3' MOL d          13.614   9.838  19.982  0.00  0.00     0.001 A 
ATOM     20  C4' MOL d          13.084  10.998  19.447  0.00  0.00     0.000 A 
ATOM     21  C5' MOL d          11.865  11.459  19.910  0.00  0.00     0.001 A 
ATOM     22  C6' MOL d          11.179  10.787  20.892  0.00  0.00     0.012 A 
ENDBRANCH  15  17
BRANCH  16  23
ATOM     23  O6' MOL d          11.259   6.753  21.638  0.00  0.00    -0.359 OA
ATOM     24  H13 MOL d          11.057   5.859  21.889  0.00  0.00     0.217 HD
ENDBRANCH  16  23
ENDBRANCH   9  11
BRANCH   1  25
ATOM     25  C7  MOL d           8.246   0.311  25.405  0.00  0.00     0.102 C 
ATOM     26  N2  MOL d           8.068  -0.827  24.798  0.00  0.00    -0.385 N 
ATOM     27  H6  MOL d           8.358  -0.938  23.816  0.00  0.00     0.157 HD
ATOM     28  H7  MOL d           7.637  -1.617  25.300  0.00  0.00     0.157 HD
BRANCH  25  29
ATOM     29  N1  MOL d           7.869   0.423  26.650  0.00  0.00    -0.385 N 
ATOM     30  H4  MOL d           7.439  -0.379  27.132  0.00  0.00     0.157 HD
ATOM     31  H5  MOL d           8.001   1.314  27.150  0.00  0.00     0.157 HD
ENDBRANCH  25  29
ENDBRANCH   1  25
TORSDOF 5
