REMARK  11 active torsions:
REMARK  status: ('A' for Active; 'I' for Inactive)
REMARK    1  A    between atoms: N3B_8  and  PG_1 
REMARK    2  A    between atoms: PB_5  and  N3B_8 
REMARK    3  A    between atoms: O3A_12  and  PB_5 
REMARK    4  A    between atoms: PA_9  and  O3A_12 
REMARK    5  A    between atoms: PA_9  and  O5'_13 
REMARK    6  A    between atoms: O5'_13  and  C5'_14 
REMARK    7  A    between atoms: C5'_14  and  C4'_15 
REMARK    8  A    between atoms: C3'_17  and  O3'_18 
REMARK    9  A    between atoms: C2'_19  and  O2'_20 
REMARK   10  A    between atoms: C1'_21  and  N9_22 
REMARK   11  A    between atoms: C6_26  and  N6_27 
ROOT
ATOM      1  C4' ANP d           0.162   2.437  11.453  0.00  0.00     0.180 C 
ATOM      2  O4' ANP d           1.072   1.314  11.518  0.00  0.00    -0.353 OA
ATOM      3  C3' ANP d           0.110   2.987  12.895  0.00  0.00     0.182 C 
ATOM      4  C2' ANP d           0.170   1.682  13.725  0.00  0.00     0.198 C 
ATOM      5  C1' ANP d           1.156   0.820  12.881  0.00  0.00     0.262 C 
ENDROOT
BRANCH   1   6
ATOM      6  C5' ANP d           0.680   3.468  10.446  0.00  0.00     0.216 C 
BRANCH   6   7
ATOM      7  O5' ANP d           2.027   3.853  10.763  0.00  0.00    -0.287 OA
BRANCH   7   8
ATOM      8  PA  ANP d           2.454   5.399  10.884  0.00  0.00     0.417 P 
ATOM      9  O1A ANP d           3.769   5.572  11.689  0.00  0.00    -0.624 OA
ATOM     10  O2A ANP d           1.324   6.193  11.591  0.00  0.00    -0.624 OA
BRANCH   8  11
ATOM     11  O3A ANP d           2.622   5.951   9.377  0.00  0.00    -0.186 OA
BRANCH  11  12
ATOM     12  PB  ANP d           1.787   7.015   8.497  0.00  0.00     0.379 P 
ATOM     13  O1B ANP d           2.681   7.438   7.305  0.00  0.00    -0.629 OA
ATOM     14  O2B ANP d           1.501   8.256   9.381  0.00  0.00    -0.629 OA
BRANCH  12  15
ATOM     15  N3B ANP d           0.367   6.288   7.932  0.00  0.00    -0.218 N 
ATOM     16  H1  ANP d           0.395   5.551   7.257  0.00  0.00     0.179 HD
BRANCH  15  17
ATOM     17  PG  ANP d          -1.103   6.857   8.553  0.00  0.00     0.381 P 
ATOM     18  O1G ANP d          -1.131   6.856  10.119  0.00  0.00    -0.622 OA
ATOM     19  O2G ANP d          -1.384   8.312   8.027  0.00  0.00    -0.622 OA
ATOM     20  O3G ANP d          -2.263   5.909   8.081  0.00  0.00    -0.622 OA
ENDBRANCH  15  17
ENDBRANCH  12  15
ENDBRANCH  11  12
ENDBRANCH   8  11
ENDBRANCH   7   8
ENDBRANCH   6   7
ENDBRANCH   1   6
BRANCH   3  21
ATOM     21  O3' ANP d          -1.088   3.727  13.131  0.00  0.00    -0.390 OA
ATOM     22  H6  ANP d          -1.840   3.162  12.997  0.00  0.00     0.210 HD
ENDBRANCH   3  21
BRANCH   5  23
ATOM     23  N9  ANP d           2.533   0.873  13.411  0.00  0.00    -0.294 N 
ATOM     24  C8  ANP d           3.555   1.697  13.016  0.00  0.00     0.214 A 
ATOM     25  N7  ANP d           4.628   1.484  13.745  0.00  0.00    -0.236 NA
ATOM     26  C5  ANP d           4.347   0.539  14.685  0.00  0.00     0.149 A 
ATOM     27  C6  ANP d           5.047  -0.075  15.757  0.00  0.00     0.155 A 
ATOM     28  C4  ANP d           3.002   0.158  14.485  0.00  0.00     0.167 A 
ATOM     29  N1  ANP d           4.404  -0.986  16.500  0.00  0.00    -0.222 NA
ATOM     30  C2  ANP d           3.141  -1.291  16.274  0.00  0.00     0.237 A 
ATOM     31  N3  ANP d           2.453  -0.766  15.289  0.00  0.00    -0.222 NA
BRANCH  27  32
ATOM     32  N6  ANP d           6.357   0.241  16.086  0.00  0.00    -0.382 N 
ATOM     33  H11 ANP d           6.819  -0.235  16.874  0.00  0.00     0.157 HD
ATOM     34  H12 ANP d           6.868   0.951  15.542  0.00  0.00     0.157 HD
ENDBRANCH  27  32
ENDBRANCH   5  23
BRANCH   4  35
ATOM     35  O2' ANP d          -1.126   1.061  13.774  0.00  0.00    -0.388 OA
ATOM     36  H8  ANP d          -1.746   1.657  14.177  0.00  0.00     0.210 HD
ENDBRANCH   4  35
TORSDOF 11
