REMARK  5 active torsions:
REMARK  status: ('A' for Active; 'I' for Inactive)
REMARK    1  A    between atoms: S1_3  and  O2_1 
REMARK    2  A    between atoms: CA3_6  and  S1_3 
REMARK    3  A    between atoms: CC2_17  and  CA6_9 
REMARK    4  A    between atoms: CC5_20  and  CB4_13 
REMARK    5  A    between atoms: CD6_26  and  CC4_19 
ROOT
ATOM      1  NC1 SB2 d          22.154   1.512 -19.618  0.00  0.00    -0.227 NA
ATOM      2  CC2 SB2 d          22.295   0.953 -18.415  0.00  0.00     0.139 A 
ATOM      3  NC3 SB2 d          22.819  -0.261 -18.579  0.00  0.00    -0.338 N 
ATOM      4  CC4 SB2 d          23.019  -0.490 -19.870  0.00  0.00     0.074 A 
ATOM      5  CC5 SB2 d          22.599   0.672 -20.562  0.00  0.00     0.097 A 
ATOM      6  H13 SB2 d          23.036  -0.921 -17.819  0.00  0.00     0.167 HD
ENDROOT
BRANCH   2   7
ATOM      7  CA6 SB2 d          21.905   1.496 -17.181  0.00  0.00     0.010 A 
ATOM      8  CA1 SB2 d          21.426   2.799 -17.084  0.00  0.00     0.017 A 
ATOM      9  CA2 SB2 d          21.022   3.317 -15.853  0.00  0.00     0.021 A 
ATOM     10  CA3 SB2 d          21.072   2.535 -14.711  0.00  0.00     0.015 A 
ATOM     11  CA4 SB2 d          21.529   1.226 -14.815  0.00  0.00     0.021 A 
ATOM     12  CA5 SB2 d          21.937   0.707 -16.039  0.00  0.00     0.017 A 
BRANCH  10  13
ATOM     13  S1  SB2 d          20.558   3.232 -13.137  0.00  0.00    -0.062 S 
ATOM     14  C1  SB2 d          20.206   1.905 -12.000  0.00  0.00     0.114 C 
BRANCH  13  15
ATOM     15  O2  SB2 d          19.339   4.046 -13.413  0.00  0.00    -0.337 OA
ATOM     16  H1  SB2 d          19.019   4.420 -12.601  0.00  0.00     0.227 HD
ENDBRANCH  13  15
ENDBRANCH  10  13
ENDBRANCH   2   7
BRANCH   5  17
ATOM     17  CB4 SB2 d          22.577   0.937 -21.959  0.00  0.00    -0.002 A 
ATOM     18  CB3 SB2 d          22.444  -0.075 -22.916  0.00  0.00     0.033 A 
ATOM     19  CB2 SB2 d          22.403   0.261 -24.266  0.00  0.00     0.117 A 
ATOM     20  NB1 SB2 d          22.474   1.514 -24.693  0.00  0.00    -0.273 NA
ATOM     21  CB6 SB2 d          22.578   2.516 -23.821  0.00  0.00     0.117 A 
ATOM     22  CB5 SB2 d          22.618   2.264 -22.434  0.00  0.00     0.033 A 
ENDBRANCH   5  17
BRANCH   4  23
ATOM     23  CD6 SB2 d          23.577  -1.690 -20.324  0.00  0.00    -0.007 A 
ATOM     24  CD1 SB2 d          23.039  -2.912 -19.866  0.00  0.00     0.017 A 
ATOM     25  CD2 SB2 d          23.609  -4.120 -20.272  0.00  0.00     0.043 A 
ATOM     26  CD3 SB2 d          24.738  -4.105 -21.108  0.00  0.00     0.116 A 
ATOM     27  CD4 SB2 d          25.277  -2.896 -21.539  0.00  0.00     0.043 A 
ATOM     28  FD3 SB2 d          25.321  -5.267 -21.523  0.00  0.00    -0.206 F 
ATOM     29  CD5 SB2 d          24.713  -1.692 -21.140  0.00  0.00     0.017 A 
ENDBRANCH   4  23
TORSDOF 5
