REMARK  8 active torsions:
REMARK  status: ('A' for Active; 'I' for Inactive)
REMARK       I    between atoms: C8_2  and  N1_3 
REMARK    1  A    between atoms: C8_2  and  C9_5 
REMARK    2  A    between atoms: N1_3  and  O6_4 
REMARK    3  A    between atoms: C9_5  and  C7_6 
REMARK    4  A    between atoms: C9_5  and  N2_8 
REMARK    5  A    between atoms: C7_6  and  O4_7 
REMARK    6  A    between atoms: N2_8  and  S1_9 
REMARK    7  A    between atoms: S1_9  and  C3_12 
REMARK    8  A    between atoms: C4_15  and  O5_18 
ROOT
ATOM      1  N2  HS3 d          -2.302  -5.673  -3.668  0.00  0.00    -0.299 N 
ATOM      2  H7  HS3 d          -2.805  -6.064  -2.897  0.00  0.00     0.173 HD
ENDROOT
BRANCH   1   3
ATOM      3  C9  HS3 d          -1.782  -4.241  -3.764  0.00  0.00     0.210 C 
BRANCH   3   4
ATOM      4  C8  HS3 d          -2.835  -3.260  -4.348  0.00  0.00     0.266 C 
ATOM      5  O3  HS3 d          -4.033  -3.139  -4.265  0.00  0.00    -0.269 OA
ATOM      6  N1  HS3 d          -2.117  -2.548  -5.230  0.00  0.00    -0.236 N 
ATOM      7  H1  HS3 d          -1.136  -2.703  -5.346  0.00  0.00     0.197 HD
BRANCH   6   8
ATOM      8  O6  HS3 d          -2.797  -1.577  -5.984  0.00  0.00    -0.287 OA
ATOM      9  H2  HS3 d          -3.481  -1.995  -6.494  0.00  0.00     0.244 HD
ENDBRANCH   6   8
ENDBRANCH   3   4
BRANCH   3  10
ATOM     10  C7  HS3 d          -1.361  -4.010  -2.477  0.00  0.00     0.199 C 
BRANCH  10  11
ATOM     11  O4  HS3 d          -2.524  -3.634  -1.698  0.00  0.00    -0.398 OA
ATOM     12  H6  HS3 d          -2.910  -2.849  -2.067  0.00  0.00     0.209 HD
ENDBRANCH  10  11
ENDBRANCH   3  10
ENDBRANCH   1   3
BRANCH   1  13
ATOM     13  S1  HS3 d          -1.900  -6.443  -5.023  0.00  0.00     0.259 S 
ATOM     14  O1  HS3 d          -1.831  -7.836  -4.669  0.00  0.00    -0.201 OA
ATOM     15  O2  HS3 d          -0.602  -5.987  -5.446  0.00  0.00    -0.201 OA
BRANCH  13  16
ATOM     16  C3  HS3 d          -2.950  -6.261  -6.242  0.00  0.00     0.079 A 
ATOM     17  C6  HS3 d          -4.098  -7.061  -6.313  0.00  0.00     0.028 A 
ATOM     18  C5  HS3 d          -5.009  -6.935  -7.365  0.00  0.00     0.038 A 
ATOM     19  C4  HS3 d          -4.776  -6.008  -8.388  0.00  0.00     0.068 A 
ATOM     20  C2  HS3 d          -3.630  -5.212  -8.330  0.00  0.00     0.038 A 
ATOM     21  C1  HS3 d          -2.721  -5.339  -7.274  0.00  0.00     0.028 A 
BRANCH  19  22
ATOM     22  O5  HS3 d          -5.641  -5.862  -9.451  0.00  0.00    -0.356 OA
ATOM     23  C10 HS3 d          -6.741  -6.742  -9.684  0.00  0.00     0.210 C 
ENDBRANCH  19  22
ENDBRANCH  13  16
ENDBRANCH   1  13
TORSDOF 8
