REMARK  8 active torsions:
REMARK  status: ('A' for Active; 'I' for Inactive)
REMARK    1  A    between atoms: OAR_2  and  CAX_3 
REMARK    2  A    between atoms: CAW_5  and  OAQ_6 
REMARK    3  A    between atoms: CAT_10  and  CAO_11 
REMARK    4  A    between atoms: CAO_11  and  CAN_12 
REMARK    5  A    between atoms: CAN_12  and  NAP_13 
REMARK       I    between atoms: NAP_13  and  CAS_14 
REMARK    6  A    between atoms: CAS_14  and  CAU_16 
REMARK    7  A    between atoms: CAV_21  and  SAY_22 
REMARK    8  A    between atoms: SAY_22  and  NAC_25 
ROOT
ATOM      1  NAP D7A d          18.578   7.596  13.608  0.00  0.00    -0.357 N 
ATOM      2  CAS D7A d          17.283   7.457  13.896  0.00  0.00     0.251 C 
ATOM      3  OAD D7A d          16.499   8.417  13.674  0.00  0.00    -0.268 OA
ATOM      4  H14 D7A d          19.200   6.822  13.727  0.00  0.00     0.162 HD
ENDROOT
BRANCH   1   5
ATOM      5  CAN D7A d          19.103   8.901  13.109  0.00  0.00     0.127 C 
BRANCH   5   6
ATOM      6  CAO D7A d          19.480   9.787  14.285  0.00  0.00     0.058 C 
BRANCH   6   7
ATOM      7  CAT D7A d          19.777  11.124  13.942  0.00  0.00    -0.054 A 
ATOM      8  CAM D7A d          20.668  11.888  14.678  0.00  0.00     0.046 A 
ATOM      9  CAX D7A d          20.848  13.233  14.374  0.00  0.00     0.102 A 
ATOM     10  CAW D7A d          20.152  13.875  13.347  0.00  0.00     0.101 A 
ATOM     11  CAL D7A d          19.277  13.110  12.600  0.00  0.00     0.040 A 
ATOM     12  CAG D7A d          19.112  11.771  12.898  0.00  0.00     0.010 A 
BRANCH   9  13
ATOM     13  OAR D7A d          21.692  14.042  15.016  0.00  0.00    -0.353 OA
ATOM     14  CAB D7A d          23.050  13.590  14.990  0.00  0.00     0.210 C 
ENDBRANCH   9  13
BRANCH  10  15
ATOM     15  OAQ D7A d          20.376  15.181  13.246  0.00  0.00    -0.353 OA
ATOM     16  CAA D7A d          20.321  15.780  11.958  0.00  0.00     0.210 C 
ENDBRANCH  10  15
ENDBRANCH   6   7
ENDBRANCH   5   6
ENDBRANCH   1   5
BRANCH   2  17
ATOM     17  CAU D7A d          16.784   6.269  14.500  0.00  0.00     0.032 A 
ATOM     18  CAI D7A d          15.448   6.174  14.823  0.00  0.00     0.018 A 
ATOM     19  CAK D7A d          14.959   5.050  15.488  0.00  0.00     0.026 A 
ATOM     20  CAV D7A d          15.771   3.994  15.827  0.00  0.00     0.079 A 
ATOM     21  CAJ D7A d          17.124   4.042  15.480  0.00  0.00     0.026 A 
ATOM     22  CAH D7A d          17.622   5.191  14.807  0.00  0.00     0.018 A 
BRANCH  20  23
ATOM     23  SAY D7A d          15.159   2.604  16.734  0.00  0.00     0.256 S 
ATOM     24  OAE D7A d          15.731   2.749  18.086  0.00  0.00    -0.201 OA
ATOM     25  OAF D7A d          13.711   2.677  16.638  0.00  0.00    -0.201 OA
BRANCH  23  26
ATOM     26  NAC D7A d          15.689   1.254  16.046  0.00  0.00    -0.324 N 
ATOM     27  H19 D7A d          15.438   0.365  16.430  0.00  0.00     0.169 HD
ATOM     28  H20 D7A d          16.270   1.302  15.233  0.00  0.00     0.169 HD
ENDBRANCH  23  26
ENDBRANCH  20  23
ENDBRANCH   2  17
TORSDOF 8
