REMARK  9 active torsions:
REMARK  status: ('A' for Active; 'I' for Inactive)
REMARK    1  A    between atoms: C2_2  and  C1_1 
REMARK       I    between atoms: N1_8  and  C2_2 
REMARK    2  A    between atoms: N2_9  and  C3_3 
REMARK    3  A    between atoms: C3_3  and  N3_10 
REMARK    4  A    between atoms: C4_4  and  C6_6 
REMARK    5  A    between atoms: C6_6  and  C7_7 
REMARK    6  A    between atoms: C7_7  and  C9_11 
REMARK    7  A    between atoms: N1_8  and  N2_9 
REMARK    8  A    between atoms: C9_11  and  C11_17 
REMARK    9  A    between atoms: C11_17  and  C12_18 
ROOT
ATOM      1  C1  MOL d           5.876   6.757  13.336  0.00  0.00     0.146 A 
ATOM      2  C4  MOL d           4.232   6.199  14.535  0.00  0.00     0.129 A 
ATOM      3  C5  MOL d           6.408   6.458  14.596  0.00  0.00     0.046 A 
ATOM      4  C8  MOL d           5.326   6.096  15.381  0.00  0.00     0.050 A 
ATOM      5  O1  MOL d           4.519   6.615  13.266  0.00  0.00    -0.296 OA
ENDROOT
BRANCH   1   6
ATOM      6  C2  MOL d           6.469   7.201  12.047  0.00  0.00     0.293 C 
ATOM      7  N1  MOL d           7.487   8.056  12.058  0.00  0.00    -0.262 N 
ATOM      8  H2  MOL d           7.674   8.606  12.872  0.00  0.00     0.190 HD
ATOM      9  O2  MOL d           6.000   6.763  11.004  0.00  0.00    -0.264 OA
BRANCH   7  10
ATOM     10  N2  MOL d           8.301   8.181  10.913  0.00  0.00    -0.274 N 
ATOM     11  H3  MOL d           7.995   7.825  10.030  0.00  0.00     0.189 HD
BRANCH  10  12
ATOM     12  C3  MOL d           9.481   8.780  11.027  0.00  0.00     0.186 C 
ATOM     13  S1  MOL d           9.977   9.096  12.494  0.00  0.00    -0.040 SA
BRANCH  12  14
ATOM     14  N3  MOL d          10.187   9.126   9.928  0.00  0.00    -0.370 N 
ATOM     15  C10 MOL d          10.816   8.215   8.979  0.00  0.00     0.148 C 
ATOM     16  H4  MOL d          10.288  10.104   9.748  0.00  0.00     0.161 HD
ENDBRANCH  12  14
ENDBRANCH  10  12
ENDBRANCH   7  10
ENDBRANCH   1   6
BRANCH   2  17
ATOM     17  C6  MOL d           2.972   5.981  14.850  0.00  0.00    -0.041 C 
BRANCH  17  18
ATOM     18  C7  MOL d           1.831   5.898  15.243  0.00  0.00    -0.099 C 
BRANCH  18  19
ATOM     19  C9  MOL d           0.423   6.007  15.579  0.00  0.00     0.094 C 
BRANCH  19  20
ATOM     20  C11 MOL d          -0.292   6.971  14.657  0.00  0.00     0.012 C 
BRANCH  20  21
ATOM     21  C12 MOL d          -1.191   6.201  13.700  0.00  0.00    -0.004 C 
ATOM     22  C13 MOL d          -2.554   6.850  13.545  0.00  0.00     0.005 C 
ENDBRANCH  20  21
ENDBRANCH  19  20
ENDBRANCH  18  19
ENDBRANCH  17  18
ENDBRANCH   2  17
TORSDOF 9
