REMARK  7 active torsions:
REMARK  status: ('A' for Active; 'I' for Inactive)
REMARK    1  A    between atoms: C1_1  and  O11_7 
REMARK    2  A    between atoms: O11_7  and  C12_8 
REMARK    3  A    between atoms: C15_11  and  S22_14 
REMARK    4  A    between atoms: S22_14  and  C25_17 
REMARK    5  A    between atoms: C25_17  and  C39_23 
REMARK    6  A    between atoms: C39_23  and  C40_24 
REMARK       I    between atoms: C40_24  and  N43_25 
REMARK    7  A    between atoms: N43_25  and  O45_27 
ROOT
ATOM      1  S22 MOL d          -5.613  28.162  56.725  0.00  0.00     0.184 S 
ATOM      2  O23 MOL d          -5.652  27.161  57.745  0.00  0.00    -0.222 OA
ATOM      3  O24 MOL d          -6.449  29.307  56.908  0.00  0.00    -0.222 OA
ENDROOT
BRANCH   1   4
ATOM      4  C15 MOL d          -6.183  27.446  55.196  0.00  0.00     0.060 A 
ATOM      5  C14 MOL d          -6.318  26.078  55.049  0.00  0.00     0.026 A 
ATOM      6  C13 MOL d          -6.849  25.571  53.877  0.00  0.00     0.039 A 
ATOM      7  C12 MOL d          -7.237  26.415  52.845  0.00  0.00     0.076 A 
ATOM      8  C17 MOL d          -7.027  27.794  52.974  0.00  0.00     0.039 A 
ATOM      9  C16 MOL d          -6.505  28.300  54.153  0.00  0.00     0.026 A 
BRANCH   7  10
ATOM     10  O11 MOL d          -7.870  25.780  51.778  0.00  0.00    -0.311 OA
BRANCH  10  11
ATOM     11  C1  MOL d          -8.205  26.453  50.617  0.00  0.00     0.076 A 
ATOM     12  C6  MOL d          -7.276  27.216  49.903  0.00  0.00     0.039 A 
ATOM     13  C5  MOL d          -7.642  27.799  48.701  0.00  0.00     0.026 A 
ATOM     14  C4  MOL d          -8.930  27.590  48.227  0.00  0.00     0.034 A 
ATOM     15  C3  MOL d          -9.881  26.844  48.925  0.00  0.00     0.026 A 
ATOM     16 CL4  MOL d          -9.332  28.241  46.692  0.00  0.00    -0.084 Cl
ATOM     17  C2  MOL d          -9.501  26.282  50.142  0.00  0.00     0.039 A 
ENDBRANCH  10  11
ENDBRANCH   7  10
ENDBRANCH   1   4
BRANCH   1  18
ATOM     18  C25 MOL d          -3.881  28.701  56.578  0.00  0.00     0.081 C 
ATOM     19  C30 MOL d          -3.724  29.582  55.311  0.00  0.00     0.052 C 
ATOM     20  C29 MOL d          -2.425  30.377  55.321  0.00  0.00     0.169 C 
ATOM     21  O28 MOL d          -2.413  31.206  56.475  0.00  0.00    -0.391 OA
ATOM     22  C27 MOL d          -2.398  30.527  57.713  0.00  0.00     0.169 C 
ATOM     23  C26 MOL d          -3.628  29.600  57.835  0.00  0.00     0.052 C 
BRANCH  18  24
ATOM     24  C39 MOL d          -2.913  27.470  56.605  0.00  0.00     0.131 C 
BRANCH  24  25
ATOM     25  C40 MOL d          -2.823  26.531  55.382  0.00  0.00     0.242 C 
ATOM     26  O44 MOL d          -2.597  26.903  54.227  0.00  0.00    -0.271 OA
ATOM     27  N43 MOL d          -2.944  25.231  55.616  0.00  0.00    -0.237 N 
ATOM     28  H19 MOL d          -3.281  24.873  56.487  0.00  0.00     0.197 HD
BRANCH  27  29
ATOM     29  O45 MOL d          -2.566  24.395  54.557  0.00  0.00    -0.287 OA
ATOM     30  H20 MOL d          -3.105  24.584  53.798  0.00  0.00     0.244 HD
ENDBRANCH  27  29
ENDBRANCH  24  25
ENDBRANCH  18  24
ENDBRANCH   1  18
TORSDOF 7
