REMARK  8 active torsions:
REMARK  status: ('A' for Active; 'I' for Inactive)
REMARK       I    between atoms: CAG_2  and  NAI_4 
REMARK    1  A    between atoms: NAI_4  and  CAB_5 
REMARK    2  A    between atoms: CAC_6  and  OAJ_7 
REMARK    3  A    between atoms: CAD_8  and  OAK_9 
REMARK    4  A    between atoms: CAE_10  and  CAF_11 
REMARK    5  A    between atoms: CAF_11  and  OAM_12 
REMARK    6  A    between atoms: NAY_15  and  OAQ_16 
REMARK    7  A    between atoms: OAQ_16  and  CAP_17 
REMARK       I    between atoms: CAP_17  and  NAO_19 
REMARK    8  A    between atoms: NAO_19  and  CAS_20 
ROOT
ATOM      1  CAB OAN d           4.197  -8.900  10.312  0.00  0.00     0.194 C 
ATOM      2  CAC OAN d           3.129  -7.799  10.301  0.00  0.00     0.180 C 
ATOM      3  CAD OAN d           2.420  -7.766   8.944  0.00  0.00     0.180 C 
ATOM      4  CAE OAN d           1.742  -9.100   8.620  0.00  0.00     0.185 C 
ATOM      5  OAL OAN d           2.636 -10.226   8.711  0.00  0.00    -0.324 OA
ATOM      6  CAA OAN d           3.733 -10.156   9.643  0.00  0.00     0.194 C 
ATOM      7  NAY OAN d           4.376 -11.208   9.889  0.00  0.00    -0.100 NA
ENDROOT
BRANCH   1   8
ATOM      8  NAI OAN d           4.565  -9.131  11.714  0.00  0.00    -0.347 N 
ATOM      9  CAG OAN d           5.773  -8.762  12.144  0.00  0.00     0.214 C 
ATOM     10  CAH OAN d           6.076  -9.038  13.588  0.00  0.00     0.117 C 
ATOM     11  OAN OAN d           6.590  -8.225  11.409  0.00  0.00    -0.274 OA
ATOM     12  H4  OAN d           3.916  -9.561  12.341  0.00  0.00     0.163 HD
ENDBRANCH   1   8
BRANCH   7  13
ATOM     13  OAQ OAN d           3.944 -12.330   9.275  0.00  0.00    -0.153 OA
BRANCH  13  14
ATOM     14  CAP OAN d           4.730 -13.528   9.440  0.00  0.00     0.389 C 
ATOM     15  OAR OAN d           5.645 -13.465  10.252  0.00  0.00    -0.236 OA
ATOM     16  NAO OAN d           4.373 -14.586   8.707  0.00  0.00    -0.301 N 
ATOM     17  H14 OAN d           3.586 -14.461   8.103  0.00  0.00     0.171 HD
BRANCH  16  18
ATOM     18  CAS OAN d           4.976 -15.854   8.688  0.00  0.00     0.036 A 
ATOM     19  CAT OAN d           6.103 -16.160   9.452  0.00  0.00     0.029 A 
ATOM     20  CAU OAN d           6.652 -17.433   9.391  0.00  0.00     0.002 A 
ATOM     21  CAV OAN d           6.097 -18.399   8.562  0.00  0.00     0.000 A 
ATOM     22  CAW OAN d           4.972 -18.106   7.793  0.00  0.00     0.002 A 
ATOM     23  CAX OAN d           4.418 -16.827   7.861  0.00  0.00     0.029 A 
ENDBRANCH  16  18
ENDBRANCH  13  14
ENDBRANCH   7  13
BRANCH   2  24
ATOM     24  OAJ OAN d           3.798  -6.557  10.582  0.00  0.00    -0.390 OA
ATOM     25  H7  OAN d           3.163  -5.850  10.583  0.00  0.00     0.210 HD
ENDBRANCH   2  24
BRANCH   4  26
ATOM     26  CAF OAN d           1.252  -9.070   7.183  0.00  0.00     0.199 C 
BRANCH  26  27
ATOM     27  OAM OAN d           2.077  -9.154   6.271  0.00  0.00    -0.398 OA
ATOM     28  H13 OAN d           2.549  -9.975   6.347  0.00  0.00     0.209 HD
ENDBRANCH  26  27
ENDBRANCH   4  26
BRANCH   3  29
ATOM     29  OAK OAN d           1.454  -6.700   8.915  0.00  0.00    -0.390 OA
ATOM     30  H9  OAN d           1.895  -5.871   9.057  0.00  0.00     0.210 HD
ENDBRANCH   3  29
TORSDOF 8
