REMARK  6 active torsions:
REMARK  status: ('A' for Active; 'I' for Inactive)
REMARK    1  A    between atoms: O5_1  and  C5_2 
REMARK    2  A    between atoms: C5_2  and  C4_3 
REMARK    3  A    between atoms: C3_5  and  O3_6 
REMARK    4  A    between atoms: C2_7  and  O2_8 
REMARK    5  A    between atoms: C1_9  and  N9_10 
REMARK    6  A    between atoms: C2_17  and  N2_18 
ROOT
ATOM      1  N9  GMP d           1.381 -79.358-144.899  0.00  0.00    -0.293 N 
ATOM      2  C8  GMP d           0.373 -78.600-144.346  0.00  0.00     0.214 A 
ATOM      3  N7  GMP d          -0.143 -79.127-143.274  0.00  0.00    -0.234 NA
ATOM      4  C5  GMP d           0.557 -80.314-143.091  0.00  0.00     0.173 A 
ATOM      5  C6  GMP d           0.425 -81.313-142.076  0.00  0.00     0.292 A 
ATOM      6  O6  GMP d          -0.362 -81.344-141.116  0.00  0.00    -0.265 OA
ATOM      7  N1  GMP d           1.325 -82.354-142.261  0.00  0.00    -0.152 N 
ATOM      8  C2  GMP d           2.238 -82.432-143.277  0.00  0.00     0.703 A 
ATOM      9  N3  GMP d           2.379 -81.509-144.234  0.00  0.00    -0.044 NA
ATOM     10  C4  GMP d           1.509 -80.481-144.079  0.00  0.00     0.186 A 
ATOM     11  H11 GMP d           1.304 -83.105-141.601  0.00  0.00     0.187 HD
ENDROOT
BRANCH   1  12
ATOM     12  C1  GMP d           2.136 -78.968-146.138  0.00  0.00     0.262 C 
ATOM     13  O4  GMP d           1.297 -78.890-147.307  0.00  0.00    -0.353 OA
ATOM     14  C4  GMP d           1.331 -80.202-147.978  0.00  0.00     0.179 C 
ATOM     15  C3  GMP d           2.763 -80.677-147.767  0.00  0.00     0.182 C 
ATOM     16  C2  GMP d           3.317 -79.905-146.545  0.00  0.00     0.198 C 
BRANCH  14  17
ATOM     17  C5  GMP d           0.292 -81.207-147.480  0.00  0.00     0.198 C 
BRANCH  17  18
ATOM     18  O5  GMP d          -0.944 -80.580-147.766  0.00  0.00    -0.398 OA
ATOM     19  H1  GMP d          -0.992 -79.752-147.303  0.00  0.00     0.209 HD
ENDBRANCH  17  18
ENDBRANCH  14  17
BRANCH  15  20
ATOM     20  O3  GMP d           3.469 -80.325-148.991  0.00  0.00    -0.390 OA
ATOM     21  H6  GMP d           4.376 -80.598-148.922  0.00  0.00     0.210 HD
ENDBRANCH  15  20
BRANCH  16  22
ATOM     22  O2  GMP d           4.584 -79.270-146.752  0.00  0.00    -0.388 OA
ATOM     23  H8  GMP d           4.510 -78.641-147.460  0.00  0.00     0.210 HD
ENDBRANCH  16  22
ENDBRANCH   1  12
BRANCH   8  24
ATOM     24  N2  GMP d           3.013 -83.529-143.271  0.00  0.00    -0.233 N 
ATOM     25  H12 GMP d           3.725 -83.661-144.004  0.00  0.00     0.174 HD
ATOM     26  H13 GMP d           2.895 -84.239-142.534  0.00  0.00     0.174 HD
ENDBRANCH   8  24
TORSDOF 6
