REMARK  6 active torsions:
REMARK  status: ('A' for Active; 'I' for Inactive)
REMARK    1  A    between atoms: C10_2  and  C11_3 
REMARK    2  A    between atoms: C10_2  and  C9_10 
REMARK    3  A    between atoms: C9_10  and  C5_11 
REMARK    4  A    between atoms: C8_14  and  O8_15 
REMARK    5  A    between atoms: C1_17  and  O1_18 
REMARK    6  A    between atoms: C2_21  and  O2_22 
ROOT
ATOM      1  C5  HN3 d          29.407  65.171   8.264  0.00  0.00     0.196 C 
ATOM      2  C6  HN3 d          29.192  65.048   6.748  0.00  0.00     0.036 C 
ATOM      3  C7  HN3 d          29.685  66.306   6.017  0.00  0.00     0.036 C 
ATOM      4  C8  HN3 d          31.166  66.564   6.325  0.00  0.00     0.151 C 
ATOM      5  C8A HN3 d          31.395  66.640   7.831  0.00  0.00     0.248 C 
ATOM      6  C1  HN3 d          32.847  66.687   8.316  0.00  0.00     0.181 C 
ATOM      7  N4  HN3 d          30.860  65.426   8.482  0.00  0.00    -0.055 N 
ATOM      8  C3  HN3 d          31.307  65.585   9.894  0.00  0.00     0.270 C 
ATOM      9  C2  HN3 d          32.744  66.119   9.733  0.00  0.00     0.174 C 
ATOM     10  H20 HN3 d          31.335  64.626   8.095  0.00  0.00     0.281 HD
ENDROOT
BRANCH   1  11
ATOM     11  C9  HN3 d          28.451  66.202   8.899  0.00  0.00     0.117 C 
BRANCH  11  12
ATOM     12  C10 HN3 d          26.993  65.767   8.929  0.00  0.00     0.161 C 
ATOM     13  O10 HN3 d          26.620  64.743   8.360  0.00  0.00    -0.292 OA
BRANCH  12  14
ATOM     14  C11 HN3 d          25.987  66.623   9.677  0.00  0.00     0.010 A 
ATOM     15  C16 HN3 d          24.630  66.266   9.676  0.00  0.00     0.015 A 
ATOM     16  C15 HN3 d          23.684  67.041  10.369  0.00  0.00     0.007 A 
ATOM     17  C14 HN3 d          24.085  68.192  11.051  0.00  0.00    -0.062 A 
ATOM     18  C17 HN3 d          23.087  69.048  11.807  0.00  0.00     0.048 C 
ATOM     19  C13 HN3 d          25.432  68.547  11.065  0.00  0.00     0.007 A 
ATOM     20  C12 HN3 d          26.382  67.762  10.384  0.00  0.00     0.015 A 
ENDBRANCH  12  14
ENDBRANCH  11  12
ENDBRANCH   1  11
BRANCH   4  21
ATOM     21  O8  HN3 d          31.561  67.800   5.742  0.00  0.00    -0.393 OA
ATOM     22  H16 HN3 d          32.478  67.960   5.933  0.00  0.00     0.210 HD
ENDBRANCH   4  21
BRANCH   6  23
ATOM     23  O1  HN3 d          33.755  65.878   7.532  0.00  0.00    -0.391 OA
ATOM     24  H19 HN3 d          33.477  64.970   7.564  0.00  0.00     0.210 HD
ENDBRANCH   6  23
BRANCH   9  25
ATOM     25  O2  HN3 d          33.673  65.042   9.900  0.00  0.00    -0.391 OA
ATOM     26  H24 HN3 d          33.506  64.376   9.243  0.00  0.00     0.210 HD
ENDBRANCH   9  25
TORSDOF 6
