REMARK  14 active torsions:
REMARK  status: ('A' for Active; 'I' for Inactive)
REMARK       I    between atoms: N1_26  and  C3_3 
REMARK    1  A    between atoms: C3_3  and  O1_29 
REMARK    2  A    between atoms: O1_29  and  C4_4 
REMARK    3  A    between atoms: C6_6  and  C5_5 
REMARK    4  A    between atoms: C5_5  and  C7_7 
REMARK    5  A    between atoms: C5_5  and  N1_26 
REMARK    6  A    between atoms: C14_14  and  C6_6 
REMARK    7  A    between atoms: C6_6  and  O3_31 
REMARK    8  A    between atoms: C7_7  and  C8_8 
REMARK    9  A    between atoms: N2_27  and  C14_14 
REMARK   10  A    between atoms: C15_15  and  C16_16 
REMARK   11  A    between atoms: N2_27  and  C15_15 
REMARK   12  A    between atoms: S1_35  and  C17_17 
REMARK   13  A    between atoms: C20_20  and  N3_28 
REMARK   14  A    between atoms: N2_27  and  S1_35 
ROOT
ATOM      1  C6  MOL d          15.642  23.767  18.087  0.00  0.00     0.160 C 
ENDROOT
BRANCH   1   2
ATOM      2  C5  MOL d          15.180  22.644  17.174  0.00  0.00     0.121 C 
BRANCH   2   3
ATOM      3  C7  MOL d          14.484  23.126  15.911  0.00  0.00     0.066 C 
BRANCH   3   4
ATOM      4  C8  MOL d          14.072  21.984  14.989  0.00  0.00    -0.056 A 
ATOM      5  C9  MOL d          12.798  21.477  14.983  0.00  0.00     0.007 A 
ATOM      6  C11 MOL d          12.452  20.380  14.227  0.00  0.00     0.001 A 
ATOM      7  C13 MOL d          13.411  19.810  13.431  0.00  0.00     0.000 A 
ATOM      8  C12 MOL d          14.694  20.290  13.376  0.00  0.00     0.001 A 
ATOM      9  C10 MOL d          15.022  21.371  14.158  0.00  0.00     0.007 A 
ENDBRANCH   3   4
ENDBRANCH   2   3
BRANCH   2  10
ATOM     10  N1  MOL d          14.278  21.745  17.901  0.00  0.00    -0.329 N 
ATOM     11  C3  MOL d          14.615  20.514  18.289  0.00  0.00     0.361 C 
ATOM     12  O2  MOL d          15.773  19.999  18.185  0.00  0.00    -0.238 OA
ATOM     13  H32 MOL d          13.359  22.073  18.118  0.00  0.00     0.165 HD
BRANCH  11  14
ATOM     14  O1  MOL d          13.575  19.888  18.863  0.00  0.00    -0.296 OA
BRANCH  14  15
ATOM     15  C4  MOL d          13.834  18.576  19.483  0.00  0.00     0.159 C 
ATOM     16  C1  MOL d          12.456  18.016  19.762  0.00  0.00     0.200 C 
ATOM     17  O6  MOL d          12.098  18.453  21.054  0.00  0.00    -0.389 OA
ATOM     18  C25 MOL d          13.297  18.311  21.845  0.00  0.00     0.170 C 
ATOM     19  C2  MOL d          14.429  18.720  20.876  0.00  0.00     0.061 C 
ENDBRANCH  14  15
ENDBRANCH  11  14
ENDBRANCH   2  10
ENDBRANCH   1   2
BRANCH   1  20
ATOM     20  C14 MOL d          16.759  24.669  17.575  0.00  0.00     0.169 C 
BRANCH  20  21
ATOM     21  N2  MOL d          18.069  24.006  17.520  0.00  0.00    -0.304 N 
BRANCH  21  22
ATOM     22  C15 MOL d          19.018  24.396  18.569  0.00  0.00     0.139 C 
BRANCH  22  23
ATOM     23  C16 MOL d          18.675  23.824  19.927  0.00  0.00    -0.004 C 
ATOM     24  C23 MOL d          18.600  22.294  19.920  0.00  0.00     0.011 C 
ATOM     25  C24 MOL d          19.684  24.286  20.988  0.00  0.00     0.011 C 
ENDBRANCH  22  23
ENDBRANCH  21  22
BRANCH  21  26
ATOM     26  S1  MOL d          18.707  23.685  16.052  0.00  0.00     0.260 S 
ATOM     27  O4  MOL d          17.606  23.401  15.160  0.00  0.00    -0.200 OA
ATOM     28  O5  MOL d          19.730  22.662  16.278  0.00  0.00    -0.200 OA
BRANCH  26  29
ATOM     29  C17 MOL d          19.507  25.086  15.393  0.00  0.00     0.079 A 
ATOM     30  C18 MOL d          18.737  26.001  14.650  0.00  0.00     0.027 A 
ATOM     31  C19 MOL d          19.268  27.161  14.174  0.00  0.00     0.030 A 
ATOM     32  C20 MOL d          20.605  27.455  14.374  0.00  0.00     0.025 A 
ATOM     33  C21 MOL d          21.403  26.573  15.128  0.00  0.00     0.030 A 
ATOM     34  C22 MOL d          20.855  25.377  15.660  0.00  0.00     0.027 A 
BRANCH  32  35
ATOM     35  N3  MOL d          21.108  28.690  14.009  0.00  0.00    -0.399 N 
ATOM     36  H33 MOL d          20.529  29.339  13.457  0.00  0.00     0.156 HD
ATOM     37  H34 MOL d          22.062  28.961  14.289  0.00  0.00     0.156 HD
ENDBRANCH  32  35
ENDBRANCH  26  29
ENDBRANCH  21  26
ENDBRANCH  20  21
ENDBRANCH   1  20
BRANCH   1  38
ATOM     38  O3  MOL d          14.472  24.560  18.423  0.00  0.00    -0.392 OA
ATOM     39  H35 MOL d          13.783  23.988  18.741  0.00  0.00     0.210 HD
ENDBRANCH   1  38
TORSDOF 14
