REMARK  9 active torsions:
REMARK  status: ('A' for Active; 'I' for Inactive)
REMARK    1  A    between atoms: C15_3  and  C12_19 
REMARK    2  A    between atoms: N16_21  and  C15_3 
REMARK    3  A    between atoms: C22_6  and  C25_26 
REMARK    4  A    between atoms: C03_11  and  C02_10 
REMARK    5  A    between atoms: C09_17  and  C07_15 
REMARK    6  A    between atoms: C18_23  and  N16_21 
REMARK    7  A    between atoms: C18_23  and  C19_24 
REMARK    8  A    between atoms: C27_27  and  C38_38 
REMARK    9  A    between atoms: N29_29  and  C30_30 
ROOT
ATOM      1  C20 MOL d          -1.132  12.284   1.814  0.00  0.00     0.010 A 
ATOM      2  fur MOL d          -2.360  11.878   1.280  0.00  0.00     0.014 A 
ATOM      3  C22 MOL d          -2.411  11.400  -0.037  0.00  0.00    -0.007 A 
ATOM      4  C24 MOL d          -0.025  11.764  -0.304  0.00  0.00     0.010 A 
ATOM      5  C19 MOL d           0.021  12.238   1.032  0.00  0.00    -0.041 A 
ATOM      6  C23 MOL d          -1.253  11.355  -0.839  0.00  0.00     0.014 A 
ENDROOT
BRANCH   5   7
ATOM      7  C18 MOL d           1.283  12.686   1.637  0.00  0.00     0.159 C 
BRANCH   7   8
ATOM      8  N16 MOL d           2.470  11.842   1.339  0.00  0.00    -0.376 N 
ATOM      9  H   MOL d           2.984  11.893   0.482  0.00  0.00     0.160 HD
BRANCH   8  10
ATOM     10  C15 MOL d           2.799  10.951   2.406  0.00  0.00     0.107 C 
ATOM     11  S17 MOL d           1.889  10.752   3.785  0.00  0.00    -0.060 SA
BRANCH  10  12
ATOM     12  C12 MOL d           3.913   9.954   2.098  0.00  0.00     0.002 A 
ATOM     13  C13 MOL d           4.903   9.734   3.051  0.00  0.00     0.015 A 
ATOM     14  C14 MOL d           5.901   8.828   2.785  0.00  0.00     0.015 A 
ATOM     15  C09 MOL d           5.904   8.164   1.560  0.00  0.00    -0.002 A 
ATOM     16  C10 MOL d           4.920   8.367   0.620  0.00  0.00     0.015 A 
ATOM     17  C11 MOL d           3.900   9.288   0.894  0.00  0.00     0.015 A 
BRANCH  15  18
ATOM     18  C07 MOL d           6.964   7.183   1.267  0.00  0.00     0.086 A 
ATOM     19  C06 MOL d           8.118   6.870   2.030  0.00  0.00     0.041 A 
ATOM     20  C05 MOL d           8.779   5.827   1.266  0.00  0.00     0.047 A 
ATOM     21  C03 MOL d           7.952   5.631   0.146  0.00  0.00     0.152 A 
ATOM     22  O08 MOL d           6.901   6.429   0.201  0.00  0.00    -0.303 OA
BRANCH  21  23
ATOM     23  C02 MOL d           8.147   4.665  -0.989  0.00  0.00     0.234 C 
ATOM     24  O01 MOL d           9.149   3.927  -1.027  0.00  0.00    -0.642 OA
ATOM     25  O04 MOL d           7.247   4.648  -1.873  0.00  0.00    -0.642 OA
ENDBRANCH  21  23
ENDBRANCH  15  18
ENDBRANCH  10  12
ENDBRANCH   8  10
ENDBRANCH   7   8
ENDBRANCH   5   7
BRANCH   3  26
ATOM     26  C25 MOL d          -3.740  10.978  -0.633  0.00  0.00     0.071 A 
ATOM     27  C26 MOL d          -4.094  11.182  -1.970  0.00  0.00     0.073 A 
ATOM     28  C27 MOL d          -5.406  10.660  -2.062  0.00  0.00     0.156 A 
ATOM     29  N28 MOL d          -5.752  10.230  -0.886  0.00  0.00    -0.160 NA
ATOM     30  N29 MOL d          -4.779  10.428  -0.032  0.00  0.00    -0.233 N 
BRANCH  28  31
ATOM     31  C38 MOL d          -6.295  10.589  -3.306  0.00  0.00     0.230 C 
ATOM     32  O39 MOL d          -5.866  11.028  -4.434  0.00  0.00    -0.643 OA
ATOM     33  O40 MOL d          -7.446  10.065  -3.168  0.00  0.00    -0.643 OA
ENDBRANCH  28  31
BRANCH  30  34
ATOM     34  C30 MOL d          -4.868  10.052   1.318  0.00  0.00     0.060 A 
ATOM     35  C31 MOL d          -4.196   8.912   1.733  0.00  0.00     0.057 A 
ATOM     36  C32 MOL d          -4.281   8.520   3.055  0.00  0.00     0.058 A 
ATOM     37  C33 MOL d          -5.038   9.256   3.965  0.00  0.00     0.055 A 
ATOM     38 CL7  MOL d          -3.445   7.084   3.563  0.00  0.00    -0.082 Cl
ATOM     39  C34 MOL d          -5.714  10.405   3.538  0.00  0.00     0.028 A 
ATOM     40 CL6  MOL d          -5.135   8.759   5.608  0.00  0.00    -0.083 Cl
ATOM     41  C35 MOL d          -5.633  10.803   2.215  0.00  0.00     0.033 A 
ENDBRANCH  30  34
ENDBRANCH   3  26
TORSDOF 9
