REMARK  6 active torsions:
REMARK  status: ('A' for Active; 'I' for Inactive)
REMARK    1  A    between atoms: C3_3  and  N4_4 
REMARK    2  A    between atoms: C8_8  and  C9_9 
REMARK    3  A    between atoms: C9_9  and  C10_10 
REMARK    4  A    between atoms: C12_12  and  O13_13 
REMARK    5  A    between atoms: C15_15  and  O16_16 
REMARK    6  A    between atoms: C18_18  and  O19_19 
ROOT
ATOM      1  C9  TOP d          13.712   1.108  19.433  0.00  0.00     0.082 C 
ENDROOT
BRANCH   1   2
ATOM      2  C8  TOP d          14.877   1.952  19.984  0.00  0.00     0.010 A 
ATOM      3  C1  TOP d          14.658   2.698  21.101  0.00  0.00     0.147 A 
ATOM      4  N2  TOP d          15.681   3.455  21.649  0.00  0.00    -0.075 NA
ATOM      5  C3  TOP d          16.907   3.465  21.023  0.00  0.00     0.721 A 
ATOM      6  N5  TOP d          17.189   2.723  19.935  0.00  0.00    -0.045 NA
ATOM      7  C6  TOP d          16.215   1.947  19.426  0.00  0.00     0.148 A 
ATOM      8  N7  TOP d          16.531   1.274  18.330  0.00  0.00    -0.383 N 
ATOM      9  H4  TOP d          15.835   0.659  17.884  0.00  0.00     0.157 HD
ATOM     10  H5  TOP d          17.473   1.365  17.923  0.00  0.00     0.157 HD
BRANCH   5  11
ATOM     11  N4  TOP d          17.878   4.260  21.588  0.00  0.00    -0.231 N 
ATOM     12  H2  TOP d          17.660   4.827  22.420  0.00  0.00     0.174 HD
ATOM     13  H3  TOP d          18.823   4.288  21.179  0.00  0.00     0.174 HD
ENDBRANCH   5  11
ENDBRANCH   1   2
BRANCH   1  14
ATOM     14  C10 TOP d          12.844   1.909  18.467  0.00  0.00    -0.048 A 
ATOM     15  C11 TOP d          12.488   1.230  17.297  0.00  0.00     0.047 A 
ATOM     16  C12 TOP d          11.602   1.880  16.420  0.00  0.00     0.104 A 
ATOM     17  C15 TOP d          11.132   3.172  16.653  0.00  0.00     0.135 A 
ATOM     18  C18 TOP d          11.465   3.812  17.834  0.00  0.00     0.104 A 
ATOM     19  C21 TOP d          12.366   3.227  18.744  0.00  0.00     0.047 A 
BRANCH  16  20
ATOM     20  O13 TOP d          11.163   1.396  15.211  0.00  0.00    -0.353 OA
ATOM     21  C14 TOP d          11.421   0.023  14.983  0.00  0.00     0.210 C 
ENDBRANCH  16  20
BRANCH  17  22
ATOM     22  O16 TOP d          10.254   3.879  15.822  0.00  0.00    -0.351 OA
ATOM     23  C17 TOP d           8.906   3.391  15.854  0.00  0.00     0.210 C 
ENDBRANCH  17  22
BRANCH  18  24
ATOM     24  O19 TOP d          10.927   5.046  18.071  0.00  0.00    -0.353 OA
ATOM     25  C20 TOP d          11.299   5.726  19.239  0.00  0.00     0.210 C 
ENDBRANCH  18  24
ENDBRANCH   1  14
TORSDOF 6
