REMARK  21 active torsions:
REMARK  status: ('A' for Active; 'I' for Inactive)
REMARK    1  A    between atoms: C1_1  and  N47_32 
REMARK    2  A    between atoms: C2_2  and  O42_30 
REMARK    3  A    between atoms: O9_7  and  C4_4 
REMARK    4  A    between atoms: C10_8  and  O9_7 
REMARK    5  A    between atoms: C11_9  and  C10_8 
REMARK    6  A    between atoms: C14_10  and  C11_9 
REMARK    7  A    between atoms: C11_9  and  O71_48 
REMARK    8  A    between atoms: C40_28  and  C14_10 
REMARK    9  A    between atoms: C14_10  and  O75_50 
REMARK   10  A    between atoms: C15_11  and  C16_12 
REMARK   11  A    between atoms: C15_11  and  C40_28 
REMARK   12  A    between atoms: C15_11  and  O77_51 
REMARK   13  A    between atoms: C16_12  and  O17_13 
REMARK   14  A    between atoms: O17_13  and  C20_14 
REMARK   15  A    between atoms: C22_16  and  C29_20 
REMARK   16  A    between atoms: C33_24  and  C39_27 
REMARK   17  A    between atoms: C40_28  and  O74_49 
REMARK       I    between atoms: N47_32  and  C48_33 
REMARK   18  A    between atoms: C48_33  and  C49_34 
REMARK   19  A    between atoms: C49_34  and  S51_36 
REMARK   20  A    between atoms: S51_36  and  C54_37 
REMARK   21  A    between atoms: C57_40  and  C63_43 
ROOT
ATOM      1  C11 1E4 d          15.357  14.905  35.406  0.00  0.00     0.173 C 
ENDROOT
BRANCH   1   2
ATOM      2  C10 1E4 d          15.302  13.737  34.409  0.00  0.00     0.210 C 
BRANCH   2   3
ATOM      3  O9  1E4 d          15.392  14.160  33.081  0.00  0.00    -0.347 OA
BRANCH   3   4
ATOM      4  C4  1E4 d          15.137  13.250  32.028  0.00  0.00     0.093 A 
ATOM      5  C3  1E4 d          13.930  13.572  31.383  0.00  0.00     0.077 A 
ATOM      6  C2  1E4 d          13.438  12.820  30.282  0.00  0.00     0.097 A 
ATOM      7  C1  1E4 d          14.181  11.699  29.813  0.00  0.00     0.070 A 
ATOM      8  C6  1E4 d          15.401  11.351  30.446  0.00  0.00     0.059 A 
ATOM      9  C5  1E4 d          15.875  12.117  31.545  0.00  0.00     0.069 A 
ATOM     10 CL4  1E4 d          17.380  11.530  32.175  0.00  0.00    -0.081 Cl
BRANCH   6  11
ATOM     11  O42 1E4 d          12.226  13.120  29.608  0.00  0.00    -0.354 OA
ATOM     12  C43 1E4 d          11.286  13.933  30.317  0.00  0.00     0.210 C 
ENDBRANCH   6  11
BRANCH   7  13
ATOM     13  N47 1E4 d          13.685  10.969  28.737  0.00  0.00    -0.324 N 
ATOM     14  C48 1E4 d          14.454  10.437  27.742  0.00  0.00     0.231 C 
ATOM     15  O50 1E4 d          15.348   9.624  27.968  0.00  0.00    -0.272 OA
ATOM     16  H20 1E4 d          12.697  10.824  28.689  0.00  0.00     0.169 HD
BRANCH  14  17
ATOM     17  C49 1E4 d          13.788  10.478  26.369  0.00  0.00     0.184 C 
BRANCH  17  18
ATOM     18  S51 1E4 d          12.540   9.186  26.148  0.00  0.00    -0.101 SA
BRANCH  18  19
ATOM     19  C54 1E4 d          11.074  10.087  26.562  0.00  0.00     0.093 A 
ATOM     20  C55 1E4 d           9.835   9.419  26.551  0.00  0.00     0.040 A 
ATOM     21  C56 1E4 d           8.677  10.158  26.892  0.00  0.00     0.022 A 
ATOM     22  C57 1E4 d           8.785  11.528  27.231  0.00  0.00     0.058 A 
ATOM     23  C58 1E4 d          10.068  12.102  27.209  0.00  0.00     0.136 A 
ATOM     24  N59 1E4 d          11.189  11.399  26.883  0.00  0.00    -0.253 NA
BRANCH  22  25
ATOM     25  C63 1E4 d           7.610  12.334  27.595  0.00  0.00     0.210 C 
ATOM     26  O64 1E4 d           7.745  13.398  28.117  0.00  0.00    -0.644 OA
ATOM     27  O66 1E4 d           6.415  11.747  27.487  0.00  0.00    -0.644 OA
ENDBRANCH  22  25
ENDBRANCH  18  19
ENDBRANCH  17  18
ENDBRANCH  14  17
ENDBRANCH   7  13
ENDBRANCH   3   4
ENDBRANCH   2   3
ENDBRANCH   1   2
BRANCH   1  28
ATOM     28  C14 1E4 d          13.928  15.334  35.840  0.00  0.00     0.180 C 
BRANCH  28  29
ATOM     29  C40 1E4 d          13.835  16.445  36.951  0.00  0.00     0.180 C 
BRANCH  29  30
ATOM     30  C15 1E4 d          12.839  16.165  38.128  0.00  0.00     0.173 C 
BRANCH  30  31
ATOM     31  C16 1E4 d          13.298  15.252  39.279  0.00  0.00     0.210 C 
BRANCH  31  32
ATOM     32  O17 1E4 d          12.110  14.725  39.912  0.00  0.00    -0.348 OA
BRANCH  32  33
ATOM     33  C20 1E4 d          12.301  13.696  40.859  0.00  0.00     0.072 A 
ATOM     34  C21 1E4 d          11.785  13.871  42.183  0.00  0.00     0.050 A 
ATOM     35  C22 1E4 d          11.957  12.865  43.188  0.00  0.00    -0.002 A 
ATOM     36  C23 1E4 d          12.650  11.703  42.826  0.00  0.00     0.056 A 
ATOM     37  C24 1E4 d          13.148  11.539  41.534  0.00  0.00     0.119 A 
ATOM     38  C25 1E4 d          12.989  12.511  40.543  0.00  0.00     0.079 A 
ATOM     39  F30 1E4 d          13.809  10.426  41.231  0.00  0.00    -0.206 F 
BRANCH  35  40
ATOM     40  C29 1E4 d          11.480  12.990  44.601  0.00  0.00     0.067 A 
ATOM     41  C31 1E4 d          11.232  11.916  45.472  0.00  0.00     0.033 A 
ATOM     42  C32 1E4 d          10.810  12.161  46.797  0.00  0.00     0.022 A 
ATOM     43  C33 1E4 d          10.630  13.474  47.271  0.00  0.00     0.058 A 
ATOM     44  C34 1E4 d          10.886  14.517  46.366  0.00  0.00     0.135 A 
ATOM     45  N35 1E4 d          11.294  14.271  45.092  0.00  0.00    -0.259 NA
BRANCH  43  46
ATOM     46  C39 1E4 d          10.196  13.754  48.664  0.00  0.00     0.210 C 
ATOM     47  O65 1E4 d          10.467  14.778  49.212  0.00  0.00    -0.644 OA
ATOM     48  O67 1E4 d           9.581  12.763  49.309  0.00  0.00    -0.644 OA
ENDBRANCH  43  46
ENDBRANCH  35  40
ENDBRANCH  32  33
ENDBRANCH  31  32
ENDBRANCH  30  31
BRANCH  30  49
ATOM     49  O77 1E4 d          12.570  17.430  38.696  0.00  0.00    -0.391 OA
ATOM     50  H29 1E4 d          11.966  17.328  39.422  0.00  0.00     0.210 HD
ENDBRANCH  30  49
ENDBRANCH  29  30
BRANCH  29  51
ATOM     51  O74 1E4 d          15.138  16.856  37.310  0.00  0.00    -0.390 OA
ATOM     52  H27 1E4 d          15.652  16.996  36.524  0.00  0.00     0.210 HD
ENDBRANCH  29  51
ENDBRANCH  28  29
BRANCH  28  53
ATOM     53  O75 1E4 d          13.146  14.217  36.295  0.00  0.00    -0.390 OA
ATOM     54  H28 1E4 d          13.179  13.524  35.646  0.00  0.00     0.210 HD
ENDBRANCH  28  53
ENDBRANCH   1  28
BRANCH   1  55
ATOM     55  O71 1E4 d          16.096  15.951  34.781  0.00  0.00    -0.391 OA
ATOM     56  H26 1E4 d          16.187  16.678  35.386  0.00  0.00     0.210 HD
ENDBRANCH   1  55
TORSDOF 21
