3obx_ligand

Created by X-TOOL on Fri Sep 26 17:34:48 2014
124126  0  0  0  0  0  0  0  0999 V2000
   -6.5480    1.3440   -1.0740  N 0  3  0  3  0  4
   -5.6700    1.1370   -2.2500  C 0  0  0  2  0  4
   -4.2050    1.4150   -1.9220  C 0  0  0  1  0  3
   -3.3870    0.4960   -1.8270  O 0  0  0  1  0  1
   -6.1620    2.0840   -3.3310  C 0  0  0  3  0  4
   -6.7280    3.2160   -2.4880  C 0  0  0  3  0  4
   -7.4270    2.5020   -1.3100  C 0  0  0  3  0  4
   -3.8790    2.6920   -1.7620  N 0  0  0  2  0  3
   -2.5190    3.1050   -1.4450  C 0  0  0  2  0  4
   -2.5310    3.8700   -0.1260  C 0  0  0  1  0  3
   -3.2510    4.8540    0.0200  O 0  0  0  1  0  1
   -1.9780    4.0020   -2.5600  C 0  0  0  3  0  4
   -0.4770    3.9140   -2.7510  C 0  0  0  3  0  4
   -0.0280    2.5250   -3.1780  C 0  5  0  1  0  3
   -0.5950    1.9890   -4.1520  O 0  0  0  1  0  1
    0.8960    1.9710   -2.5470  O 0  0  0  1  0  1
   -1.7410    3.4090    0.8390  N 0  0  0  2  0  3
   -1.6770    4.0650    2.1430  C 0  0  0  2  0  4
   -1.1780    5.5020    2.0170  C 0  0  0  1  0  3
   -0.2220    5.7790    1.2870  O 0  0  0  1  0  1
   -0.7650    3.2760    3.0800  C 0  0  0  4  0  4
   -1.8400    6.4140    2.7240  N 0  0  0  2  0  3
   -1.4580    7.8210    2.7140  C 0  0  0  2  0  4
   -1.5390    8.4050    4.1180  C 0  0  0  1  0  3
   -2.2690    7.9010    4.9750  O 0  0  0  1  0  1
   -2.3590    8.6580    1.7740  C 0  0  0  2  0  4
   -3.7260    8.5580    2.1920  O 0  0  0  2  0  2
   -2.2270    8.1730    0.3380  C 0  0  0  4  0  4
   -0.7810    9.4720    4.3450  N 0  0  0  2  0  3
   -0.7510   10.1310    5.6410  C 0  0  0  2  0  4
   -0.6950   11.6400    5.4430  C 0  0  0  1  0  3
   -0.1920   12.1250    4.4250  O 0  0  0  1  0  1
    0.4540    9.6600    6.4300  C 0  0  0  4  0  4
   -1.2140   12.4060    6.4150  N 0  0  0  1  0  3
   -1.2080   13.8680    6.3180  C 0  0  0  2  0  4
    0.2050   14.4410    6.4010  C 0  0  0  1  0  3
    1.1100   13.8050    6.9380  O 0  0  0  1  0  1
   -2.0870   14.2890    7.4910  C 0  0  0  3  0  4
   -1.7890   13.2400    8.5120  C 0  0  0  3  0  4
   -1.8120   11.9670    7.6890  C 0  0  0  3  0  4
    0.4060   15.6610    5.8760  N 0  0  0  1  0  3
    1.7180   16.3140    5.8910  C 0  0  0  2  0  4
    2.3300   16.4890    7.2780  C 0  0  0  1  0  3
    1.6290   16.7640    8.2520  O 0  0  0  1  0  1
    1.4470   17.6470    5.1930  C 0  0  0  3  0  4
    0.0160   17.9200    5.5340  C 0  0  0  3  0  4
   -0.6180   16.5650    5.3250  C 0  0  0  3  0  4
    3.6480   16.3250    7.3450  N 0  0  0  2  0  3
    4.4050   16.4530    8.5840  C 0  0  0  2  0  4
    4.1040   17.7940    9.2460  C 0  0  0  1  0  3
    4.2000   18.8440    8.6100  O 0  0  0  1  0  1
    5.9030   16.3530    8.2820  C 0  0  0  3  0  4
    6.7840   16.0720    9.4870  C 0  0  0  3  0  4
    6.5680   14.6820   10.0550  C 0  5  0  1  0  3
    5.4940   14.4360   10.6450  O 0  0  0  1  0  1
    7.4710   13.8310    9.9030  O 0  0  0  1  0  1
    3.7400   17.7540   10.5230  N 0  0  0  2  0  3
    3.4230   18.9680   11.2660  C 0  0  0  2  0  4
    3.5430   18.7430   12.7700  C 0  5  0  1  0  3
    2.5270   18.9120   13.4760  O 0  0  0  1  0  1
    2.0080   19.4380   10.9200  C 0  0  0  3  0  4
    0.9610   18.3380   10.9880  C 0  0  0  3  0  4
   -0.4470   18.8590   10.7870  C 0  5  0  1  0  3
   -0.9230   19.6230   11.6520  O 0  0  0  1  0  1
   -1.0750   18.5060    9.7660  O 0  0  0  1  0  1
    4.6560   18.4010   13.2230  O 0  0  0  1  0  1
   -5.9811    1.5142   -0.2581  H 0  0  0  1  0  1
   -7.1105    0.5207   -0.9265  H 0  0  0  1  0  1
   -5.7621    0.0973   -2.5973  H 0  0  0  1  0  1
   -6.9387    1.6171   -3.9544  H 0  0  0  1  0  1
   -5.3371    2.4303   -3.9710  H 0  0  0  1  0  1
   -7.4502    3.8099   -3.0674  H 0  0  0  1  0  1
   -5.9228    3.8711   -2.1240  H 0  0  0  1  0  1
   -7.4757    3.1516   -0.4237  H 0  0  0  1  0  1
   -8.4424    2.1810   -1.5856  H 0  0  0  1  0  1
   -4.5877    3.3903   -1.8620  H 0  0  0  1  0  1
   -1.8777    2.2165   -1.3488  H 0  0  0  1  0  1
   -2.2353    5.0443   -2.3204  H 0  0  0  1  0  1
   -2.4639    3.7119   -3.5033  H 0  0  0  1  0  1
    0.0157    4.1681   -1.8009  H 0  0  0  1  0  1
   -0.1762    4.6359   -3.5245  H 0  0  0  1  0  1
   -1.1804    2.5985    0.6692  H 0  0  0  1  0  1
   -2.6898    4.0852    2.5718  H 0  0  0  1  0  1
   -0.7230    3.7769    4.0584  H 0  0  0  1  0  1
    0.2464    3.2251    2.6504  H 0  0  0  1  0  1
   -1.1615    2.2577    3.2062  H 0  0  0  1  0  1
   -2.6215    6.1265    3.2778  H 0  0  0  1  0  1
   -0.4195    7.8928    2.3587  H 0  0  0  1  0  1
   -2.0446    9.7109    1.8248  H 0  0  0  1  0  1
   -4.2723    9.0739    1.6107  H 0  0  0  1  0  1
   -2.8734    8.7785   -0.3144  H 0  0  0  1  0  1
   -2.5312    7.1176    0.2780  H 0  0  0  1  0  1
   -1.1811    8.2723    0.0121  H 0  0  0  1  0  1
   -0.2149    9.8323    3.6036  H 0  0  0  1  0  1
   -1.6651    9.8753    6.1970  H 0  0  0  1  0  1
    0.4706   10.1621    7.4086  H 0  0  0  1  0  1
    1.3729    9.9045    5.8769  H 0  0  0  1  0  1
    0.3933    8.5716    6.5773  H 0  0  0  1  0  1
   -1.6597   14.1915    5.3686  H 0  0  0  1  0  1
   -3.1512   14.2818    7.2128  H 0  0  0  1  0  1
   -1.8102   15.2890    7.8562  H 0  0  0  1  0  1
   -2.5586   13.2196    9.2976  H 0  0  0  1  0  1
   -0.8017   13.3997    8.9699  H 0  0  0  1  0  1
   -1.2094   11.1768    8.1606  H 0  0  0  1  0  1
   -2.8406   11.6057    7.5427  H 0  0  0  1  0  1
    2.4249   15.7202    5.2930  H 0  0  0  1  0  1
    1.5844   17.5589    4.1052  H 0  0  0  1  0  1
    2.1042   18.4383    5.5827  H 0  0  0  1  0  1
   -0.4190   18.6733    4.8608  H 0  0  0  1  0  1
   -0.0901   18.2548    6.5764  H 0  0  0  1  0  1
   -1.5663   16.4780    5.8756  H 0  0  0  1  0  1
   -0.7942   16.3664    4.2575  H 0  0  0  1  0  1
    4.1435   16.1032    6.5051  H 0  0  0  1  0  1
    4.1180   15.6407    9.2679  H 0  0  0  1  0  1
    6.2259   17.3063    7.8383  H 0  0  0  1  0  1
    6.0509   15.5412    7.5546  H 0  0  0  1  0  1
    6.5576   16.8115   10.2693  H 0  0  0  1  0  1
    7.8370   16.1692    9.1841  H 0  0  0  1  0  1
    3.6820   16.8696   10.9861  H 0  0  0  1  0  1
    4.1368   19.7520   10.9730  H 0  0  0  1  0  1
    2.0180   19.8442    9.8978  H 0  0  0  1  0  1
    1.7237   20.2312   11.6271  H 0  0  0  1  0  1
    1.0204   17.8559   11.9749  H 0  0  0  1  0  1
    1.1774   17.5970   10.2043  H 0  0  0  1  0  1
  1  2  1  0  0  1
  1  7  1  0  0  1
  2  3  1  0  0  2
  2  5  1  0  0  1
  3  4  2  0  0  2
  3  8  1  0  0  2
  5  6  1  0  0  1
  6  7  1  0  0  1
  8  9  1  0  0  2
  9 10  1  0  0  2
  9 12  1  0  0  2
 10 11  2  0  0  2
 10 17  1  0  0  2
 12 13  1  0  0  2
 13 14  1  0  0  2
 14 15  2  0  0  2
 14 16  2  0  0  2
 17 18  1  0  0  2
 18 19  1  0  0  2
 18 21  1  0  0  2
 19 20  2  0  0  2
 19 22  1  0  0  2
 22 23  1  0  0  2
 23 24  1  0  0  2
 23 26  1  0  0  2
 24 25  2  0  0  2
 24 29  1  0  0  2
 26 27  1  0  0  2
 26 28  1  0  0  2
 29 30  1  0  0  2
 30 31  1  0  0  2
 30 33  1  0  0  2
 31 32  2  0  0  2
 31 34  1  0  0  2
 34 35  1  0  0  1
 34 40  1  0  0  1
 35 36  1  0  0  2
 35 38  1  0  0  1
 36 37  2  0  0  2
 36 41  1  0  0  2
 38 39  1  0  0  1
 39 40  1  0  0  1
 41 42  1  0  0  1
 41 47  1  0  0  1
 42 43  1  0  0  2
 42 45  1  0  0  1
 43 44  2  0  0  2
 43 48  1  0  0  2
 45 46  1  0  0  1
 46 47  1  0  0  1
 48 49  1  0  0  2
 49 50  1  0  0  2
 49 52  1  0  0  2
 50 51  2  0  0  2
 50 57  1  0  0  2
 52 53  1  0  0  2
 53 54  1  0  0  2
 54 55  2  0  0  2
 54 56  2  0  0  2
 57 58  1  0  0  2
 58 59  1  0  0  2
 58 61  1  0  0  2
 59 60  2  0  0  2
 59 66  2  0  0  2
 61 62  1  0  0  2
 62 63  1  0  0  2
 63 64  2  0  0  2
 63 65  2  0  0  2
  1 67  1  0  0  2
  1 68  1  0  0  2
  2 69  1  0  0  2
  5 70  1  0  0  2
  5 71  1  0  0  2
  6 72  1  0  0  2
  6 73  1  0  0  2
  7 74  1  0  0  2
  7 75  1  0  0  2
  8 76  1  0  0  2
  9 77  1  0  0  2
 12 78  1  0  0  2
 12 79  1  0  0  2
 13 80  1  0  0  2
 13 81  1  0  0  2
 17 82  1  0  0  2
 18 83  1  0  0  2
 21 84  1  0  0  2
 21 85  1  0  0  2
 21 86  1  0  0  2
 22 87  1  0  0  2
 23 88  1  0  0  2
 26 89  1  0  0  2
 27 90  1  0  0  2
 28 91  1  0  0  2
 28 92  1  0  0  2
 28 93  1  0  0  2
 29 94  1  0  0  2
 30 95  1  0  0  2
 33 96  1  0  0  2
 33 97  1  0  0  2
 33 98  1  0  0  2
 35 99  1  0  0  2
 38100  1  0  0  2
 38101  1  0  0  2
 39102  1  0  0  2
 39103  1  0  0  2
 40104  1  0  0  2
 40105  1  0  0  2
 42106  1  0  0  2
 45107  1  0  0  2
 45108  1  0  0  2
 46109  1  0  0  2
 46110  1  0  0  2
 47111  1  0  0  2
 47112  1  0  0  2
 48113  1  0  0  2
 49114  1  0  0  2
 52115  1  0  0  2
 52116  1  0  0  2
 53117  1  0  0  2
 53118  1  0  0  2
 57119  1  0  0  2
 58120  1  0  0  2
 61121  1  0  0  2
 61122  1  0  0  2
 62123  1  0  0  2
 62124  1  0  0  2
M  END
> <MOLECULAR_FORMULA>
C40H58N9O17

> <MOLECULAR_WEIGHT>
936.5

> <NUM_HB_ATOMS>
24 

> <NUM_ROTOR>
21 

> <XLOGP2>
-5.37

$$$$
