REMARK  6 active torsions:
REMARK  status: ('A' for Active; 'I' for Inactive)
REMARK    1  A    between atoms: O4_15  and  C1_1 
REMARK    2  A    between atoms: C2_2  and  O2_6 
REMARK    3  A    between atoms: C3_3  and  O3_7 
REMARK    4  A    between atoms: C4_4  and  O4_8 
REMARK    5  A    between atoms: C3_12  and  O3_13 
REMARK    6  A    between atoms: O4_15  and  C4_14 
ROOT
ATOM      1  C1  XYS d         -62.584  16.981  57.362  0.00  0.00     0.291 C 
ATOM      2  C2  XYS d         -61.523  16.809  58.466  0.00  0.00     0.204 C 
ATOM      3  C3  XYS d         -60.954  15.392  58.470  0.00  0.00     0.182 C 
ATOM      4  C4  XYS d         -62.083  14.344  58.422  0.00  0.00     0.173 C 
ATOM      5  C5  XYS d         -63.067  14.655  57.298  0.00  0.00     0.205 C 
ATOM      6  O5  XYS d         -63.604  15.979  57.472  0.00  0.00    -0.356 OA
ENDROOT
BRANCH   1   7
ATOM      7  O4  XYS d         -63.206  18.275  57.489  0.00  0.00    -0.351 OA
BRANCH   7   8
ATOM      8  C4  XYS d         -63.976  18.583  56.335  0.00  0.00     0.156 C 
ATOM      9  C3  XYS d         -65.079  19.582  56.760  0.00  0.00     0.172 C 
ATOM     10  C2  XYS d         -65.952  19.943  55.511  0.00  0.00     0.266 C 
ATOM     11  N1  XYS d         -65.007  20.466  54.473  0.00  0.00    -0.073 N 
ATOM     12  C6  XYS d         -64.045  19.472  54.061  0.00  0.00     0.235 C 
ATOM     13  H10 XYS d         -65.538  20.757  53.667  0.00  0.00     0.277 HD
ATOM     14  H11 XYS d         -64.513  21.258  54.853  0.00  0.00     0.277 HD
ATOM     15  C5  XYS d         -63.118  19.178  55.202  0.00  0.00     0.062 C 
BRANCH   9  16
ATOM     16  O3  XYS d         -65.880  19.061  57.814  0.00  0.00    -0.391 OA
ATOM     17  H15 XYS d         -65.331  18.881  58.568  0.00  0.00     0.210 HD
ENDBRANCH   9  16
ENDBRANCH   7   8
ENDBRANCH   1   7
BRANCH   2  18
ATOM     18  O2  XYS d         -60.471  17.751  58.281  0.00  0.00    -0.388 OA
ATOM     19  H7  XYS d         -60.825  18.632  58.321  0.00  0.00     0.210 HD
ENDBRANCH   2  18
BRANCH   3  20
ATOM     20  O3  XYS d         -60.192  15.195  59.652  0.00  0.00    -0.390 OA
ATOM     21  H8  XYS d         -59.837  14.314  59.656  0.00  0.00     0.210 HD
ENDBRANCH   3  20
BRANCH   4  22
ATOM     22  O4  XYS d         -61.543  13.035  58.246  0.00  0.00    -0.391 OA
ATOM     23  H9  XYS d         -60.964  12.832  58.971  0.00  0.00     0.210 HD
ENDBRANCH   4  22
TORSDOF 6
