REMARK  3 active torsions:
REMARK  status: ('A' for Active; 'I' for Inactive)
REMARK    1  A    between atoms: C1_6  and  C7_7 
REMARK    2  A    between atoms: C7_7  and  C8_8 
REMARK    3  A    between atoms: C8_8  and  C9_9 
ROOT
ATOM      1  C4  I2E d          16.648 -20.931  11.574  0.00  0.00     0.105 A 
ATOM      2  C5  I2E d          15.563 -21.339  10.801  0.00  0.00     0.040 A 
ATOM      3  C6  I2E d          15.225 -22.690  10.863  0.00  0.00     0.010 A 
ATOM      4  C3  I2E d          17.375 -21.761  12.375  0.00  0.00     0.105 A 
ATOM      5  C2  I2E d          17.074 -23.089  12.486  0.00  0.00     0.047 A 
ATOM      6  C1  I2E d          15.989 -23.513  11.710  0.00  0.00    -0.055 A 
ATOM      7  C20 I2E d          18.372 -19.899  12.331  0.00  0.00     0.352 C 
ATOM      8  O4  I2E d          17.142 -19.646  11.667  0.00  0.00    -0.323 OA
ATOM      9  O3  I2E d          18.386 -21.130  13.037  0.00  0.00    -0.323 OA
ENDROOT
BRANCH   6  10
ATOM     10  C7  I2E d          15.623 -24.935  11.842  0.00  0.00     0.049 C 
BRANCH  10  11
ATOM     11  C8  I2E d          16.186 -25.792  10.746  0.00  0.00     0.117 C 
BRANCH  11  12
ATOM     12  C9  I2E d          17.182 -26.605  11.563  0.00  0.00     0.172 C 
ATOM     13  O1  I2E d          17.673 -27.495  10.818  0.00  0.00    -0.648 OA
ATOM     14  O2  I2E d          17.405 -26.302  12.784  0.00  0.00    -0.648 OA
ENDBRANCH  11  12
ENDBRANCH  10  11
ENDBRANCH   6  10
TORSDOF 3
