REMARK  17 active torsions:
REMARK  status: ('A' for Active; 'I' for Inactive)
REMARK    1  A    between atoms: C1_1  and  O2_37 
REMARK    2  A    between atoms: C2_2  and  O5_7 
REMARK    3  A    between atoms: C7_22  and  C5_5 
REMARK    4  A    between atoms: O5_7  and  C8_20 
REMARK    5  A    between atoms: C9_8  and  N1_9 
REMARK    6  A    between atoms: C11_11  and  C9_8 
REMARK    7  A    between atoms: C9_8  and  C7_22 
REMARK       I    between atoms: N1_9  and  C10_10 
REMARK       I    between atoms: N2_12  and  C11_11 
REMARK    8  A    between atoms: C12_13  and  N2_12 
REMARK    9  A    between atoms: C13_14  and  C12_13 
REMARK   10  A    between atoms: C15_16  and  C13_14 
REMARK   11  A    between atoms: C14_15  and  O1_17 
REMARK   12  A    between atoms: C15_16  and  C14_15 
REMARK   13  A    between atoms: O1_17  and  C32_26 
REMARK   14  A    between atoms: C8_20  and  C24_23 
REMARK   15  A    between atoms: C36_30  and  O13_36 
REMARK   16  A    between atoms: C37_31  and  C38_32 
REMARK   17  A    between atoms: C38_32  and  O12_34 
ROOT
ATOM      1  C11 MOL d          30.723  30.361  16.426  0.00  0.00     0.240 C 
ATOM      2  N2  MOL d          29.392  30.348  16.689  0.00  0.00    -0.359 N 
ATOM      3  O8  MOL d          31.367  29.417  15.984  0.00  0.00    -0.271 OA
ATOM      4  H6  MOL d          28.839  31.142  16.438  0.00  0.00     0.162 HD
ENDROOT
BRANCH   1   5
ATOM      5  C9  MOL d          31.377  31.729  16.744  0.00  0.00     0.180 C 
BRANCH   5   6
ATOM      6  N1  MOL d          30.588  32.773  16.070  0.00  0.00    -0.348 N 
ATOM      7  C10 MOL d          30.862  33.191  14.815  0.00  0.00     0.214 C 
ATOM      8  O4  MOL d          31.983  33.407  14.359  0.00  0.00    -0.274 OA
ATOM      9  C23 MOL d          29.601  33.381  13.967  0.00  0.00     0.117 C 
ATOM     10  H5  MOL d          29.821  33.188  16.559  0.00  0.00     0.163 HD
ENDBRANCH   5   6
BRANCH   5  11
ATOM     11  C7  MOL d          31.421  31.984  18.293  0.00  0.00     0.073 C 
BRANCH  11  12
ATOM     12  C5  MOL d          32.231  30.943  19.053  0.00  0.00    -0.053 A 
ATOM     13  C4  MOL d          31.584  29.923  19.809  0.00  0.00     0.010 A 
ATOM     14  C3  MOL d          32.334  28.953  20.501  0.00  0.00     0.040 A 
ATOM     15  C2  MOL d          33.761  28.982  20.448  0.00  0.00     0.102 A 
ATOM     16  C1  MOL d          34.408  30.001  19.702  0.00  0.00     0.099 A 
ATOM     17  C6  MOL d          33.648  30.968  19.009  0.00  0.00     0.046 A 
BRANCH  15  18
ATOM     18  O5  MOL d          34.582  28.054  21.092  0.00  0.00    -0.338 OA
BRANCH  18  19
ATOM     19  C8  MOL d          34.186  27.679  22.393  0.00  0.00     0.288 C 
BRANCH  19  20
ATOM     20  C24 MOL d          35.089  26.560  22.838  0.00  0.00     0.198 C 
ATOM     21  O6  MOL d          36.033  27.009  23.683  0.00  0.00    -0.646 OA
ATOM     22  O7  MOL d          34.988  25.429  22.487  0.00  0.00    -0.646 OA
ENDBRANCH  19  20
ENDBRANCH  18  19
ENDBRANCH  15  18
BRANCH  16  23
ATOM     23  O2  MOL d          35.790  30.038  19.645  0.00  0.00    -0.358 OA
ATOM     24  H29 MOL d          36.146  29.324  20.161  0.00  0.00     0.217 HD
ENDBRANCH  16  23
ENDBRANCH  11  12
ENDBRANCH   5  11
ENDBRANCH   1   5
BRANCH   2  25
ATOM     25  C12 MOL d          28.746  29.206  17.329  0.00  0.00     0.122 C 
BRANCH  25  26
ATOM     26  C13 MOL d          27.455  29.682  18.004  0.00  0.00     0.022 C 
BRANCH  26  27
ATOM     27  C15 MOL d          27.650  30.151  19.462  0.00  0.00     0.028 C 
BRANCH  27  28
ATOM     28  C14 MOL d          26.339  30.629  20.086  0.00  0.00     0.175 C 
BRANCH  28  29
ATOM     29  O1  MOL d          25.983  29.751  21.147  0.00  0.00    -0.350 OA
BRANCH  29  30
ATOM     30  C32 MOL d          24.657  29.837  21.632  0.00  0.00     0.087 A 
ATOM     31  C33 MOL d          23.996  31.103  21.836  0.00  0.00     0.038 A 
ATOM     32  C34 MOL d          22.671  31.165  22.323  0.00  0.00     0.005 A 
ATOM     33  C35 MOL d          21.978  29.971  22.620  0.00  0.00     0.038 A 
ATOM     34  C36 MOL d          22.595  28.711  22.434  0.00  0.00     0.084 A 
ATOM     35  C37 MOL d          23.940  28.620  21.941  0.00  0.00     0.105 A 
BRANCH  34  36
ATOM     36  O13 MOL d          21.847  27.591  22.751  0.00  0.00    -0.360 OA
ATOM     37  H28 MOL d          22.288  27.100  23.434  0.00  0.00     0.217 HD
ENDBRANCH  34  36
BRANCH  35  38
ATOM     38  C38 MOL d          24.545  27.272  21.765  0.00  0.00     0.298 C 
ATOM     39  O11 MOL d          24.614  26.498  22.692  0.00  0.00    -0.259 OA
BRANCH  38  40
ATOM     40  O12 MOL d          24.999  26.978  20.538  0.00  0.00    -0.322 OA
ATOM     41  C39 MOL d          25.592  25.682  20.325  0.00  0.00     0.213 C 
ENDBRANCH  38  40
ENDBRANCH  35  38
ENDBRANCH  29  30
ENDBRANCH  28  29
ENDBRANCH  27  28
ENDBRANCH  26  27
ENDBRANCH  25  26
ENDBRANCH   2  25
TORSDOF 17
