REMARK  4 active torsions:
REMARK  status: ('A' for Active; 'I' for Inactive)
REMARK    1  A    between atoms: C15_2  and  C16_23 
REMARK    2  A    between atoms: C04_13  and  C02_11 
REMARK    3  A    between atoms: N08_17  and  C07_16 
REMARK    4  A    between atoms: C09_18  and  N08_17 
ROOT
ATOM      1  C13 ZZL d           0.239  -8.129  -4.330  0.00  0.00     0.192 C 
ATOM      2  C15 ZZL d           1.559 -10.168  -4.377  0.00  0.00     0.079 C 
ATOM      3  C24 ZZL d           2.934  -9.598  -4.624  0.00  0.00     0.007 A 
ATOM      4  C26 ZZL d           5.093  -9.735  -5.653  0.00  0.00     0.035 A 
ATOM      5  C28 ZZL d           5.476  -8.541  -5.011  0.00  0.00     0.025 A 
ATOM      6  C09 ZZL d           2.476  -6.072  -1.407  0.00  0.00     0.727 A 
ATOM      7  N10 ZZL d           1.101  -5.920  -1.482  0.00  0.00    -0.074 NA
ATOM      8  C11 ZZL d           0.411  -6.600  -2.427  0.00  0.00     0.147 A 
ATOM      9  C12 ZZL d           1.088  -7.423  -3.265  0.00  0.00     0.010 A 
ATOM     10  N14 ZZL d           0.460  -9.551  -4.278  0.00  0.00    -0.283 NA
ATOM     11  C25 ZZL d           3.816 -10.270  -5.452  0.00  0.00     0.038 A 
ATOM     12 CL1  ZZL d           6.186 -10.582  -6.778  0.00  0.00    -0.084 Cl
ATOM     13  C29 ZZL d           4.582  -7.870  -4.170  0.00  0.00     0.016 A 
ATOM     14  C30 ZZL d           3.308  -8.412  -3.978  0.00  0.00     0.007 A 
ATOM     15  C31 ZZL d           2.483  -7.585  -3.177  0.00  0.00     0.096 A 
ATOM     16  N32 ZZL d           3.174  -6.913  -2.275  0.00  0.00    -0.061 NA
ENDROOT
BRANCH   6  17
ATOM     17  N08 ZZL d           3.216  -5.305  -0.444  0.00  0.00    -0.188 N 
ATOM     18  H8  ZZL d           2.600  -4.834   0.234  0.00  0.00     0.184 HD
BRANCH  17  19
ATOM     19  C07 ZZL d           4.609  -5.033  -0.195  0.00  0.00     0.049 A 
ATOM     20  C06 ZZL d           5.555  -5.982  -0.607  0.00  0.00     0.031 A 
ATOM     21  C05 ZZL d           6.915  -5.696  -0.481  0.00  0.00     0.020 A 
ATOM     22  C04 ZZL d           7.302  -4.466   0.058  0.00  0.00     0.041 A 
ATOM     23  C34 ZZL d           6.357  -3.522   0.463  0.00  0.00     0.020 A 
ATOM     24  C33 ZZL d           4.996  -3.804   0.333  0.00  0.00     0.031 A 
BRANCH  22  25
ATOM     25  C02 ZZL d           8.777  -4.154   0.201  0.00  0.00     0.209 C 
ATOM     26  O01 ZZL d           9.569  -4.964  -0.135  0.00  0.00    -0.644 OA
ATOM     27  O03 ZZL d           9.180  -2.923   0.724  0.00  0.00    -0.644 OA
ENDBRANCH  22  25
ENDBRANCH  17  19
ENDBRANCH   6  17
BRANCH   2  28
ATOM     28  C16 ZZL d           1.645 -11.680  -4.221  0.00  0.00     0.070 A 
ATOM     29  C17 ZZL d           1.089 -12.521  -5.188  0.00  0.00     0.132 A 
ATOM     30  F18 ZZL d           0.545 -11.990  -6.317  0.00  0.00    -0.205 F 
ATOM     31  C19 ZZL d           1.123 -13.909  -5.018  0.00  0.00     0.043 A 
ATOM     32  C20 ZZL d           1.719 -14.468  -3.883  0.00  0.00     0.006 A 
ATOM     33  C21 ZZL d           2.281 -13.630  -2.914  0.00  0.00     0.043 A 
ATOM     34  C22 ZZL d           2.239 -12.239  -3.083  0.00  0.00     0.132 A 
ATOM     35  F23 ZZL d           2.815 -11.427  -2.151  0.00  0.00    -0.205 F 
ENDBRANCH   2  28
TORSDOF 4
