REMARK  2 active torsions:
REMARK  status: ('A' for Active; 'I' for Inactive)
REMARK    1  A    between atoms: C9_9  and  C1_1 
REMARK    2  A    between atoms: N1_17  and  C11_11 
ROOT
ATOM      1  C7  09Q d          -4.790  25.237  32.514  0.00  0.00     0.145 A 
ATOM      2  C8  09Q d          -5.777  27.312  32.818  0.00  0.00     0.128 A 
ATOM      3  C9  09Q d          -6.989  26.876  32.241  0.00  0.00    -0.006 A 
ATOM      4  C10 09Q d          -7.028  25.565  31.745  0.00  0.00     0.044 A 
ATOM      5  C11 09Q d          -5.939  24.684  31.883  0.00  0.00     0.048 A 
ATOM      6  N3  09Q d          -4.701  26.503  32.976  0.00  0.00    -0.270 NA
ENDROOT
BRANCH   5   7
ATOM      7  N1  09Q d          -6.067  23.383  31.460  0.00  0.00    -0.378 N 
ATOM      8  C12 09Q d          -7.379  22.716  31.330  0.00  0.00     0.124 C 
ATOM      9  C13 09Q d          -7.977  22.915  29.933  0.00  0.00     0.047 C 
ATOM     10  C14 09Q d          -7.469  21.873  28.917  0.00  0.00     0.234 C 
ATOM     11  N2  09Q d          -5.993  21.798  28.902  0.00  0.00    -0.074 N 
ATOM     12  C15 09Q d          -5.354  21.336  30.158  0.00  0.00     0.252 C 
ATOM     13  H19 09Q d          -5.639  22.719  28.697  0.00  0.00     0.277 HD
ATOM     14  H20 09Q d          -5.724  21.163  28.167  0.00  0.00     0.277 HD
ATOM     15  C16 09Q d          -4.948  22.479  31.118  0.00  0.00     0.150 C 
ENDBRANCH   5   7
BRANCH   3  16
ATOM     16  C1  09Q d          -8.165  27.716  31.991  0.00  0.00    -0.025 A 
ATOM     17  C2  09Q d          -8.306  28.348  30.732  0.00  0.00     0.012 A 
ATOM     18  C3  09Q d          -9.450  29.108  30.417  0.00  0.00     0.001 A 
ATOM     19  C4  09Q d         -10.480  29.229  31.366  0.00  0.00     0.000 A 
ATOM     20  C5  09Q d         -10.358  28.592  32.615  0.00  0.00     0.001 A 
ATOM     21  C6  09Q d          -9.216  27.831  32.928  0.00  0.00     0.012 A 
ENDBRANCH   3  16
TORSDOF 2
