REMARK  7 active torsions:
REMARK  status: ('A' for Active; 'I' for Inactive)
REMARK    1  A    between atoms: C9_6  and  C8_7 
REMARK    2  A    between atoms: N1_11  and  C1_12 
REMARK    3  A    between atoms: C5_14  and  C6_15 
REMARK    4  A    between atoms: C6_15  and  O6_16 
REMARK    5  A    between atoms: C4_17  and  O4_18 
REMARK    6  A    between atoms: C3_19  and  O3_20 
REMARK    7  A    between atoms: C2_21  and  O2_22 
ROOT
ATOM      1  C1  KOT d          32.690  22.676  27.770  0.00  0.00     0.278 C 
ATOM      2  O5  KOT d          32.750  21.256  27.994  0.00  0.00    -0.352 OA
ATOM      3  C5  KOT d          31.702  20.601  27.251  0.00  0.00     0.179 C 
ATOM      4  C4  KOT d          31.911  20.780  25.733  0.00  0.00     0.180 C 
ATOM      5  C3  KOT d          32.108  22.263  25.377  0.00  0.00     0.182 C 
ATOM      6  C2  KOT d          33.123  22.926  26.319  0.00  0.00     0.200 C 
ENDROOT
BRANCH   1   7
ATOM      7  N1  KOT d          33.496  23.311  28.815  0.00  0.00    -0.228 N 
ATOM      8  C7  KOT d          34.817  23.327  28.959  0.00  0.00     0.151 A 
ATOM      9  C8  KOT d          35.021  24.016  30.076  0.00  0.00     0.108 A 
ATOM     10  N3  KOT d          33.817  24.337  30.533  0.00  0.00    -0.130 NA
ATOM     11  N2  KOT d          32.958  23.897  29.757  0.00  0.00    -0.063 NA
BRANCH   9  12
ATOM     12  C9  KOT d          36.239  24.333  30.669  0.00  0.00    -0.004 A 
ATOM     13  C14 KOT d          37.357  23.539  30.435  0.00  0.00     0.014 A 
ATOM     14  C13 KOT d          38.577  23.862  31.031  0.00  0.00     0.001 A 
ATOM     15  C12 KOT d          38.673  24.976  31.862  0.00  0.00     0.000 A 
ATOM     16  C11 KOT d          37.559  25.771  32.104  0.00  0.00     0.001 A 
ATOM     17  C10 KOT d          36.339  25.452  31.503  0.00  0.00     0.014 A 
ENDBRANCH   9  12
ENDBRANCH   1   7
BRANCH   6  18
ATOM     18  O2  KOT d          33.177  24.324  26.063  0.00  0.00    -0.388 OA
ATOM     19  H17 KOT d          33.442  24.470  25.162  0.00  0.00     0.210 HD
ENDBRANCH   6  18
BRANCH   3  20
ATOM     20  C6  KOT d          31.666  19.138  27.685  0.00  0.00     0.198 C 
BRANCH  20  21
ATOM     21  O6  KOT d          32.772  18.466  27.088  0.00  0.00    -0.398 OA
ATOM     22  H11 KOT d          33.581  18.872  27.377  0.00  0.00     0.209 HD
ENDBRANCH  20  21
ENDBRANCH   3  20
BRANCH   5  23
ATOM     23  O3  KOT d          32.542  22.387  24.026  0.00  0.00    -0.390 OA
ATOM     24  H15 KOT d          32.661  23.306  23.816  0.00  0.00     0.210 HD
ENDBRANCH   5  23
BRANCH   4  25
ATOM     25  O4  KOT d          30.745  20.319  25.055  0.00  0.00    -0.390 OA
ATOM     26  H13 KOT d          30.862  20.424  24.118  0.00  0.00     0.210 HD
ENDBRANCH   4  25
TORSDOF 7
