REMARK  6 active torsions:
REMARK  status: ('A' for Active; 'I' for Inactive)
REMARK    1  A    between atoms: C3_3  and  O3_31 
REMARK    2  A    between atoms: C4_4  and  O4_32 
REMARK    3  A    between atoms: C5_5  and  O5_33 
REMARK    4  A    between atoms: C11_11  and  O11_35 
REMARK    5  A    between atoms: C12_12  and  O12_36 
REMARK    6  A    between atoms: C17_17  and  C25_24 
ROOT
ATOM      1  C1  S1A d         -44.229  25.233 -16.073  0.00  0.00     0.268 C 
ATOM      2  C2  S1A d         -43.036  25.465 -17.021  0.00  0.00     0.146 C 
ATOM      3  C3  S1A d         -43.003  24.382 -18.164  0.00  0.00     0.203 C 
ATOM      4  C4  S1A d         -41.759  24.584 -19.154  0.00  0.00     0.212 C 
ATOM      5  C5  S1A d         -41.930  23.753 -20.500  0.00  0.00     0.158 C 
ATOM      6  C6  S1A d         -43.372  23.857 -21.090  0.00  0.00     0.043 C 
ATOM      7  C7  S1A d         -44.453  23.554 -19.977  0.00  0.00     0.138 C 
ATOM      8  C8  S1A d         -45.907  23.703 -20.533  0.00  0.00     0.033 C 
ATOM      9  C9  S1A d         -46.949  23.390 -19.381  0.00  0.00    -0.021 C 
ATOM     10  C10 S1A d         -47.259  22.082 -18.990  0.00  0.00     0.004 C 
ATOM     11  C11 S1A d         -48.292  21.799 -17.855  0.00  0.00     0.172 C 
ATOM     12  C12 S1A d         -47.914  20.505 -17.059  0.00  0.00     0.153 C 
ATOM     13  C13 S1A d         -46.526  20.635 -16.378  0.00  0.00     0.035 C 
ATOM     14  C14 S1A d         -46.404  21.757 -15.357  0.00  0.00     0.003 C 
ATOM     15  C15 S1A d         -45.107  21.629 -14.605  0.00  0.00     0.003 C 
ATOM     16  C16 S1A d         -44.905  22.699 -13.550  0.00  0.00     0.037 C 
ATOM     17  C17 S1A d         -44.980  24.166 -14.008  0.00  0.00     0.165 C 
ATOM     18  C19 S1A d         -41.731  25.484 -16.201  0.00  0.00     0.026 C 
ATOM     19  C21 S1A d         -43.559  25.246 -21.755  0.00  0.00     0.015 C 
ATOM     20  C22 S1A d         -46.171  22.765 -21.727  0.00  0.00     0.017 C 
ATOM     21  O1  S1A d         -45.397  25.687 -16.159  0.00  0.00    -0.265 OA
ATOM     22  O7  S1A d         -44.283  24.468 -18.854  0.00  0.00    -0.346 OA
ATOM     23  O18 S1A d         -43.925  24.436 -15.002  0.00  0.00    -0.311 OA
ENDROOT
BRANCH  17  24
ATOM     24  C25 S1A d         -44.695  24.994 -12.724  0.00  0.00    -0.029 A 
ATOM     25  C26 S1A d         -43.336  25.097 -12.236  0.00  0.00     0.010 A 
ATOM     26  C27 S1A d         -43.054  25.800 -11.050  0.00  0.00     0.001 A 
ATOM     27  C28 S1A d         -44.107  26.411 -10.327  0.00  0.00     0.000 A 
ATOM     28  C29 S1A d         -45.454  26.318 -10.797  0.00  0.00     0.001 A 
ATOM     29  C30 S1A d         -45.744  25.608 -12.001  0.00  0.00     0.010 A 
ENDBRANCH  17  24
BRANCH   3  30
ATOM     30  O3  S1A d         -42.894  23.067 -17.563  0.00  0.00    -0.362 OA
ATOM     31  H43 S1A d         -42.943  22.405 -18.242  0.00  0.00     0.213 HD
ENDBRANCH   3  30
BRANCH  12  32
ATOM     32  O12 S1A d         -47.908  19.382 -17.983  0.00  0.00    -0.388 OA
ATOM     33  C24 S1A d         -47.966  18.103 -17.272  0.00  0.00     0.202 C 
ENDBRANCH  12  32
BRANCH   4  34
ATOM     34  O4  S1A d         -41.604  25.991 -19.473  0.00  0.00    -0.383 OA
ATOM     35  C20 S1A d         -40.198  26.390 -19.445  0.00  0.00     0.202 C 
ENDBRANCH   4  34
BRANCH  11  36
ATOM     36  O11 S1A d         -49.596  21.619 -18.442  0.00  0.00    -0.384 OA
ATOM     37  C23 S1A d         -50.598  22.373 -17.707  0.00  0.00     0.202 C 
ENDBRANCH  11  36
BRANCH   5  38
ATOM     38  O5  S1A d         -41.627  22.380 -20.242  0.00  0.00    -0.392 OA
ATOM     39  H44 S1A d         -42.253  22.030 -19.619  0.00  0.00     0.210 HD
ENDBRANCH   5  38
TORSDOF 6
