3arr_ligand

Created by X-TOOL on Fri Sep 26 17:34:49 2014
 38 39  0  0  0  0  0  0  0  0999 V2000
   -3.8740   -4.6480    1.4710  C 0  0  0  4  0  4
   -4.5260   -5.4420    2.5370  C 0  0  0  1  0  3
   -4.9330   -4.9340    3.5680  O 0  0  0  1  0  1
   -4.6190   -6.9250    2.2560  C 0  0  0  3  0  4
   -5.5250   -7.7640    3.0860  C 0  0  0  3  0  4
   -5.0270   -9.2130    2.8430  C 0  0  0  3  0  4
   -5.1150   -9.6490    1.3820  C 0  0  0  3  0  4
   -5.3180  -11.1670    1.2920  N 0  0  0  1  0  3
   -4.2390  -12.0330    1.3250  C 0  0  0  1  0  3
   -3.0700  -11.6690    1.4390  O 0  0  0  1  0  1
   -4.5030  -13.3880    1.2140  C 0  0  0  1  0  3
   -3.7000  -14.3700    1.2480  N 0  0  0  1  0  3
   -2.2430  -14.1340    1.4030  C 0  0  0  4  0  4
   -4.4170  -15.5300    1.0830  C 0  0  0  2  0  3
   -5.7420  -15.2370    0.9740  N 0  0  0  1  0  2
   -5.7720  -13.9160    1.0980  C 0  0  0  1  0  3
   -6.8230  -13.1190    1.0470  N 0  0  0  1  0  3
   -8.1490  -13.7810    0.9090  C 0  0  0  4  0  4
   -6.6310  -11.7590    1.2050  C 0  0  0  1  0  3
   -7.6060  -11.0530    1.1080  O 0  0  0  1  0  1
   -3.5908   -5.3116    0.6407  H 0  0  0  1  0  1
   -2.9739   -4.1614    1.8747  H 0  0  0  1  0  1
   -4.5728   -3.8812    1.1055  H 0  0  0  1  0  1
   -3.6056   -7.3379    2.3682  H 0  0  0  1  0  1
   -4.9461   -7.0347    1.2115  H 0  0  0  1  0  1
   -6.5696   -7.6504    2.7606  H 0  0  0  1  0  1
   -5.4409   -7.4954    4.1494  H 0  0  0  1  0  1
   -5.6389   -9.8979    3.4484  H 0  0  0  1  0  1
   -3.9768   -9.2789    3.1636  H 0  0  0  1  0  1
   -4.1833   -9.3760    0.8648  H 0  0  0  1  0  1
   -5.9637   -9.1401    0.9017  H 0  0  0  1  0  1
   -1.7141  -15.0985    1.4107  H 0  0  0  1  0  1
   -2.0557  -13.6056    2.3494  H 0  0  0  1  0  1
   -1.8792  -13.5231    0.5637  H 0  0  0  1  0  1
   -3.9905  -16.5313    1.0452  H 0  0  0  1  0  1
   -8.0072  -14.8661    0.7976  H 0  0  0  1  0  1
   -8.6656  -13.3858    0.0220  H 0  0  0  1  0  1
   -8.7540  -13.5805    1.8055  H 0  0  0  1  0  1
  1  2  1  0  0  2
  2  3  2  0  0  2
  2  4  1  0  0  2
  4  5  1  0  0  2
  5  6  1  0  0  2
  6  7  1  0  0  2
  7  8  1  0  0  2
  8  9  1  0  0  1
  8 19  1  0  0  1
  9 10  2  0  0  2
  9 11  1  0  0  1
 11 12  1  0  0  1
 11 16  2  0  0  1
 12 13  1  0  0  2
 12 14  1  0  0  1
 14 15  2  0  0  1
 15 16  1  0  0  1
 16 17  1  0  0  1
 17 18  1  0  0  2
 17 19  1  0  0  1
 19 20  2  0  0  2
  1 21  1  0  0  2
  1 22  1  0  0  2
  1 23  1  0  0  2
  4 24  1  0  0  2
  4 25  1  0  0  2
  5 26  1  0  0  2
  5 27  1  0  0  2
  6 28  1  0  0  2
  6 29  1  0  0  2
  7 30  1  0  0  2
  7 31  1  0  0  2
 13 32  1  0  0  2
 13 33  1  0  0  2
 13 34  1  0  0  2
 14 35  1  0  0  2
 18 36  1  0  0  2
 18 37  1  0  0  2
 18 38  1  0  0  2
M  END
> <MOLECULAR_FORMULA>
C13H18N4O3

> <MOLECULAR_WEIGHT>
278.2

> <NUM_HB_ATOMS>
5  

> <NUM_ROTOR>
5  

> <XLOGP2>
0.04 

$$$$
