REMARK  7 active torsions:
REMARK  status: ('A' for Active; 'I' for Inactive)
REMARK    1  A    between atoms: P_2  and  C7_5 
REMARK    2  A    between atoms: C7_5  and  N_6 
REMARK    3  A    between atoms: C7_5  and  C3_7 
REMARK    4  A    between atoms: C3_7  and  C4_8 
REMARK    5  A    between atoms: C3_7  and  C2_11 
REMARK    6  A    between atoms: C4_8  and  C5_9 
REMARK    7  A    between atoms: C2_11  and  C1_12 
ROOT
ATOM      1  C7  Q08 d          22.807  -3.773  10.250  0.00  0.00     0.316 C 
ENDROOT
BRANCH   1   2
ATOM      2  P   Q08 d          21.635  -2.657  11.112  0.00  0.00     0.291 P 
ATOM      3  O2  Q08 d          22.022  -2.203  12.443  0.00  0.00    -0.638 OA
ATOM      4  O   Q08 d          20.182  -3.331  11.044  0.00  0.00    -0.638 OA
ATOM      5  O1  Q08 d          21.664  -1.330  10.285  0.00  0.00    -0.638 OA
ENDBRANCH   1   2
BRANCH   1   6
ATOM      6  N   Q08 d          23.765  -2.988   9.427  0.00  0.00    -0.062 N 
ATOM      7  H2  Q08 d          24.401  -3.616   8.961  0.00  0.00     0.275 HD
ATOM      8  H3  Q08 d          24.286  -2.363  10.022  0.00  0.00     0.275 HD
ATOM      9  H4  Q08 d          23.258  -2.453   8.740  0.00  0.00     0.275 HD
ENDBRANCH   1   6
BRANCH   1  10
ATOM     10  C3  Q08 d          23.480  -4.801  11.186  0.00  0.00     0.030 C 
BRANCH  10  11
ATOM     11  C4  Q08 d          24.879  -5.042  10.653  0.00  0.00     0.007 C 
BRANCH  11  12
ATOM     12  C5  Q08 d          25.598  -6.173  11.351  0.00  0.00    -0.004 C 
ATOM     13  C6  Q08 d          26.940  -5.756  11.832  0.00  0.00     0.005 C 
ENDBRANCH  11  12
ENDBRANCH  10  11
BRANCH  10  14
ATOM     14  C2  Q08 d          22.720  -6.125  11.306  0.00  0.00     0.007 C 
BRANCH  14  15
ATOM     15  C1  Q08 d          23.358  -7.417  10.730  0.00  0.00    -0.004 C 
ATOM     16  C   Q08 d          22.371  -8.436  10.264  0.00  0.00     0.005 C 
ENDBRANCH  14  15
ENDBRANCH  10  14
ENDBRANCH   1  10
TORSDOF 7
