REMARK  12 active torsions:
REMARK  status: ('A' for Active; 'I' for Inactive)
REMARK    1  A    between atoms: S4_23  and  C1_1 
REMARK    2  A    between atoms: C2_2  and  O2_8 
REMARK    3  A    between atoms: C3_3  and  O3_9 
REMARK    4  A    between atoms: C4_4  and  S4_10 
REMARK    5  A    between atoms: C5_5  and  C6_6 
REMARK    6  A    between atoms: C6_6  and  O6_12 
REMARK    7  A    between atoms: C1_13  and  O1_20 
REMARK    8  A    between atoms: C2_14  and  O2_21 
REMARK    9  A    between atoms: C3_15  and  O3_22 
REMARK   10  A    between atoms: C4_16  and  S4_23 
REMARK   11  A    between atoms: C5_17  and  C6_18 
REMARK   12  A    between atoms: C6_18  and  O6_25 
ROOT
ATOM      1  S4  MA2 d          -7.059  42.161  19.318  0.00  0.00    -0.124 SA
ENDROOT
BRANCH   1   2
ATOM      2  C1  MA2 d          -7.763  41.728  20.939  0.00  0.00     0.215 C 
ATOM      3  C2  MA2 d          -8.700  40.523  20.840  0.00  0.00     0.187 C 
ATOM      4  C3  MA2 d          -9.990  40.906  20.103  0.00  0.00     0.166 C 
ATOM      5  C4  MA2 d         -10.635  42.125  20.764  0.00  0.00     0.109 C 
ATOM      6  C5  MA2 d          -9.603  43.257  20.802  0.00  0.00     0.163 C 
ATOM      7  O5  MA2 d          -8.444  42.824  21.534  0.00  0.00    -0.364 OA
BRANCH   3   8
ATOM      8  O2  MA2 d          -8.050  39.470  20.144  0.00  0.00    -0.390 OA
ATOM      9  H11 MA2 d          -8.627  38.716  20.102  0.00  0.00     0.210 HD
ENDBRANCH   3   8
BRANCH   4  10
ATOM     10  O3  MA2 d         -10.898  39.814  20.124  0.00  0.00    -0.392 OA
ATOM     11  H12 MA2 d         -10.493  39.059  19.713  0.00  0.00     0.210 HD
ENDBRANCH   4  10
BRANCH   5  12
ATOM     12  S4  MA2 d         -12.202  42.646  19.955  0.00  0.00    -0.163 SA
ATOM     13  C7  MA2 d         -11.711  42.803  18.201  0.00  0.00     0.090 C 
ENDBRANCH   5  12
BRANCH   6  14
ATOM     14  C6  MA2 d         -10.112  44.521  21.470  0.00  0.00     0.197 C 
BRANCH  14  15
ATOM     15  O6  MA2 d         -10.533  44.263  22.801  0.00  0.00    -0.398 OA
ATOM     16  H13 MA2 d          -9.801  43.927  23.304  0.00  0.00     0.209 HD
ENDBRANCH  14  15
ENDBRANCH   6  14
ENDBRANCH   1   2
BRANCH   1  17
ATOM     17  C4  MA2 d          -5.245  42.152  19.586  0.00  0.00     0.112 C 
ATOM     18  C3  MA2 d          -4.538  41.607  18.343  0.00  0.00     0.168 C 
ATOM     19  C2  MA2 d          -3.019  41.678  18.508  0.00  0.00     0.203 C 
ATOM     20  C1  MA2 d          -2.560  43.097  18.885  0.00  0.00     0.290 C 
ATOM     21  O5  MA2 d          -3.275  43.509  20.041  0.00  0.00    -0.350 OA
ATOM     22  C5  MA2 d          -4.704  43.557  19.875  0.00  0.00     0.164 C 
BRANCH  18  23
ATOM     23  O3  MA2 d          -4.934  40.260  18.123  0.00  0.00    -0.392 OA
ATOM     24  H25 MA2 d          -4.494  39.924  17.351  0.00  0.00     0.210 HD
ENDBRANCH  18  23
BRANCH  19  25
ATOM     25  O2  MA2 d          -2.392  41.253  17.306  0.00  0.00    -0.388 OA
ATOM     26  H24 MA2 d          -2.649  40.359  17.115  0.00  0.00     0.210 HD
ENDBRANCH  19  25
BRANCH  20  27
ATOM     27  O1  MA2 d          -2.846  43.998  17.815  0.00  0.00    -0.363 OA
ATOM     28  C7  MA2 d          -2.554  45.392  18.099  0.00  0.00     0.204 C 
ENDBRANCH  20  27
BRANCH  22  29
ATOM     29  C6  MA2 d          -5.277  44.209  21.120  0.00  0.00     0.197 C 
BRANCH  29  30
ATOM     30  O6  MA2 d          -4.918  43.496  22.290  0.00  0.00    -0.398 OA
ATOM     31  H26 MA2 d          -3.971  43.475  22.369  0.00  0.00     0.209 HD
ENDBRANCH  29  30
ENDBRANCH  22  29
ENDBRANCH   1  17
TORSDOF 12
