3n7h_ligand

Created by X-TOOL on Fri Sep 26 17:34:50 2014
 31 31  0  0  0  0  0  0  0  0999 V2000
   13.7050    4.1300   14.6610  C 0  0  0  1  0  3
   12.8460    3.0480   14.4360  C 0  0  0  2  0  3
   15.0550    3.8920   14.9340  C 0  0  0  2  0  3
   13.3410    1.7470   14.4470  C 0  0  0  1  0  3
   14.6900    1.5140   14.6970  C 0  0  0  2  0  3
   15.5510    2.5870   14.9370  C 0  0  0  2  0  3
   12.4140    0.5620   14.1720  C 0  0  0  4  0  4
   13.1370    5.5550   14.6580  C 0  0  0  1  0  3
   12.1740    8.0630   12.8880  C 0  0  0  4  0  4
   15.0260    6.3000   13.2120  C 0  0  0  3  0  4
   13.2470    7.9070   13.9640  C 0  0  0  3  0  4
   16.1320    7.1520   13.7660  C 0  0  0  4  0  4
   13.7580    6.5210   13.9260  N 0  0  0  1  0  3
   12.1130    5.7820   15.2990  O 0  0  0  1  0  1
   11.7922    3.2237   14.2526  H 0  0  0  1  0  1
   15.7187    4.7230   15.1440  H 0  0  0  1  0  1
   15.0724    0.4997   14.7054  H 0  0  0  1  0  1
   16.6032    2.4068   15.1254  H 0  0  0  1  0  1
   11.3919    0.9290   13.9972  H 0  0  0  1  0  1
   12.4172   -0.1150   15.0390  H 0  0  0  1  0  1
   12.7661    0.0198   13.2820  H 0  0  0  1  0  1
   11.7844    9.0915   12.9051  H 0  0  0  1  0  1
   11.3535    7.3569   13.0832  H 0  0  0  1  0  1
   12.6114    7.8530   11.9008  H 0  0  0  1  0  1
   15.3093    5.2415   13.3082  H 0  0  0  1  0  1
   14.8843    6.5466   12.1494  H 0  0  0  1  0  1
   12.8124    8.1142   14.9530  H 0  0  0  1  0  1
   14.0703    8.6104   13.7705  H 0  0  0  1  0  1
   17.0594    6.9579   13.2072  H 0  0  0  1  0  1
   16.2858    6.9085   14.8276  H 0  0  0  1  0  1
   15.8608    8.2136   13.6689  H 0  0  0  1  0  1
  1  2  4  0  0  1
  1  3  4  0  0  1
  8  1  1  0  0  2
  2  4  4  0  0  1
  3  6  4  0  0  1
  4  5  4  0  0  1
  4  7  1  0  0  2
  6  5  4  0  0  1
 13  8  1  0  0  2
  8 14  2  0  0  2
 11  9  1  0  0  2
 10 12  1  0  0  2
 13 10  1  0  0  2
 11 13  1  0  0  2
  2 15  1  0  0  2
  3 16  1  0  0  2
  5 17  1  0  0  2
  6 18  1  0  0  2
  7 19  1  0  0  2
  7 20  1  0  0  2
  7 21  1  0  0  2
  9 22  1  0  0  2
  9 23  1  0  0  2
  9 24  1  0  0  2
 10 25  1  0  0  2
 10 26  1  0  0  2
 11 27  1  0  0  2
 11 28  1  0  0  2
 12 29  1  0  0  2
 12 30  1  0  0  2
 12 31  1  0  0  2
M  END
> <MOLECULAR_FORMULA>
C12H17NO

> <MOLECULAR_WEIGHT>
191.1

> <NUM_HB_ATOMS>
1  

> <NUM_ROTOR>
2  

> <XLOGP2>
2.85 

$$$$
