REMARK  0 active torsions:
REMARK  status: ('A' for Active; 'I' for Inactive)
ROOT
ATOM      1  C9  JPZ d           4.704  11.738  46.618  0.00  0.00     0.001 A 
ATOM      2  C8  JPZ d           4.040  12.844  47.151  0.00  0.00     0.002 A 
ATOM      3  C10 JPZ d           4.838  11.590  45.235  0.00  0.00     0.018 A 
ATOM      4  C7  JPZ d           3.502  13.815  46.298  0.00  0.00     0.032 A 
ATOM      5  C4  JPZ d           3.252  14.465  42.723  0.00  0.00     0.209 A 
ATOM      6  C11 JPZ d           4.305  12.558  44.377  0.00  0.00     0.047 A 
ATOM      7  C6  JPZ d           3.639  13.670  44.912  0.00  0.00     0.072 A 
ATOM      8  C2  JPZ d           4.420  12.445  42.983  0.00  0.00     0.192 A 
ATOM      9  N5  JPZ d           3.130  14.605  44.069  0.00  0.00    -0.243 NA
ATOM     10  N3  JPZ d           3.889  13.403  42.181  0.00  0.00    -0.328 N 
ATOM     11  O1  JPZ d           5.037  11.406  42.432  0.00  0.00    -0.171 OA
ATOM     12  H6  JPZ d           3.969  13.323  41.187  0.00  0.00     0.168 HD
ENDROOT
TORSDOF 0
