REMARK  4 active torsions:
REMARK  status: ('A' for Active; 'I' for Inactive)
REMARK    1  A    between atoms: CA_5  and  C_11 
REMARK    2  A    between atoms: CB_6  and  CB1_7 
REMARK    3  A    between atoms: CB1_7  and  CG1_9 
REMARK    4  A    between atoms: CG_8  and  CG2_10 
ROOT
ATOM      1  N   KAI d          -1.001  33.930 105.116  0.00  0.00    -0.060 N 
ATOM      2  CD  KAI d          -0.273  33.480 103.894  0.00  0.00     0.242 C 
ATOM      3  CA  KAI d          -2.026  34.994 104.706  0.00  0.00     0.291 C 
ATOM      4  CB  KAI d          -1.532  35.461 103.319  0.00  0.00     0.046 C 
ATOM      5  CG  KAI d          -0.996  34.137 102.712  0.00  0.00     0.046 C 
ATOM      6  H1  KAI d          -0.348  34.323 105.776  0.00  0.00     0.278 HD
ATOM      7  H2  KAI d          -1.474  33.146 105.538  0.00  0.00     0.278 HD
ENDROOT
BRANCH   4   8
ATOM      8  CB1 KAI d          -0.443  36.555 103.401  0.00  0.00     0.121 C 
BRANCH   8   9
ATOM      9  CG1 KAI d          -0.927  37.970 103.700  0.00  0.00     0.172 C 
ATOM     10  OD1 KAI d          -0.012  38.773 104.068  0.00  0.00    -0.648 OA
ATOM     11  OD2 KAI d          -2.164  38.220 103.573  0.00  0.00    -0.648 OA
ENDBRANCH   8   9
ENDBRANCH   4   8
BRANCH   3  12
ATOM     12  C   KAI d          -3.473  34.379 104.692  0.00  0.00     0.205 C 
ATOM     13  O   KAI d          -3.534  33.234 105.241  0.00  0.00    -0.646 OA
ATOM     14  OXT KAI d          -4.411  35.034 104.160  0.00  0.00    -0.646 OA
ENDBRANCH   3  12
BRANCH   5  15
ATOM     15  CG2 KAI d          -0.182  34.281 101.439  0.00  0.00    -0.087 C 
ATOM     16  CD1 KAI d          -0.897  34.925 100.265  0.00  0.00     0.043 C 
ATOM     17  CD2 KAI d           1.102  33.875 101.337  0.00  0.00     0.014 C 
ENDBRANCH   5  15
TORSDOF 4
