REMARK  5 active torsions:
REMARK  status: ('A' for Active; 'I' for Inactive)
REMARK    1  A    between atoms: CA_2  and  N_1 
REMARK       I    between atoms: N_1  and  C1_13 
REMARK    2  A    between atoms: CB_5  and  CA_2 
REMARK    3  A    between atoms: CA_2  and  C_3 
REMARK    4  A    between atoms: CB_5  and  CG_6 
REMARK       I    between atoms: C1_13  and  N2_15 
REMARK    5  A    between atoms: N2_15  and  O2_16 
ROOT
ATOM      1  CA  INF d          -1.239  31.885  -6.360  0.00  0.00     0.191 C 
ENDROOT
BRANCH   1   2
ATOM      2  CB  INF d          -1.756  32.737  -7.567  0.00  0.00     0.074 C 
BRANCH   2   3
ATOM      3  CG  INF d          -2.031  31.992  -8.870  0.00  0.00    -0.056 A 
ATOM      4  CD1 INF d          -1.035  31.951  -9.893  0.00  0.00     0.007 A 
ATOM      5  CE1 INF d          -1.266  31.264 -11.108  0.00  0.00     0.001 A 
ATOM      6  CZ  INF d          -2.500  30.603 -11.324  0.00  0.00     0.000 A 
ATOM      7  CE2 INF d          -3.501  30.636 -10.320  0.00  0.00     0.001 A 
ATOM      8  CD2 INF d          -3.267  31.326  -9.102  0.00  0.00     0.007 A 
ENDBRANCH   2   3
ENDBRANCH   1   2
BRANCH   1   9
ATOM      9  C   INF d           0.182  31.341  -6.646  0.00  0.00     0.197 C 
ATOM     10  O   INF d           1.161  32.017  -6.655  0.00  0.00    -0.646 OA
ATOM     11  OXT INF d           0.208  30.021  -6.901  0.00  0.00    -0.646 OA
ENDBRANCH   1   9
BRANCH   1  12
ATOM     12  N   INF d          -2.133  30.750  -6.092  0.00  0.00    -0.327 N 
ATOM     13  C1  INF d          -2.751  30.536  -4.914  0.00  0.00     0.340 C 
ATOM     14  N2  INF d          -3.520  29.438  -4.923  0.00  0.00    -0.219 N 
ATOM     15  O1  INF d          -2.639  31.258  -3.931  0.00  0.00    -0.245 OA
ATOM     16  H10 INF d          -4.026  29.177  -4.101  0.00  0.00     0.199 HD
ATOM     17  H1  INF d          -2.293  30.095  -6.831  0.00  0.00     0.165 HD
BRANCH  14  18
ATOM     18  O2  INF d          -3.617  28.653  -6.085  0.00  0.00    -0.286 OA
ATOM     19  H11 INF d          -4.197  27.919  -5.922  0.00  0.00     0.244 HD
ENDBRANCH  14  18
ENDBRANCH   1  12
TORSDOF 5
