REMARK  8 active torsions:
REMARK  status: ('A' for Active; 'I' for Inactive)
REMARK       I    between atoms: C02_2  and  N03_3 
REMARK    1  A    between atoms: C02_2  and  C05_5 
REMARK    2  A    between atoms: C05_5  and  N06_6 
REMARK    3  A    between atoms: C05_5  and  C25_25 
REMARK       I    between atoms: N06_6  and  C07_7 
REMARK    4  A    between atoms: C07_7  and  C09_9 
REMARK    5  A    between atoms: C12_12  and  C15_15 
REMARK    6  A    between atoms: C16_16  and  C17_17 
REMARK    7  A    between atoms: C18_18  and  C19_19 
REMARK    8  A    between atoms: C25_25  and  O27_27 
ROOT
ATOM      1  C09 MOL d          32.204  -9.057 -13.442  0.00  0.00     0.032 A 
ATOM      2  C10 MOL d          31.364  -9.800 -14.314  0.00  0.00     0.018 A 
ATOM      3  C11 MOL d          30.982  -9.270 -15.629  0.00  0.00     0.022 A 
ATOM      4  C12 MOL d          31.494  -8.026 -16.029  0.00  0.00     0.018 A 
ATOM      5  C13 MOL d          32.349  -7.272 -15.147  0.00  0.00     0.022 A 
ATOM      6  C14 MOL d          32.730  -7.793 -13.839  0.00  0.00     0.018 A 
ENDROOT
BRANCH   1   7
ATOM      7  C07 MOL d          32.459  -9.618 -12.074  0.00  0.00     0.252 C 
ATOM      8  N06 MOL d          31.331 -10.311 -11.514  0.00  0.00    -0.341 N 
ATOM      9  H2  MOL d          30.502 -10.424 -12.062  0.00  0.00     0.163 HD
ATOM     10  O08 MOL d          33.434  -9.337 -11.386  0.00  0.00    -0.268 OA
BRANCH   8  11
ATOM     11  C05 MOL d          31.373 -10.846 -10.177  0.00  0.00     0.209 C 
BRANCH  11  12
ATOM     12  C02 MOL d          31.187 -12.341 -10.233  0.00  0.00     0.294 C 
ATOM     13  O01 MOL d          30.157 -12.849 -10.724  0.00  0.00    -0.267 OA
ATOM     14  N03 MOL d          32.110 -13.222  -9.637  0.00  0.00    -0.057 NA
ATOM     15  O04 MOL d          31.809 -14.504  -9.701  0.00  0.00    -0.058 OA
ENDBRANCH  11  12
BRANCH  11  16
ATOM     16  C25 MOL d          30.510 -10.067  -9.178  0.00  0.00     0.146 C 
ATOM     17  C26 MOL d          29.033 -10.126  -9.617  0.00  0.00     0.042 C 
BRANCH  16  18
ATOM     18  O27 MOL d          30.675 -10.664  -7.887  0.00  0.00    -0.393 OA
ATOM     19  H16 MOL d          31.589 -10.619  -7.633  0.00  0.00     0.210 HD
ENDBRANCH  16  18
ENDBRANCH  11  16
ENDBRANCH   8  11
ENDBRANCH   1   7
BRANCH   4  20
ATOM     20  C15 MOL d          31.142  -7.435 -17.268  0.00  0.00    -0.053 C 
ATOM     21  C16 MOL d          30.835  -6.915 -18.290  0.00  0.00    -0.009 C 
BRANCH  21  22
ATOM     22  C17 MOL d          30.465  -6.266 -19.435  0.00  0.00    -0.009 C 
ATOM     23  C18 MOL d          30.135  -5.661 -20.408  0.00  0.00    -0.053 C 
BRANCH  23  24
ATOM     24  C19 MOL d          29.733  -4.914 -21.547  0.00  0.00     0.018 A 
ATOM     25  C20 MOL d          28.408  -4.861 -21.997  0.00  0.00     0.020 A 
ATOM     26  C21 MOL d          28.088  -4.098 -23.122  0.00  0.00     0.001 A 
ATOM     27  C22 MOL d          29.073  -3.361 -23.784  0.00  0.00     0.000 A 
ATOM     28  C23 MOL d          30.384  -3.406 -23.332  0.00  0.00     0.001 A 
ATOM     29  C24 MOL d          30.706  -4.173 -22.215  0.00  0.00     0.020 A 
ENDBRANCH  23  24
ENDBRANCH  21  22
ENDBRANCH   4  20
TORSDOF 8
