REMARK  6 active torsions:
REMARK  status: ('A' for Active; 'I' for Inactive)
REMARK    1  A    between atoms: C3_2  and  C4_3 
REMARK    2  A    between atoms: C3_2  and  N2_34 
REMARK    3  A    between atoms: C7_6  and  C10_7 
REMARK    4  A    between atoms: C17_15  and  C18_14 
REMARK    5  A    between atoms: N19_18  and  C23_22 
REMARK    6  A    between atoms: C23_22  and  C24_23 
ROOT
ATOM      1  C10 UIR d          -1.191   4.445  21.574  0.00  0.00     0.235 C 
ATOM      2  N11 UIR d          -2.176   3.305  21.564  0.00  0.00    -0.057 N 
ATOM      3  C12 UIR d          -2.446   2.826  20.166  0.00  0.00     0.236 C 
ATOM      4  C13 UIR d          -1.511   1.620  19.957  0.00  0.00     0.030 C 
ATOM      5  C14 UIR d          -0.734   1.372  21.234  0.00  0.00     0.035 C 
ATOM      6  C15 UIR d          -1.418   2.227  22.314  0.00  0.00     0.196 C 
ATOM      7  C16 UIR d          -0.309   2.928  23.168  0.00  0.00     0.055 C 
ATOM      8  C17 UIR d          -0.624   2.695  24.695  0.00  0.00     0.098 C 
ATOM      9  N19 UIR d          -1.644   3.660  24.997  0.00  0.00    -0.342 N 
ATOM     10  C20 UIR d          -1.700   4.695  24.087  0.00  0.00     0.227 C 
ATOM     11  O21 UIR d          -2.580   5.626  24.104  0.00  0.00    -0.273 OA
ATOM     12  C22 UIR d          -0.629   4.452  23.003  0.00  0.00     0.121 C 
ATOM     13  H6  UIR d          -3.039   3.554  22.022  0.00  0.00     0.281 HD
ENDROOT
BRANCH   1  14
ATOM     14  C7  UIR d          -1.909   5.649  21.004  0.00  0.00    -0.027 A 
ATOM     15  C8  UIR d          -3.292   5.855  21.151  0.00  0.00     0.010 A 
ATOM     16  C9  UIR d          -3.892   7.054  20.706  0.00  0.00     0.016 A 
ATOM     17  C4  UIR d          -3.117   8.072  20.115  0.00  0.00     0.007 A 
ATOM     18  C5  UIR d          -1.732   7.822  19.939  0.00  0.00     0.016 A 
ATOM     19  C6  UIR d          -1.120   6.640  20.372  0.00  0.00     0.010 A 
BRANCH  17  20
ATOM     20  C3  UIR d          -3.703   9.306  19.677  0.00  0.00     0.102 C 
ATOM     21  N1  UIR d          -5.005   9.576  19.765  0.00  0.00    -0.385 N 
ATOM     22  H1  UIR d          -5.367  10.481  19.433  0.00  0.00     0.157 HD
ATOM     23  H2  UIR d          -5.650   8.879  20.165  0.00  0.00     0.157 HD
BRANCH  20  24
ATOM     24  N2  UIR d          -2.987  10.348  19.114  0.00  0.00    -0.385 N 
ATOM     25  H31 UIR d          -1.968  10.265  18.990  0.00  0.00     0.157 HD
ATOM     26  H32 UIR d          -3.473  11.207  18.819  0.00  0.00     0.157 HD
ENDBRANCH  20  24
ENDBRANCH  17  20
ENDBRANCH   1  14
BRANCH   8  27
ATOM     27  C18 UIR d           0.494   2.730  25.720  0.00  0.00     0.009 A 
ATOM     28  C42 UIR d           0.286   1.804  26.926  0.00  0.00     0.007 A 
ATOM     29  C41 UIR d           1.296   1.409  25.816  0.00  0.00     0.007 A 
ENDBRANCH   8  27
BRANCH   9  30
ATOM     30  C23 UIR d          -2.719   3.693  26.081  0.00  0.00     0.165 C 
BRANCH  30  31
ATOM     31  C24 UIR d          -2.508   4.816  27.101  0.00  0.00    -0.037 A 
ATOM     32  C25 UIR d          -1.327   4.867  27.858  0.00  0.00     0.048 A 
ATOM     33  C26 UIR d          -1.208   5.914  28.868  0.00  0.00     0.105 A 
ATOM     34  O27 UIR d          -0.133   6.143  29.733  0.00  0.00    -0.323 OA
ATOM     35  C30 UIR d          -2.238   6.847  29.079  0.00  0.00     0.105 A 
ATOM     36  C28 UIR d          -0.543   7.306  30.508  0.00  0.00     0.352 A 
ATOM     37  O29 UIR d          -1.875   7.725  30.078  0.00  0.00    -0.323 OA
ATOM     38  C31 UIR d          -3.420   6.787  28.333  0.00  0.00     0.040 A 
ATOM     39  C32 UIR d          -3.540   5.781  27.344  0.00  0.00     0.012 A 
ENDBRANCH  30  31
ENDBRANCH   9  30
TORSDOF 6
