REMARK  14 active torsions:
REMARK  status: ('A' for Active; 'I' for Inactive)
REMARK    1  A    between atoms: N2_50  and  C2_2 
REMARK    2  A    between atoms: C2_2  and  C20_8 
REMARK    3  A    between atoms: C3_3  and  C31_22 
REMARK    4  A    between atoms: C4_4  and  O4_59 
REMARK    5  A    between atoms: C5_5  and  O5_60 
REMARK    6  A    between atoms: C6_6  and  C61_29 
REMARK    7  A    between atoms: N7_51  and  C7_7 
REMARK    8  A    between atoms: C7_7  and  C70_36 
REMARK    9  A    between atoms: C22_10  and  C26_14 
REMARK       I    between atoms: C26_14  and  N26_52 
REMARK   10  A    between atoms: N26_52  and  C27_15 
REMARK   11  A    between atoms: C31_22  and  C32_23 
REMARK   12  A    between atoms: C61_29  and  C62_30 
REMARK   13  A    between atoms: C72_38  and  C76_42 
REMARK       I    between atoms: C76_42  and  N76_55 
REMARK   14  A    between atoms: N76_55  and  C77_43 
ROOT
ATOM      1  C1  MOL d          -9.042  15.605  27.839  0.00  0.00     0.322 C 
ATOM      2  C3  MOL d         -11.039  16.771  28.804  0.00  0.00     0.124 C 
ATOM      3  C4  MOL d         -10.787  18.252  28.595  0.00  0.00     0.172 C 
ATOM      4  C5  MOL d         -10.376  18.493  27.160  0.00  0.00     0.172 C 
ATOM      5  C6  MOL d          -8.989  17.947  26.931  0.00  0.00     0.124 C 
ATOM      6  N2  MOL d          -9.863  15.885  28.886  0.00  0.00    -0.322 N 
ATOM      7  N7  MOL d          -8.838  16.474  26.827  0.00  0.00    -0.322 N 
ATOM      8  O1  MOL d          -8.462  14.528  27.808  0.00  0.00    -0.247 OA
ENDROOT
BRANCH   6   9
ATOM      9  C2  MOL d          -9.757  15.070  30.107  0.00  0.00     0.166 C 
BRANCH   9  10
ATOM     10  C20 MOL d          -9.701  15.825  31.422  0.00  0.00    -0.039 A 
ATOM     11  C25 MOL d          -8.900  16.977  31.572  0.00  0.00     0.009 A 
ATOM     12  C24 MOL d          -8.803  17.620  32.819  0.00  0.00     0.002 A 
ATOM     13  C23 MOL d          -9.514  17.104  33.916  0.00  0.00     0.017 A 
ATOM     14  C22 MOL d         -10.312  15.961  33.770  0.00  0.00     0.033 A 
ATOM     15  C21 MOL d         -10.415  15.324  32.520  0.00  0.00     0.026 A 
BRANCH  14  16
ATOM     16  C26 MOL d         -11.014  15.411  34.969  0.00  0.00     0.270 C 
ATOM     17  O26 MOL d         -11.321  16.084  35.937  0.00  0.00    -0.267 OA
ATOM     18  N26 MOL d         -11.237  14.087  34.902  0.00  0.00    -0.153 N 
ATOM     19  H39 MOL d         -11.119  13.645  34.013  0.00  0.00     0.187 HD
BRANCH  18  20
ATOM     20  C27 MOL d         -11.640  13.239  36.032  0.00  0.00     0.708 A 
ATOM     21  N3  MOL d         -11.837  13.688  37.287  0.00  0.00    -0.187 N 
ATOM     22  C29 MOL d         -12.092  12.598  38.073  0.00  0.00     0.078 A 
ATOM     23  H40 MOL d         -11.802  14.670  37.597  0.00  0.00     0.184 HD
ATOM     24  C28 MOL d         -12.039  11.412  37.168  0.00  0.00     0.103 A 
ATOM     25  C9  MOL d         -12.359  12.412  39.445  0.00  0.00     0.032 A 
ATOM     26  N27 MOL d         -11.756  11.899  35.919  0.00  0.00    -0.062 NA
ATOM     27  C14 MOL d         -12.252  10.124  37.695  0.00  0.00     0.034 A 
ATOM     28  C13 MOL d         -12.513   9.980  39.069  0.00  0.00     0.002 A 
ATOM     29  C11 MOL d         -12.565  11.103  39.927  0.00  0.00     0.002 A 
ENDBRANCH  18  20
ENDBRANCH  14  16
ENDBRANCH   9  10
ENDBRANCH   6   9
BRANCH   2  30
ATOM     30  C31 MOL d         -12.098  16.131  27.860  0.00  0.00     0.066 C 
BRANCH  30  31
ATOM     31  C32 MOL d         -12.820  14.938  28.454  0.00  0.00    -0.056 A 
ATOM     32  C37 MOL d         -13.823  15.149  29.433  0.00  0.00     0.007 A 
ATOM     33  C36 MOL d         -14.478  14.046  30.036  0.00  0.00     0.001 A 
ATOM     34  C35 MOL d         -14.131  12.728  29.655  0.00  0.00     0.000 A 
ATOM     35  C34 MOL d         -13.130  12.515  28.673  0.00  0.00     0.001 A 
ATOM     36  C33 MOL d         -12.475  13.618  28.070  0.00  0.00     0.007 A 
ENDBRANCH  30  31
ENDBRANCH   2  30
BRANCH   7  37
ATOM     37  C7  MOL d          -8.186  15.972  25.614  0.00  0.00     0.166 C 
BRANCH  37  38
ATOM     38  C70 MOL d          -8.858  16.327  24.314  0.00  0.00    -0.039 A 
ATOM     39  C75 MOL d         -10.268  16.312  24.163  0.00  0.00     0.009 A 
ATOM     40  C74 MOL d         -10.854  16.580  22.912  0.00  0.00     0.002 A 
ATOM     41  C73 MOL d         -10.027  16.884  21.811  0.00  0.00     0.017 A 
ATOM     42  C72 MOL d          -8.623  16.913  21.966  0.00  0.00     0.033 A 
ATOM     43  C71 MOL d          -8.034  16.624  23.218  0.00  0.00     0.026 A 
BRANCH  42  44
ATOM     44  C76 MOL d          -7.766  17.293  20.800  0.00  0.00     0.270 C 
ATOM     45  N76 MOL d          -6.494  16.845  20.857  0.00  0.00    -0.153 N 
ATOM     46  H41 MOL d          -6.162  16.472  21.723  0.00  0.00     0.187 HD
ATOM     47  O76 MOL d          -8.192  17.934  19.856  0.00  0.00    -0.267 OA
BRANCH  45  48
ATOM     48  C77 MOL d          -5.567  16.877  19.707  0.00  0.00     0.708 A 
ATOM     49  N1  MOL d          -5.844  17.467  18.519  0.00  0.00    -0.187 N 
ATOM     50  C79 MOL d          -4.924  17.034  17.609  0.00  0.00     0.078 A 
ATOM     51  H42 MOL d          -6.614  18.126  18.335  0.00  0.00     0.184 HD
ATOM     52  C78 MOL d          -4.017  16.114  18.359  0.00  0.00     0.103 A 
ATOM     53  C15 MOL d          -4.720  17.243  16.230  0.00  0.00     0.032 A 
ATOM     54  N77 MOL d          -4.485  16.088  19.658  0.00  0.00    -0.062 NA
ATOM     55  C12 MOL d          -2.960  15.459  17.666  0.00  0.00     0.034 A 
ATOM     56  C10 MOL d          -2.797  15.690  16.277  0.00  0.00     0.002 A 
ATOM     57  C8  MOL d          -3.662  16.568  15.573  0.00  0.00     0.002 A 
ENDBRANCH  45  48
ENDBRANCH  42  44
ENDBRANCH  37  38
ENDBRANCH   7  37
BRANCH   3  58
ATOM     58  O4  MOL d         -12.001  18.905  28.879  0.00  0.00    -0.391 OA
ATOM     59  H43 MOL d         -11.891  19.841  28.761  0.00  0.00     0.210 HD
ENDBRANCH   3  58
BRANCH   5  60
ATOM     60  C61 MOL d          -7.909  18.514  27.884  0.00  0.00     0.066 C 
BRANCH  60  61
ATOM     61  C62 MOL d          -6.491  18.341  27.389  0.00  0.00    -0.056 A 
ATOM     62  C67 MOL d          -5.662  17.343  27.964  0.00  0.00     0.007 A 
ATOM     63  C66 MOL d          -4.374  17.139  27.440  0.00  0.00     0.001 A 
ATOM     64  C65 MOL d          -3.919  17.920  26.356  0.00  0.00     0.000 A 
ATOM     65  C64 MOL d          -4.737  18.921  25.786  0.00  0.00     0.001 A 
ATOM     66  C63 MOL d          -6.029  19.140  26.307  0.00  0.00     0.007 A 
ENDBRANCH  60  61
ENDBRANCH   5  60
BRANCH   4  67
ATOM     67  O5  MOL d         -10.307  19.860  26.890  0.00  0.00    -0.391 OA
ATOM     68  H44 MOL d         -11.159  20.254  27.036  0.00  0.00     0.210 HD
ENDBRANCH   4  67
TORSDOF 14
