REMARK  7 active torsions:
REMARK  status: ('A' for Active; 'I' for Inactive)
REMARK    1  A    between atoms: C1_1  and  O1_2 
REMARK    2  A    between atoms: C2_4  and  O2_3 
REMARK    3  A    between atoms: O2_3  and  PAM_9 
REMARK    4  A    between atoms: C3_5  and  O3_12 
REMARK    5  A    between atoms: C5_6  and  C6_7 
REMARK    6  A    between atoms: C6_7  and  O6_15 
REMARK    7  A    between atoms: C4_13  and  O4_14 
ROOT
ATOM      1  C1  ALX d         -16.253 -27.487  17.155  0.00  0.00     0.289 C 
ATOM      2  C2  ALX d         -15.535 -27.714  18.459  0.00  0.00     0.221 C 
ATOM      3  C3  ALX d         -14.075 -28.029  18.268  0.00  0.00     0.183 C 
ATOM      4  C5  ALX d         -14.645 -28.691  15.958  0.00  0.00     0.179 C 
ATOM      5  C4  ALX d         -13.856 -29.049  17.189  0.00  0.00     0.180 C 
ATOM      6  O5  ALX d         -15.991 -28.508  16.261  0.00  0.00    -0.349 OA
ENDROOT
BRANCH   2   7
ATOM      7  O2  ALX d         -15.701 -26.631  19.303  0.00  0.00    -0.270 OA
BRANCH   7   8
ATOM      8  PAM ALX d         -16.655 -26.662  20.555  0.00  0.00     0.422 P 
ATOM      9  OAN ALX d         -17.325 -25.339  20.731  0.00  0.00    -0.617 OA
ATOM     10  OAO ALX d         -17.726 -27.695  20.509  0.00  0.00    -0.617 OA
ATOM     11  OAP ALX d         -15.901 -26.943  21.819  0.00  0.00    -0.617 OA
ENDBRANCH   7   8
ENDBRANCH   2   7
BRANCH   1  12
ATOM     12  O1  ALX d         -15.930 -26.262  16.593  0.00  0.00    -0.368 OA
ATOM     13  H2  ALX d         -16.448 -26.128  15.808  0.00  0.00     0.212 HD
ENDBRANCH   1  12
BRANCH   3  14
ATOM     14  O3  ALX d         -13.469 -28.445  19.455  0.00  0.00    -0.390 OA
ATOM     15  H8  ALX d         -12.552 -28.633  19.292  0.00  0.00     0.210 HD
ENDBRANCH   3  14
BRANCH   5  16
ATOM     16  O4  ALX d         -12.508 -29.090  16.890  0.00  0.00    -0.390 OA
ATOM     17  H10 ALX d         -12.018 -29.316  17.672  0.00  0.00     0.210 HD
ENDBRANCH   5  16
BRANCH   4  18
ATOM     18  C6  ALX d         -14.513 -29.737  14.897  0.00  0.00     0.198 C 
BRANCH  18  19
ATOM     19  O6  ALX d         -14.965 -31.002  15.191  0.00  0.00    -0.398 OA
ATOM     20  H11 ALX d         -14.488 -31.341  15.939  0.00  0.00     0.209 HD
ENDBRANCH  18  19
ENDBRANCH   4  18
TORSDOF 7
