REMARK  12 active torsions:
REMARK  status: ('A' for Active; 'I' for Inactive)
REMARK    1  A    between atoms: S_2  and  C17_4 
REMARK    2  A    between atoms: S_2  and  C16_11 
REMARK    3  A    between atoms: C17_4  and  C18_5 
REMARK    4  A    between atoms: C16_11  and  CA_12 
REMARK    5  A    between atoms: CA_12  and  N_13 
REMARK    6  A    between atoms: CA_12  and  C_22 
REMARK       I    between atoms: N_13  and  C11_14 
REMARK       I    between atoms: C11_14  and  N3_16 
REMARK       I    between atoms: C_22  and  N2_24 
REMARK    7  A    between atoms: N2_24  and  C9_25 
REMARK    8  A    between atoms: C9_25  and  C8_27 
REMARK    9  A    between atoms: C8_27  and  N1_28 
REMARK   10  A    between atoms: N1_28  and  C7_29 
REMARK   11  A    between atoms: C2_34  and  O1_35 
REMARK   12  A    between atoms: O1_35  and  C1_36 
ROOT
ATOM      1  CA  GNQ d          35.567  28.569  15.825  0.00  0.00     0.192 C 
ENDROOT
BRANCH   1   2
ATOM      2  C16 GNQ d          35.228  27.788  17.102  0.00  0.00     0.175 C 
BRANCH   2   3
ATOM      3  S   GNQ d          33.988  28.475  18.000  0.00  0.00     0.150 S 
ATOM      4  O5  GNQ d          34.122  27.940  19.337  0.00  0.00    -0.228 OA
ATOM      5  O4  GNQ d          34.052  29.908  17.899  0.00  0.00    -0.228 OA
BRANCH   3   6
ATOM      6  C17 GNQ d          32.602  27.875  17.293  0.00  0.00     0.178 C 
BRANCH   6   7
ATOM      7  C18 GNQ d          31.320  28.337  17.918  0.00  0.00    -0.044 A 
ATOM      8  C20 GNQ d          30.747  29.518  17.454  0.00  0.00     0.008 A 
ATOM      9  C21 GNQ d          29.542  29.971  17.985  0.00  0.00     0.001 A 
ATOM     10  C22 GNQ d          28.930  29.208  18.962  0.00  0.00     0.000 A 
ATOM     11  C23 GNQ d          29.502  28.023  19.419  0.00  0.00     0.001 A 
ATOM     12  C19 GNQ d          30.711  27.561  18.897  0.00  0.00     0.008 A 
ENDBRANCH   6   7
ENDBRANCH   3   6
ENDBRANCH   2   3
ENDBRANCH   1   2
BRANCH   1  13
ATOM     13  N   GNQ d          34.539  28.387  14.776  0.00  0.00    -0.329 N 
ATOM     14  C11 GNQ d          34.603  29.149  13.661  0.00  0.00     0.319 C 
ATOM     15  O3  GNQ d          35.503  29.992  13.535  0.00  0.00    -0.247 OA
ATOM     16  N3  GNQ d          33.726  28.991  12.656  0.00  0.00    -0.330 N 
ATOM     17  C15 GNQ d          33.817  29.872  11.482  0.00  0.00     0.153 C 
ATOM     18  C12 GNQ d          32.576  28.083  12.718  0.00  0.00     0.153 C 
ATOM     19  C14 GNQ d          33.530  29.090  10.209  0.00  0.00     0.187 C 
ATOM     20  O2  GNQ d          32.231  28.524  10.340  0.00  0.00    -0.388 OA
ATOM     21  C13 GNQ d          32.279  27.486  11.339  0.00  0.00     0.187 C 
ATOM     22  H11 GNQ d          33.810  27.712  14.890  0.00  0.00     0.165 HD
ENDBRANCH   1  13
BRANCH   1  23
ATOM     23  C   GNQ d          36.846  28.056  15.209  0.00  0.00     0.241 C 
ATOM     24  O   GNQ d          36.853  26.990  14.609  0.00  0.00    -0.271 OA
ATOM     25  N2  GNQ d          37.939  28.809  15.316  0.00  0.00    -0.353 N 
ATOM     26  H20 GNQ d          37.918  29.661  15.839  0.00  0.00     0.163 HD
BRANCH  25  27
ATOM     27  C9  GNQ d          39.168  28.376  14.660  0.00  0.00     0.098 C 
ATOM     28  C10 GNQ d          39.225  29.156  13.342  0.00  0.00     0.034 C 
BRANCH  27  29
ATOM     29  C8  GNQ d          40.376  28.632  15.544  0.00  0.00     0.144 C 
BRANCH  29  30
ATOM     30  N1  GNQ d          41.208  29.560  14.784  0.00  0.00    -0.388 N 
ATOM     31  H27 GNQ d          40.787  30.149  14.051  0.00  0.00     0.159 HD
BRANCH  30  32
ATOM     32  C7  GNQ d          42.529  29.645  15.044  0.00  0.00     0.028 A 
ATOM     33  C6  GNQ d          42.924  29.438  16.341  0.00  0.00     0.032 A 
ATOM     34  C5  GNQ d          44.251  29.522  16.644  0.00  0.00     0.039 A 
ATOM     35  C2  GNQ d          45.251  29.786  15.714  0.00  0.00     0.078 A 
ATOM     36  C3  GNQ d          44.840  30.012  14.400  0.00  0.00     0.039 A 
ATOM     37  C4  GNQ d          43.483  29.930  14.063  0.00  0.00     0.032 A 
BRANCH  35  38
ATOM     38  O1  GNQ d          46.577  29.853  16.135  0.00  0.00    -0.255 OA
BRANCH  38  39
ATOM     39  C1  GNQ d          47.672  28.957  15.807  0.00  0.00     0.530 C 
ATOM     40  F1  GNQ d          47.513  27.743  16.311  0.00  0.00    -0.144 F 
ATOM     41  F2  GNQ d          47.786  28.846  14.497  0.00  0.00    -0.144 F 
ATOM     42  F3  GNQ d          48.807  29.448  16.294  0.00  0.00    -0.144 F 
ENDBRANCH  38  39
ENDBRANCH  35  38
ENDBRANCH  30  32
ENDBRANCH  29  30
ENDBRANCH  27  29
ENDBRANCH  25  27
ENDBRANCH   1  23
TORSDOF 12
