REMARK  8 active torsions:
REMARK  status: ('A' for Active; 'I' for Inactive)
REMARK    1  A    between atoms: S_1  and  C1_2 
REMARK    2  A    between atoms: N_14  and  S_1 
REMARK    3  A    between atoms: CA_13  and  C_11 
REMARK       I    between atoms: C_11  and  N1_25 
REMARK    4  A    between atoms: N_14  and  CA_13 
REMARK    5  A    between atoms: CA_13  and  CB_15 
REMARK    6  A    between atoms: CB_15  and  CG_16 
REMARK    7  A    between atoms: CE1_20  and  CF_21 
REMARK    8  A    between atoms: CF_21  and  NG2_22 
ROOT
ATOM      1  CA  MOL d          -3.980   4.122  22.069  0.00  0.00     0.189 C 
ENDROOT
BRANCH   1   2
ATOM      2  C   MOL d          -2.678   4.508  22.802  0.00  0.00     0.243 C 
ATOM      3  O   MOL d          -2.595   5.642  23.304  0.00  0.00    -0.271 OA
ATOM      4  N1  MOL d          -1.638   3.654  22.847  0.00  0.00    -0.350 N 
ATOM      5  C6  MOL d          -0.353   4.058  23.390  0.00  0.00     0.126 C 
ATOM      6  C2  MOL d          -1.609   2.359  22.159  0.00  0.00     0.126 C 
ATOM      7  C5  MOL d          -0.073   3.114  24.526  0.00  0.00     0.020 C 
ATOM      8  C4  MOL d           0.054   1.749  23.904  0.00  0.00     0.003 C 
ATOM      9  C3  MOL d          -1.234   1.336  23.208  0.00  0.00     0.020 C 
ENDBRANCH   1   2
BRANCH   1  10
ATOM     10  N   MOL d          -5.157   4.781  22.635  0.00  0.00    -0.301 N 
ATOM     11  H9  MOL d          -5.502   5.627  22.229  0.00  0.00     0.173 HD
BRANCH  10  12
ATOM     12  S   MOL d          -5.930   4.107  23.976  0.00  0.00     0.259 S 
ATOM     13  O2  MOL d          -7.038   5.067  24.381  0.00  0.00    -0.201 OA
ATOM     14  O1  MOL d          -6.445   2.728  23.583  0.00  0.00    -0.201 OA
BRANCH  12  15
ATOM     15  C1  MOL d          -4.807   4.007  25.383  0.00  0.00     0.079 A 
ATOM     16  C6  MOL d          -4.200   2.817  25.753  0.00  0.00     0.026 A 
ATOM     17  C5  MOL d          -3.224   2.850  26.735  0.00  0.00     0.008 A 
ATOM     18  C4  MOL d          -2.887   4.067  27.329  0.00  0.00    -0.062 A 
ATOM     19  C7  MOL d          -1.782   4.141  28.386  0.00  0.00     0.048 C 
ATOM     20  C3  MOL d          -3.528   5.241  26.981  0.00  0.00     0.008 A 
ATOM     21  C2  MOL d          -4.493   5.205  26.005  0.00  0.00     0.026 A 
ENDBRANCH  12  15
ENDBRANCH  10  12
ENDBRANCH   1  10
BRANCH   1  22
ATOM     22  CB  MOL d          -3.887   4.455  20.569  0.00  0.00     0.074 C 
BRANCH  22  23
ATOM     23  CG  MOL d          -3.097   5.716  20.198  0.00  0.00    -0.055 A 
ATOM     24  CD2 MOL d          -1.756   5.635  19.873  0.00  0.00     0.007 A 
ATOM     25  CE2 MOL d          -1.087   6.779  19.508  0.00  0.00     0.002 A 
ATOM     26  CZ  MOL d          -1.715   8.007  19.452  0.00  0.00     0.015 A 
ATOM     27  CE1 MOL d          -3.070   8.122  19.770  0.00  0.00     0.007 A 
ATOM     28  CD1 MOL d          -3.708   6.953  20.138  0.00  0.00     0.022 A 
BRANCH  27  29
ATOM     29  CF  MOL d          -3.740   9.355  19.697  0.00  0.00     0.102 C 
ATOM     30  NG1 MOL d          -3.057  10.451  19.320  0.00  0.00    -0.385 N 
ATOM     31  H17 MOL d          -2.060  10.377  19.073  0.00  0.00     0.157 HD
ATOM     32  H18 MOL d          -3.531  11.364  19.278  0.00  0.00     0.157 HD
BRANCH  29  33
ATOM     33  NG2 MOL d          -5.045   9.436  20.023  0.00  0.00    -0.385 N 
ATOM     34  H15 MOL d          -5.534  10.341  19.969  0.00  0.00     0.157 HD
ATOM     35  H16 MOL d          -5.553   8.593  20.326  0.00  0.00     0.157 HD
ENDBRANCH  29  33
ENDBRANCH  27  29
ENDBRANCH  22  23
ENDBRANCH   1  22
TORSDOF 8
