REMARK  10 active torsions:
REMARK  status: ('A' for Active; 'I' for Inactive)
REMARK    1  A    between atoms: S_1  and  C2_5 
REMARK    2  A    between atoms: N_14  and  S_1 
REMARK    3  A    between atoms: CA_15  and  N_14 
REMARK    4  A    between atoms: C_16  and  CA_15 
REMARK       I    between atoms: N_29  and  C_16 
REMARK    5  A    between atoms: CA_19  and  C_18 
REMARK       I    between atoms: C_18  and  N1_32 
REMARK    6  A    between atoms: CA_19  and  CB_20 
REMARK    7  A    between atoms: N_29  and  CA_19 
REMARK    8  A    between atoms: CB_20  and  CG_21 
REMARK    9  A    between atoms: CZ_26  and  CF_27 
REMARK   10  A    between atoms: CF_27  and  NG1_30 
ROOT
ATOM      1  CA  MOL d          -1.270   4.160  21.952  0.00  0.00     0.181 C 
ENDROOT
BRANCH   1   2
ATOM      2  C   MOL d          -0.428   2.907  22.194  0.00  0.00     0.242 C 
ATOM      3  O   MOL d          -0.202   2.116  21.272  0.00  0.00    -0.271 OA
ATOM      4  N1  MOL d           0.074   2.687  23.420  0.00  0.00    -0.350 N 
ATOM      5  C2  MOL d           0.019   3.672  24.488  0.00  0.00     0.126 C 
ATOM      6  C6  MOL d           0.905   1.536  23.745  0.00  0.00     0.126 C 
ATOM      7  C3  MOL d          -0.704   3.033  25.650  0.00  0.00     0.020 C 
ATOM      8  C4  MOL d           0.155   1.880  26.146  0.00  0.00     0.003 C 
ATOM      9  C5  MOL d           0.301   0.904  24.982  0.00  0.00     0.020 C 
ENDBRANCH   1   2
BRANCH   1  10
ATOM     10  CB  MOL d          -1.333   4.480  20.450  0.00  0.00     0.073 C 
BRANCH  10  11
ATOM     11  CG  MOL d          -2.002   5.806  20.150  0.00  0.00    -0.056 A 
ATOM     12  CD1 MOL d          -3.381   5.901  20.092  0.00  0.00     0.008 A 
ATOM     13  CE1 MOL d          -3.993   7.120  19.871  0.00  0.00     0.016 A 
ATOM     14  CZ  MOL d          -3.237   8.268  19.739  0.00  0.00     0.007 A 
ATOM     15  CE2 MOL d          -1.853   8.155  19.797  0.00  0.00     0.016 A 
ATOM     16  CD2 MOL d          -1.236   6.941  20.023  0.00  0.00     0.008 A 
BRANCH  14  17
ATOM     17  CF  MOL d          -3.833   9.527  19.579  0.00  0.00     0.102 C 
ATOM     18  NG2 MOL d          -3.067  10.544  19.167  0.00  0.00    -0.385 N 
ATOM     19  H21 MOL d          -2.078  10.381  18.929  0.00  0.00     0.157 HD
ATOM     20  H22 MOL d          -3.466  11.490  19.088  0.00  0.00     0.157 HD
BRANCH  17  21
ATOM     21  NG1 MOL d          -5.127   9.723  19.894  0.00  0.00    -0.385 N 
ATOM     22  H19 MOL d          -5.552  10.653  19.771  0.00  0.00     0.157 HD
ATOM     23  H20 MOL d          -5.692   8.943  20.258  0.00  0.00     0.157 HD
ENDBRANCH  17  21
ENDBRANCH  14  17
ENDBRANCH  10  11
ENDBRANCH   1  10
BRANCH   1  24
ATOM     24  N   MOL d          -2.595   3.903  22.499  0.00  0.00    -0.346 N 
ATOM     25  C   MOL d          -3.281   4.714  23.323  0.00  0.00     0.236 C 
ATOM     26  O   MOL d          -2.960   5.863  23.650  0.00  0.00    -0.272 OA
ATOM     27  H18 MOL d          -3.035   3.044  22.238  0.00  0.00     0.163 HD
BRANCH  25  28
ATOM     28  CA  MOL d          -4.609   4.087  23.730  0.00  0.00     0.235 C 
BRANCH  28  29
ATOM     29  N   MOL d          -5.552   5.020  24.298  0.00  0.00    -0.307 N 
ATOM     30  H8  MOL d          -5.997   5.741  23.767  0.00  0.00     0.172 HD
BRANCH  29  31
ATOM     31  S   MOL d          -5.827   4.782  25.917  0.00  0.00     0.259 S 
ATOM     32  O1  MOL d          -6.883   5.767  26.435  0.00  0.00    -0.201 OA
ATOM     33  O2  MOL d          -6.385   3.362  25.952  0.00  0.00    -0.201 OA
BRANCH  31  34
ATOM     34  C2  MOL d          -4.366   4.956  26.943  0.00  0.00     0.080 A 
ATOM     35  C3  MOL d          -3.874   6.218  27.129  0.00  0.00     0.026 A 
ATOM     36  C4  MOL d          -2.823   6.431  27.991  0.00  0.00     0.014 A 
ATOM     37  C10 MOL d          -2.232   5.365  28.630  0.00  0.00    -0.026 A 
ATOM     38  C5  MOL d          -1.166   5.608  29.471  0.00  0.00     0.012 A 
ATOM     39  C9  MOL d          -2.686   4.086  28.424  0.00  0.00    -0.025 A 
ATOM     40  C6  MOL d          -0.538   4.541  30.087  0.00  0.00     0.001 A 
ATOM     41  C7  MOL d          -1.003   3.254  29.890  0.00  0.00     0.001 A 
ATOM     42  C8  MOL d          -2.096   3.018  29.071  0.00  0.00     0.012 A 
ATOM     43  C1  MOL d          -3.761   3.904  27.580  0.00  0.00     0.037 A 
ENDBRANCH  31  34
ENDBRANCH  29  31
ENDBRANCH  28  29
ENDBRANCH  25  28
ENDBRANCH   1  24
TORSDOF 10
