REMARK  10 active torsions:
REMARK  status: ('A' for Active; 'I' for Inactive)
REMARK    1  A    between atoms: O3B_8  and  PG_1 
REMARK    2  A    between atoms: PB_5  and  O3B_8 
REMARK    3  A    between atoms: O3A_12  and  PB_5 
REMARK    4  A    between atoms: PA_9  and  O3A_12 
REMARK    5  A    between atoms: PA_9  and  O5'_13 
REMARK    6  A    between atoms: O5'_13  and  C5'_14 
REMARK    7  A    between atoms: C5'_14  and  C4'_15 
REMARK    8  A    between atoms: C3'_17  and  O3'_18 
REMARK    9  A    between atoms: C2'_19  and  O2'_20 
REMARK   10  A    between atoms: C1'_21  and  N9_22 
ROOT
ATOM      1  C4' ATP d          34.720 -51.607  -6.048  0.00  0.00     0.180 C 
ATOM      2  O4' ATP d          33.798 -52.153  -5.116  0.00  0.00    -0.353 OA
ATOM      3  C3' ATP d          34.181 -52.005  -7.409  0.00  0.00     0.182 C 
ATOM      4  C2' ATP d          33.567 -53.355  -7.124  0.00  0.00     0.198 C 
ATOM      5  C1' ATP d          33.056 -53.214  -5.704  0.00  0.00     0.262 C 
ENDROOT
BRANCH   1   6
ATOM      6  C5' ATP d          34.819 -50.102  -5.841  0.00  0.00     0.216 C 
BRANCH   6   7
ATOM      7  O5' ATP d          35.425 -49.957  -4.556  0.00  0.00    -0.287 OA
BRANCH   7   8
ATOM      8  PA  ATP d          36.262 -48.662  -4.162  0.00  0.00     0.417 P 
ATOM      9  O1A ATP d          36.322 -47.710  -5.333  0.00  0.00    -0.624 OA
ATOM     10  O2A ATP d          35.644 -48.192  -2.866  0.00  0.00    -0.624 OA
BRANCH   8  11
ATOM     11  O3A ATP d          37.777 -49.158  -3.886  0.00  0.00    -0.180 OA
BRANCH  11  12
ATOM     12  PB  ATP d          38.321 -50.693  -3.976  0.00  0.00     0.428 P 
ATOM     13  O1B ATP d          38.262 -51.142  -5.421  0.00  0.00    -0.624 OA
ATOM     14  O2B ATP d          37.564 -51.486  -2.962  0.00  0.00    -0.624 OA
BRANCH  12  15
ATOM     15  O3B ATP d          39.863 -50.448  -3.560  0.00  0.00    -0.173 OA
BRANCH  15  16
ATOM     16  PG  ATP d          41.138 -50.403  -4.561  0.00  0.00     0.431 P 
ATOM     17  O1G ATP d          41.512 -51.862  -4.727  0.00  0.00    -0.616 OA
ATOM     18  O2G ATP d          42.169 -49.553  -3.866  0.00  0.00    -0.616 OA
ATOM     19  O3G ATP d          40.727 -49.756  -5.854  0.00  0.00    -0.616 OA
ENDBRANCH  15  16
ENDBRANCH  12  15
ENDBRANCH  11  12
ENDBRANCH   8  11
ENDBRANCH   7   8
ENDBRANCH   6   7
ENDBRANCH   1   6
BRANCH   3  20
ATOM     20  O3' ATP d          35.249 -52.004  -8.354  0.00  0.00    -0.390 OA
ATOM     21  H5  ATP d          35.914 -52.625  -8.079  0.00  0.00     0.210 HD
ENDBRANCH   3  20
BRANCH   5  22
ATOM     22  N9  ATP d          31.616 -52.860  -5.703  0.00  0.00    -0.294 N 
ATOM     23  C8  ATP d          31.099 -51.623  -5.543  0.00  0.00     0.214 A 
ATOM     24  N7  ATP d          29.749 -51.650  -5.591  0.00  0.00    -0.236 NA
ATOM     25  C5  ATP d          29.379 -52.929  -5.793  0.00  0.00     0.149 A 
ATOM     26  C6  ATP d          28.106 -53.658  -5.955  0.00  0.00     0.155 A 
ATOM     27  C4  ATP d          30.619 -53.717  -5.867  0.00  0.00     0.167 A 
ATOM     28  N6  ATP d          26.905 -53.026  -5.893  0.00  0.00    -0.382 N 
ATOM     29  N1  ATP d          28.174 -54.993  -6.154  0.00  0.00    -0.222 NA
ATOM     30  H10 ATP d          26.034 -53.563  -6.010  0.00  0.00     0.157 HD
ATOM     31  H11 ATP d          26.866 -52.010  -5.729  0.00  0.00     0.157 HD
ATOM     32  C2  ATP d          29.355 -55.641  -6.208  0.00  0.00     0.237 A 
ATOM     33  N3  ATP d          30.544 -55.044  -6.083  0.00  0.00    -0.222 NA
ENDBRANCH   5  22
BRANCH   4  34
ATOM     34  O2' ATP d          34.563 -54.387  -7.094  0.00  0.00    -0.388 OA
ATOM     35  H7  ATP d          35.002 -54.426  -7.936  0.00  0.00     0.210 HD
ENDBRANCH   4  34
TORSDOF 10
