REMARK  13 active torsions:
REMARK  status: ('A' for Active; 'I' for Inactive)
REMARK    1  A    between atoms: C21_21  and  C11_11 
REMARK    2  A    between atoms: C12_12  and  C22_22 
REMARK    3  A    between atoms: C31_31  and  C13_13 
REMARK    4  A    between atoms: C14_14  and  C26_26 
REMARK    5  A    between atoms: C27_27  and  C15_15 
REMARK    6  A    between atoms: C18_18  and  O39_39 
REMARK    7  A    between atoms: C28_28  and  C20_20 
REMARK       I    between atoms: N32_32  and  C21_21 
REMARK    8  A    between atoms: C26_26  and  N33_33 
REMARK    9  A    between atoms: N33_33  and  C27_27 
REMARK   10  A    between atoms: N33_33  and  C28_28 
REMARK   11  A    between atoms: C30_30  and  C29_29 
REMARK   12  A    between atoms: C31_31  and  C30_30 
REMARK   13  A    between atoms: C31_31  and  N32_32 
ROOT
ATOM      1  C1  O4N d         -11.675  35.231   7.014  0.00  0.00     0.001 A 
ATOM      2  C2  O4N d         -12.785  34.842   6.294  0.00  0.00     0.001 A 
ATOM      3  C3  O4N d         -10.621  35.902   6.341  0.00  0.00     0.017 A 
ATOM      4  C4  O4N d         -12.865  35.084   4.942  0.00  0.00     0.010 A 
ATOM      5  C11 O4N d         -10.727  36.149   4.980  0.00  0.00     0.040 A 
ATOM      6  C14 O4N d         -11.862  35.732   4.262  0.00  0.00    -0.017 A 
ENDROOT
BRANCH   6   7
ATOM      7  C26 O4N d         -12.027  35.940   2.736  0.00  0.00     0.275 C 
BRANCH   7   8
ATOM      8  N33 O4N d         -11.681  34.740   1.827  0.00  0.00    -0.060 N 
ATOM      9  H34 O4N d         -12.137  33.955   2.265  0.00  0.00     0.281 HD
BRANCH   8  10
ATOM     10  C27 O4N d         -10.166  34.272   1.729  0.00  0.00     0.275 C 
BRANCH  10  11
ATOM     11  C15 O4N d         -10.074  33.107   0.741  0.00  0.00    -0.013 A 
ATOM     12  C5  O4N d          -9.413  33.364  -0.480  0.00  0.00     0.013 A 
ATOM     13  C8  O4N d          -9.325  32.381  -1.440  0.00  0.00     0.040 A 
ATOM     14  C16 O4N d          -9.879  31.152  -1.197  0.00  0.00     0.106 A 
ATOM     15  C17 O4N d         -10.486  30.866   0.021  0.00  0.00     0.122 A 
ATOM     16  O37 O4N d          -9.926  30.062  -2.003  0.00  0.00    -0.323 OA
ATOM     17  C12 O4N d         -10.608  31.833   0.995  0.00  0.00     0.085 A 
ATOM     18  O38 O4N d         -11.008  29.557   0.076  0.00  0.00    -0.322 OA
ATOM     19  C23 O4N d         -10.476  29.041  -1.177  0.00  0.00     0.352 C 
BRANCH  17  20
ATOM     20  C22 O4N d         -11.272  31.480   2.330  0.00  0.00     0.212 C 
ATOM     21  O34 O4N d         -11.062  30.289   2.738  0.00  0.00    -0.644 OA
ATOM     22  O36 O4N d         -11.804  32.404   3.000  0.00  0.00    -0.644 OA
ENDBRANCH  17  20
ENDBRANCH  10  11
ENDBRANCH   8  10
BRANCH   8  23
ATOM     23  C28 O4N d         -12.392  34.915   0.480  0.00  0.00     0.262 C 
BRANCH  23  24
ATOM     24  C20 O4N d         -11.886  36.050  -0.356  0.00  0.00    -0.010 C 
ATOM     25  C19 O4N d         -12.473  37.243  -0.513  0.00  0.00     0.008 C 
ENDBRANCH  23  24
ENDBRANCH   8  23
ENDBRANCH   7   8
ENDBRANCH   6   7
BRANCH   5  26
ATOM     26  C21 O4N d          -9.620  36.840   4.324  0.00  0.00     0.252 C 
ATOM     27  N32 O4N d          -8.384  36.397   4.627  0.00  0.00    -0.348 N 
ATOM     28  H33 O4N d          -8.274  35.746   5.378  0.00  0.00     0.163 HD
ATOM     29  O35 O4N d          -9.801  37.753   3.509  0.00  0.00    -0.268 OA
BRANCH  27  30
ATOM     30  C31 O4N d          -7.206  36.834   3.898  0.00  0.00     0.118 C 
BRANCH  30  31
ATOM     31  C13 O4N d          -6.882  35.937   2.703  0.00  0.00    -0.035 A 
ATOM     32  C6  O4N d          -6.770  36.539   1.471  0.00  0.00     0.012 A 
ATOM     33  C9  O4N d          -6.437  35.743   0.369  0.00  0.00     0.037 A 
ATOM     34  C18 O4N d          -6.251  34.371   0.504  0.00  0.00     0.068 A 
ATOM     35  C10 O4N d          -6.372  33.772   1.724  0.00  0.00     0.037 A 
ATOM     36  C7  O4N d          -6.679  34.559   2.812  0.00  0.00     0.012 A 
BRANCH  34  37
ATOM     37  O39 O4N d          -5.989  33.708  -0.666  0.00  0.00    -0.356 OA
ATOM     38  C25 O4N d          -5.675  32.302  -0.529  0.00  0.00     0.210 C 
ENDBRANCH  34  37
ENDBRANCH  30  31
BRANCH  30  39
ATOM     39  C30 O4N d          -6.088  36.830   4.889  0.00  0.00     0.029 C 
BRANCH  39  40
ATOM     40  C29 O4N d          -6.360  37.795   6.033  0.00  0.00    -0.002 C 
ATOM     41  C24 O4N d          -5.040  37.817   6.840  0.00  0.00     0.005 C 
ENDBRANCH  39  40
ENDBRANCH  30  39
ENDBRANCH  27  30
ENDBRANCH   5  26
TORSDOF 13
