REMARK  16 active torsions:
REMARK  status: ('A' for Active; 'I' for Inactive)
REMARK    1  A    between atoms: N_1  and  CA_2 
REMARK    2  A    between atoms: CA_2  and  C_3 
REMARK    3  A    between atoms: CA_2  and  CB_5 
REMARK       I    between atoms: C_3  and  N_12 
REMARK    4  A    between atoms: CB_5  and  CG_6 
REMARK    5  A    between atoms: CG_6  and  CD_7 
REMARK    6  A    between atoms: CD_7  and  NE_8 
REMARK       I    between atoms: NE_8  and  CZ_9 
REMARK       I    between atoms: CZ_9  and  NH1_10 
REMARK       I    between atoms: CZ_9  and  NH2_11 
REMARK    7  A    between atoms: N_12  and  CA_13 
REMARK    8  A    between atoms: CA_13  and  C_14 
REMARK    9  A    between atoms: CA_13  and  CB_16 
REMARK       I    between atoms: C_14  and  N_23 
REMARK   10  A    between atoms: CB_16  and  CG_17 
REMARK   11  A    between atoms: CG_17  and  CD_18 
REMARK   12  A    between atoms: CD_18  and  NE_19 
REMARK       I    between atoms: NE_19  and  CZ_20 
REMARK       I    between atoms: CZ_20  and  NH1_21 
REMARK   13  A    between atoms: N_23  and  CA_24 
REMARK   14  A    between atoms: CA_24  and  C_25 
REMARK       I    between atoms: C_25  and  N_28 
REMARK   15  A    between atoms: N_28  and  CA_29 
REMARK   16  A    between atoms: CA_29  and  C_30 
ROOT
ATOM      1  CA  ARG d         -29.230  -6.354  -8.110  0.00  0.00     0.176 C 
ENDROOT
BRANCH   1   2
ATOM      2  N   ARG d         -30.194  -5.466  -7.471  0.00  0.00    -0.346 N 
ATOM      3  C   ARG d         -29.822  -4.524  -6.605  0.00  0.00     0.248 C 
ATOM      4  O   ARG d         -28.655  -4.370  -6.240  0.00  0.00    -0.271 OA
ATOM      5  H16 ARG d         -31.165  -5.567  -7.689  0.00  0.00     0.163 HD
BRANCH   3   6
ATOM      6  CA  ARG d         -30.928  -3.612  -6.084  0.00  0.00     0.274 C 
BRANCH   6   7
ATOM      7  N   ARG d         -30.449  -2.761  -4.954  0.00  0.00    -0.067 N 
ATOM      8  H1  ARG d         -31.202  -2.172  -4.634  0.00  0.00     0.275 HD
ATOM      9  H2  ARG d         -29.683  -2.186  -5.268  0.00  0.00     0.275 HD
ATOM     10  H3  ARG d         -30.139  -3.350  -4.197  0.00  0.00     0.275 HD
ENDBRANCH   6   7
BRANCH   6  11
ATOM     11  CB  ARG d         -31.451  -2.743  -7.233  0.00  0.00     0.044 C 
BRANCH  11  12
ATOM     12  CG  ARG d         -32.267  -1.528  -6.824  0.00  0.00     0.023 C 
BRANCH  12  13
ATOM     13  CD  ARG d         -33.639  -1.918  -6.326  0.00  0.00     0.138 C 
BRANCH  13  14
ATOM     14  NE  ARG d         -34.604  -0.828  -6.453  0.00  0.00    -0.227 N 
ATOM     15  CZ  ARG d         -34.653   0.249  -5.666  0.00  0.00     0.665 C 
ATOM     16  NH1 ARG d         -33.782   0.412  -4.673  0.00  0.00    -0.235 N 
ATOM     17  NH2 ARG d         -35.589   1.170  -5.872  0.00  0.00    -0.235 N 
ATOM     18  H12 ARG d         -33.834   1.249  -4.075  0.00  0.00     0.174 HD
ATOM     19  H13 ARG d         -33.056  -0.299  -4.503  0.00  0.00     0.174 HD
ATOM     20  H14 ARG d         -36.267   1.052  -6.638  0.00  0.00     0.174 HD
ATOM     21  H15 ARG d         -35.636   2.001  -5.266  0.00  0.00     0.174 HD
ATOM     22  H11 ARG d         -35.301  -0.896  -7.209  0.00  0.00     0.177 HD
ENDBRANCH  13  14
ENDBRANCH  12  13
ENDBRANCH  11  12
ENDBRANCH   6  11
ENDBRANCH   3   6
ENDBRANCH   1   2
BRANCH   1  23
ATOM     23  C   ARG d         -29.020  -5.898  -9.545  0.00  0.00     0.241 C 
ATOM     24  O   ARG d         -29.948  -5.365 -10.160  0.00  0.00    -0.271 OA
ATOM     25  N   ARG d         -27.810  -6.105 -10.068  0.00  0.00    -0.346 N 
ATOM     26  H29 ARG d         -27.097  -6.505  -9.492  0.00  0.00     0.163 HD
BRANCH  25  27
ATOM     27  CA  ARG d         -27.490  -5.766 -11.461  0.00  0.00     0.172 C 
ATOM     28  CB  ARG d         -25.977  -5.848 -11.719  0.00  0.00     0.042 C 
BRANCH  27  29
ATOM     29  C   ARG d         -28.262  -6.661 -12.431  0.00  0.00     0.240 C 
ATOM     30  O   ARG d         -28.016  -7.871 -12.508  0.00  0.00    -0.271 OA
ATOM     31  N   ARG d         -29.207  -6.042 -13.145  0.00  0.00    -0.345 N 
ATOM     32  H34 ARG d         -29.305  -5.054 -13.024  0.00  0.00     0.163 HD
BRANCH  31  33
ATOM     33  CA  ARG d         -30.118  -6.707 -14.099  0.00  0.00     0.181 C 
ATOM     34  CB  ARG d         -29.344  -7.326 -15.279  0.00  0.00     0.043 C 
BRANCH  33  35
ATOM     35  C   ARG d         -31.069  -7.725 -13.454  0.00  0.00     0.196 C 
ATOM     36  O   ARG d         -30.905  -8.123 -12.297  0.00  0.00    -0.646 OA
ATOM     37  OXT ARG d         -32.042  -8.174 -14.068  0.00  0.00    -0.646 OA
ENDBRANCH  33  35
ENDBRANCH  31  33
ENDBRANCH  27  29
ENDBRANCH  25  27
ENDBRANCH   1  23
BRANCH   1  38
ATOM     38  CB  ARG d         -29.727  -7.802  -8.076  0.00  0.00     0.036 C 
BRANCH  38  39
ATOM     39  CG  ARG d         -30.886  -8.087  -9.019  0.00  0.00     0.023 C 
BRANCH  39  40
ATOM     40  CD  ARG d         -31.771  -9.201  -8.516  0.00  0.00     0.138 C 
BRANCH  40  41
ATOM     41  NE  ARG d         -31.289 -10.532  -8.882  0.00  0.00    -0.227 N 
ATOM     42  CZ  ARG d         -31.708 -11.672  -8.327  0.00  0.00     0.665 C 
ATOM     43  NH1 ARG d         -32.619 -11.673  -7.357  0.00  0.00    -0.235 N 
ATOM     44  NH2 ARG d         -31.203 -12.825  -8.746  0.00  0.00    -0.235 N 
ATOM     45  H25 ARG d         -32.929 -12.563  -6.942  0.00  0.00     0.174 HD
ATOM     46  H26 ARG d         -33.014 -10.783  -7.021  0.00  0.00     0.174 HD
ATOM     47  H27 ARG d         -30.497 -12.836  -9.496  0.00  0.00     0.174 HD
ATOM     48  H28 ARG d         -31.517 -13.709  -8.321  0.00  0.00     0.174 HD
ATOM     49  H24 ARG d         -30.575 -10.595  -9.621  0.00  0.00     0.177 HD
ENDBRANCH  40  41
ENDBRANCH  39  40
ENDBRANCH  38  39
ENDBRANCH   1  38
TORSDOF 16
