REMARK  8 active torsions:
REMARK  status: ('A' for Active; 'I' for Inactive)
REMARK    1  A    between atoms: C2_2  and  C11_7 
REMARK    2  A    between atoms: C11_7  and  C12_8 
REMARK    3  A    between atoms: C12_8  and  N18_11 
REMARK    4  A    between atoms: N18_11  and  C21_12 
REMARK    5  A    between atoms: N23_14  and  C33_20 
REMARK    6  A    between atoms: C33_20  and  C34_21 
REMARK       I    between atoms: C34_21  and  N37_22 
REMARK    7  A    between atoms: N37_22  and  C39_24 
REMARK    8  A    between atoms: C39_24  and  C40_25 
ROOT
ATOM      1  C21 CDA d          18.088 -15.325  22.876  0.00  0.00     0.193 A 
ATOM      2  C22 CDA d          17.450 -14.043  22.465  0.00  0.00     0.294 A 
ATOM      3  N23 CDA d          18.098 -13.344  21.469  0.00  0.00    -0.305 N 
ATOM      4  C24 CDA d          19.318 -13.833  20.874  0.00  0.00     0.029 A 
ATOM      5  C25 CDA d          19.871 -15.040  21.337  0.00  0.00     0.144 A 
ATOM      6  N26 CDA d          19.251 -15.730  22.294  0.00  0.00    -0.237 NA
ATOM      7  O28 CDA d          16.412 -13.617  22.968  0.00  0.00    -0.264 OA
ATOM      8  C29 CDA d          20.027 -13.117  19.793  0.00  0.00     0.070 C 
ENDROOT
BRANCH   3   9
ATOM      9  C33 CDA d          17.494 -12.081  21.003  0.00  0.00     0.235 C 
BRANCH   9  10
ATOM     10  C34 CDA d          16.064 -12.297  20.538  0.00  0.00     0.236 C 
ATOM     11  N37 CDA d          15.199 -11.333  20.940  0.00  0.00    -0.354 N 
ATOM     12  H14 CDA d          15.523 -10.591  21.527  0.00  0.00     0.162 HD
ATOM     13  O38 CDA d          15.776 -13.264  19.835  0.00  0.00    -0.272 OA
BRANCH  11  14
ATOM     14  C39 CDA d          13.793 -11.368  20.523  0.00  0.00     0.185 C 
BRANCH  14  15
ATOM     15  C40 CDA d          12.849 -11.347  21.703  0.00  0.00     0.090 A 
ATOM     16  C43 CDA d          11.864 -12.376  21.829  0.00  0.00     0.142 A 
ATOM     17  C44 CDA d          10.973 -12.396  22.957  0.00  0.00     0.046 A 
ATOM     18  F47 CDA d          11.827 -13.273  20.844  0.00  0.00    -0.204 F 
ATOM     19  C45 CDA d          11.096 -11.352  23.943  0.00  0.00     0.022 A 
ATOM     20  C50 CDA d          12.107 -10.331  23.758  0.00  0.00     0.117 A 
ATOM     21  N46 CDA d          12.951 -10.350  22.658  0.00  0.00    -0.261 NA
ENDBRANCH  14  15
ENDBRANCH  11  14
ENDBRANCH   9  10
ENDBRANCH   3   9
BRANCH   1  22
ATOM     22  N18 CDA d          17.476 -16.045  23.873  0.00  0.00    -0.364 N 
ATOM     23  H7  CDA d          16.519 -15.772  24.137  0.00  0.00     0.161 HD
BRANCH  22  24
ATOM     24  C12 CDA d          18.083 -17.176  24.592  0.00  0.00     0.207 C 
BRANCH  24  25
ATOM     25  C11 CDA d          18.631 -16.748  25.942  0.00  0.00     0.303 C 
ATOM     26  F13 CDA d          17.628 -16.114  26.588  0.00  0.00    -0.197 F 
ATOM     27  F1  CDA d          18.932 -17.875  26.602  0.00  0.00    -0.197 F 
BRANCH  25  28
ATOM     28  C2  CDA d          19.915 -15.927  25.832  0.00  0.00     0.107 A 
ATOM     29  N1  CDA d          21.003 -16.529  25.166  0.00  0.00    -0.259 NA
ATOM     30  C6  CDA d          22.210 -15.904  24.907  0.00  0.00     0.117 A 
ATOM     31  C5  CDA d          22.342 -14.541  25.372  0.00  0.00     0.019 A 
ATOM     32  C4  CDA d          21.253 -13.883  26.079  0.00  0.00     0.004 A 
ATOM     33  C3  CDA d          20.002 -14.559  26.324  0.00  0.00     0.033 A 
ENDBRANCH  25  28
ENDBRANCH  24  25
ENDBRANCH  22  24
ENDBRANCH   1  22
TORSDOF 8
