REMARK  7 active torsions:
REMARK  status: ('A' for Active; 'I' for Inactive)
REMARK    1  A    between atoms: C10_23  and  C14_2 
REMARK    2  A    between atoms: C19_5  and  C20_6 
REMARK    3  A    between atoms: C3_17  and  C27_12 
REMARK    4  A    between atoms: C2_16  and  O1_15 
REMARK    5  A    between atoms: C3_17  and  C2_16 
REMARK    6  A    between atoms: N5_18  and  C3_17 
REMARK       I    between atoms: C6_19  and  N5_18 
REMARK    7  A    between atoms: C8_21  and  C6_19 
ROOT
ATOM      1  C11 MOL d         -15.365  10.791  38.908  0.00  0.00     0.102 A 
ATOM      2  C8  MOL d         -13.456  11.812  39.373  0.00  0.00     0.101 A 
ATOM      3  C9  MOL d         -14.412  12.346  40.191  0.00  0.00     0.050 A 
ATOM      4  C10 MOL d         -15.637  11.698  39.896  0.00  0.00     0.011 A 
ATOM      5  N12 MOL d         -14.058  10.857  38.593  0.00  0.00    -0.361 N 
ATOM      6  H14 MOL d         -13.585  10.283  37.880  0.00  0.00     0.165 HD
ENDROOT
BRANCH   2   7
ATOM      7  C6  MOL d         -12.037  12.194  39.323  0.00  0.00     0.268 C 
ATOM      8  N5  MOL d         -11.605  13.271  40.036  0.00  0.00    -0.345 N 
ATOM      9  H12 MOL d         -12.259  13.766  40.609  0.00  0.00     0.163 HD
ATOM     10  O7  MOL d         -11.267  11.563  38.615  0.00  0.00    -0.266 OA
BRANCH   8  11
ATOM     11  C3  MOL d         -10.201  13.733  39.991  0.00  0.00     0.141 C 
BRANCH  11  12
ATOM     12  C27 MOL d         -10.142  14.950  39.073  0.00  0.00    -0.032 A 
ATOM     13  C28 MOL d         -11.062  16.018  39.247  0.00  0.00     0.012 A 
ATOM     14  C29 MOL d         -11.019  17.141  38.398  0.00  0.00     0.044 A 
ATOM     15  C30 MOL d         -10.062  17.212  37.365  0.00  0.00     0.138 A 
ATOM     16  F31 MOL d         -10.038  18.298  36.559  0.00  0.00    -0.204 F 
ATOM     17  C32 MOL d          -9.135  16.146  37.182  0.00  0.00     0.073 A 
ATOM     18 CL33 MOL d          -7.944  16.214  35.909  0.00  0.00    -0.081 Cl
ATOM     19  C34 MOL d          -9.181  15.017  38.039  0.00  0.00     0.036 A 
ENDBRANCH  11  12
BRANCH  11  20
ATOM     20  C2  MOL d          -9.688  14.093  41.399  0.00  0.00     0.194 C 
BRANCH  20  21
ATOM     21  O1  MOL d         -10.757  14.048  42.349  0.00  0.00    -0.399 OA
ATOM     22  H8  MOL d         -10.424  14.272  43.210  0.00  0.00     0.209 HD
ENDBRANCH  20  21
ENDBRANCH  11  20
ENDBRANCH   8  11
ENDBRANCH   2   7
BRANCH   4  23
ATOM     23  C14 MOL d         -17.004  11.920  40.507  0.00  0.00     0.074 A 
ATOM     24  C19 MOL d         -17.519  13.033  41.301  0.00  0.00     0.022 A 
ATOM     25  C18 MOL d         -18.821  12.725  41.593  0.00  0.00     0.153 A 
ATOM     26  N16 MOL d         -19.121  11.537  41.046  0.00  0.00    -0.186 NA
ATOM     27  N15 MOL d         -17.995  11.055  40.382  0.00  0.00    -0.277 N 
ATOM     28  H15 MOL d         -17.943  10.162  39.872  0.00  0.00     0.189 HD
BRANCH  24  29
ATOM     29  C20 MOL d         -16.832  14.301  41.759  0.00  0.00    -0.021 A 
ATOM     30  C21 MOL d         -16.876  14.668  43.141  0.00  0.00     0.012 A 
ATOM     31  C22 MOL d         -16.243  15.846  43.584  0.00  0.00     0.003 A 
ATOM     32  C23 MOL d         -15.562  16.671  42.665  0.00  0.00     0.024 A 
ATOM     33  C24 MOL d         -15.510  16.322  41.298  0.00  0.00     0.034 A 
ATOM     34  C26 MOL d         -16.142  15.149  40.842  0.00  0.00     0.036 A 
ATOM     35 CL25 MOL d         -14.663  17.336  40.177  0.00  0.00    -0.084 Cl
ENDBRANCH  24  29
ENDBRANCH   4  23
TORSDOF 7
