REMARK  11 active torsions:
REMARK  status: ('A' for Active; 'I' for Inactive)
REMARK    1  A    between atoms: C1_1  and  C3_3 
REMARK       I    between atoms: N2_9  and  C1_1 
REMARK    2  A    between atoms: C3_3  and  C7_7 
REMARK    3  A    between atoms: C3_3  and  N4_17 
REMARK    4  A    between atoms: C6_6  and  N6_31 
REMARK    5  A    between atoms: S1_18  and  N2_9 
REMARK    6  A    between atoms: C22_26  and  O2_12 
REMARK    7  A    between atoms: O5_21  and  S1_18 
REMARK    8  A    between atoms: C25_22  and  O5_21 
REMARK    9  A    between atoms: C24_23  and  C25_22 
REMARK   10  A    between atoms: C23_24  and  O3_25 
REMARK   11  A    between atoms: C21_27  and  N9_29 
ROOT
ATOM      1  C24 MOL d          12.945  10.386   1.726  0.00  0.00     0.180 C 
ATOM      2  C23 MOL d          13.511   8.974   1.797  0.00  0.00     0.182 C 
ATOM      3  C22 MOL d          14.285   8.821   0.498  0.00  0.00     0.198 C 
ATOM      4  C21 MOL d          13.516   9.763  -0.427  0.00  0.00     0.262 C 
ATOM      5  O4  MOL d          13.186  10.871   0.392  0.00  0.00    -0.353 OA
ENDROOT
BRANCH   1   6
ATOM      6  C25 MOL d          13.662  11.308   2.687  0.00  0.00     0.226 C 
BRANCH   6   7
ATOM      7  O5  MOL d          15.066  11.155   2.435  0.00  0.00    -0.257 OA
BRANCH   7   8
ATOM      8  S1  MOL d          16.119  11.777   3.516  0.00  0.00     0.364 S 
ATOM      9  O1A MOL d          17.397  11.510   2.935  0.00  0.00    -0.175 OA
ATOM     10  O2A MOL d          15.810  13.183   3.589  0.00  0.00    -0.175 OA
BRANCH   8  11
ATOM     11  N2  MOL d          16.041  11.120   4.910  0.00  0.00    -0.230 N 
ATOM     12  C1  MOL d          15.978   9.785   5.169  0.00  0.00     0.264 C 
ATOM     13  O1  MOL d          15.981   8.922   4.291  0.00  0.00    -0.270 OA
ATOM     14  H3  MOL d          16.036  11.734   5.699  0.00  0.00     0.183 HD
BRANCH  12  15
ATOM     15  C3  MOL d          15.978   9.360   6.623  0.00  0.00     0.283 C 
BRANCH  15  16
ATOM     16  C7  MOL d          14.611   9.301   7.327  0.00  0.00    -0.014 C 
ATOM     17  C9  MOL d          13.675   8.335   6.649  0.00  0.00     0.017 C 
ATOM     18  C10 MOL d          14.815   8.799   8.746  0.00  0.00     0.017 C 
ATOM     19  C11 MOL d          13.918  10.662   7.431  0.00  0.00     0.017 C 
ENDBRANCH  15  16
BRANCH  15  20
ATOM     20  N4  MOL d          16.739   8.047   6.843  0.00  0.00    -0.066 N 
ATOM     21  H15 MOL d          17.633   8.095   6.379  0.00  0.00     0.275 HD
ATOM     22  H16 MOL d          16.204   7.281   6.464  0.00  0.00     0.275 HD
ATOM     23  H17 MOL d          16.881   7.902   7.830  0.00  0.00     0.275 HD
ENDBRANCH  15  20
ENDBRANCH  12  15
ENDBRANCH   8  11
ENDBRANCH   7   8
ENDBRANCH   6   7
ENDBRANCH   1   6
BRANCH   2  24
ATOM     24  O3  MOL d          12.446   8.041   1.813  0.00  0.00    -0.390 OA
ATOM     25  H22 MOL d          12.799   7.160   1.857  0.00  0.00     0.210 HD
ENDBRANCH   2  24
BRANCH   3  26
ATOM     26  O2  MOL d          14.344   7.473   0.001  0.00  0.00    -0.388 OA
ATOM     27  H5  MOL d          13.463   7.157  -0.161  0.00  0.00     0.210 HD
ENDBRANCH   3  26
BRANCH   4  28
ATOM     28  N9  MOL d          14.364  10.159  -1.578  0.00  0.00    -0.294 N 
ATOM     29  C4  MOL d          14.043   9.919  -2.851  0.00  0.00     0.167 A 
ATOM     30  C5  MOL d          15.084  10.428  -3.630  0.00  0.00     0.149 A 
ATOM     31  N3  MOL d          12.963   9.295  -3.420  0.00  0.00    -0.222 NA
ATOM     32  C6  MOL d          14.995  10.282  -5.002  0.00  0.00     0.155 A 
ATOM     33  N7  MOL d          16.007  10.983  -2.804  0.00  0.00    -0.236 NA
ATOM     34  N1  MOL d          13.895   9.654  -5.520  0.00  0.00    -0.222 NA
ATOM     35  C2  MOL d          12.904   9.174  -4.750  0.00  0.00     0.237 A 
ATOM     36  C8  MOL d          15.552  10.808  -1.532  0.00  0.00     0.214 A 
BRANCH  32  37
ATOM     37  N6  MOL d          15.996  10.738  -5.804  0.00  0.00    -0.382 N 
ATOM     38  H25 MOL d          15.928  10.628  -6.826  0.00  0.00     0.157 HD
ATOM     39  H26 MOL d          16.822  11.193  -5.389  0.00  0.00     0.157 HD
ENDBRANCH  32  37
ENDBRANCH   4  28
TORSDOF 11
