REMARK  10 active torsions:
REMARK  status: ('A' for Active; 'I' for Inactive)
REMARK    1  A    between atoms: NRO_2  and  CZ3_4 
REMARK    2  A    between atoms: NE1_10  and  C1'_13 
REMARK    3  A    between atoms: C4'_15  and  C5'_19 
REMARK    4  A    between atoms: C3'_16  and  O3'_17 
REMARK    5  A    between atoms: C5'_19  and  O5'_20 
REMARK    6  A    between atoms: O5'_20  and  PA_21 
REMARK    7  A    between atoms: PA_21  and  O3A_24 
REMARK    8  A    between atoms: O3A_24  and  PB_25 
REMARK    9  A    between atoms: PB_25  and  O3B_28 
REMARK   10  A    between atoms: O3B_28  and  PG_29 
ROOT
ATOM      1  C1' N5P d          -8.035  47.836  19.870  0.00  0.00     0.230 C 
ATOM      2  O4' N5P d          -8.944  46.999  20.589  0.00  0.00    -0.356 OA
ATOM      3  C4' N5P d          -8.266  46.407  21.704  0.00  0.00     0.177 C 
ATOM      4  C3' N5P d          -6.887  47.062  21.738  0.00  0.00     0.153 C 
ATOM      5  C2' N5P d          -7.053  48.335  20.921  0.00  0.00     0.088 C 
ENDROOT
BRANCH   3   6
ATOM      6  C5' N5P d          -9.035  46.598  23.012  0.00  0.00     0.216 C 
BRANCH   6   7
ATOM      7  O5' N5P d          -8.965  47.959  23.428  0.00  0.00    -0.287 OA
BRANCH   7   8
ATOM      8  PA  N5P d          -9.738  48.471  24.757  0.00  0.00     0.417 P 
ATOM      9  O1A N5P d          -9.618  47.449  25.867  0.00  0.00    -0.624 OA
ATOM     10  O2A N5P d          -9.329  49.881  25.077  0.00  0.00    -0.624 OA
BRANCH   8  11
ATOM     11  O3A N5P d         -11.215  48.514  24.107  0.00  0.00    -0.180 OA
BRANCH  11  12
ATOM     12  PB  N5P d         -12.592  48.490  24.949  0.00  0.00     0.428 P 
ATOM     13  O1B N5P d         -12.365  49.328  26.181  0.00  0.00    -0.624 OA
ATOM     14  O2B N5P d         -13.601  49.038  23.976  0.00  0.00    -0.624 OA
BRANCH  12  15
ATOM     15  O3B N5P d         -12.890  46.855  25.115  0.00  0.00    -0.173 OA
BRANCH  15  16
ATOM     16  PG  N5P d         -12.317  45.764  26.213  0.00  0.00     0.431 P 
ATOM     17  O3G N5P d         -12.671  44.269  25.963  0.00  0.00    -0.616 OA
ATOM     18  O2G N5P d         -12.896  46.618  27.335  0.00  0.00    -0.616 OA
ATOM     19  O1G N5P d         -10.805  45.625  26.038  0.00  0.00    -0.616 OA
ENDBRANCH  15  16
ENDBRANCH  12  15
ENDBRANCH  11  12
ENDBRANCH   8  11
ENDBRANCH   7   8
ENDBRANCH   6   7
ENDBRANCH   3   6
BRANCH   4  20
ATOM     20  O3' N5P d          -5.947  46.179  21.096  0.00  0.00    -0.393 OA
ATOM     21  H9  N5P d          -5.083  46.574  21.110  0.00  0.00     0.210 HD
ENDBRANCH   4  20
BRANCH   1  22
ATOM     22  NE1 N5P d          -8.765  48.915  19.151  0.00  0.00    -0.329 N 
ATOM     23  CE2 N5P d          -9.832  49.542  19.664  0.00  0.00     0.046 A 
ATOM     24  CD2 N5P d         -10.223  50.513  18.640  0.00  0.00    -0.005 A 
ATOM     25  CZ2 N5P d         -10.536  49.427  20.848  0.00  0.00     0.033 A 
ATOM     26  CE3 N5P d         -11.316  51.332  18.863  0.00  0.00     0.049 A 
ATOM     27  CG  N5P d          -9.336  50.430  17.525  0.00  0.00     0.031 A 
ATOM     28  CZ3 N5P d         -11.993  51.177  20.072  0.00  0.00     0.103 A 
ATOM     29  CH2 N5P d         -11.620  50.254  21.044  0.00  0.00     0.038 A 
ATOM     30  CD1 N5P d          -8.463  49.417  17.919  0.00  0.00     0.095 A 
BRANCH  28  31
ATOM     31  NRO N5P d         -13.108  51.951  20.359  0.00  0.00    -0.116 N 
ATOM     32  OR2 N5P d         -13.582  52.860  19.418  0.00  0.00    -0.532 OA
ATOM     33  OR1 N5P d         -13.659  51.789  21.444  0.00  0.00    -0.532 OA
ENDBRANCH  28  31
ENDBRANCH   1  22
TORSDOF 10
