REMARK  7 active torsions:
REMARK  status: ('A' for Active; 'I' for Inactive)
REMARK    1  A    between atoms: C2_2  and  O30_23 
REMARK    2  A    between atoms: C6_6  and  O29_22 
REMARK    3  A    between atoms: C10_8  and  O27_21 
REMARK    4  A    between atoms: C11_9  and  C14_10 
REMARK    5  A    between atoms: C16_12  and  O25_20 
REMARK    6  A    between atoms: C17_13  and  O24_19 
REMARK    7  A    between atoms: C18_14  and  O23_18 
ROOT
ATOM      1  C1  MYC d          14.264  13.896  35.120  0.00  0.00     0.074 A 
ATOM      2  C2  MYC d          15.152  14.327  36.097  0.00  0.00     0.085 A 
ATOM      3  C3  MYC d          14.665  14.903  37.267  0.00  0.00     0.084 A 
ATOM      4  C4  MYC d          13.306  15.060  37.460  0.00  0.00     0.096 A 
ATOM      5  C5  MYC d          12.413  14.622  36.478  0.00  0.00     0.075 A 
ATOM      6  C6  MYC d          12.891  14.044  35.317  0.00  0.00     0.071 A 
ATOM      7  C9  MYC d          15.537  15.254  38.298  0.00  0.00     0.223 C 
ATOM      8  C10 MYC d          14.980  15.529  39.547  0.00  0.00     0.152 C 
ATOM      9  C11 MYC d          13.600  15.578  39.665  0.00  0.00     0.123 C 
ATOM     10  O12 MYC d          12.813  15.693  38.562  0.00  0.00    -0.306 OA
ATOM     11  O13 MYC d          16.743  15.330  38.117  0.00  0.00    -0.284 OA
ENDROOT
BRANCH   9  12
ATOM     12  C14 MYC d          12.977  15.570  40.915  0.00  0.00     0.006 A 
ATOM     13  C15 MYC d          13.716  15.403  42.078  0.00  0.00     0.054 A 
ATOM     14  C16 MYC d          13.072  15.420  43.313  0.00  0.00     0.102 A 
ATOM     15  C17 MYC d          11.704  15.602  43.379  0.00  0.00     0.132 A 
ATOM     16  C18 MYC d          10.964  15.763  42.220  0.00  0.00     0.102 A 
ATOM     17  C19 MYC d          11.602  15.748  40.983  0.00  0.00     0.054 A 
BRANCH  14  18
ATOM     18  O25 MYC d          13.803  15.257  44.454  0.00  0.00    -0.358 OA
ATOM     19  H7  MYC d          14.719  15.145  44.229  0.00  0.00     0.217 HD
ENDBRANCH  14  18
BRANCH  15  20
ATOM     20  O24 MYC d          11.077  15.640  44.594  0.00  0.00    -0.356 OA
ATOM     21  H6  MYC d          11.718  15.515  45.284  0.00  0.00     0.218 HD
ENDBRANCH  15  20
BRANCH  16  22
ATOM     22  O23 MYC d           9.612  15.931  42.284  0.00  0.00    -0.358 OA
ATOM     23  H5  MYC d           9.335  15.918  43.193  0.00  0.00     0.217 HD
ENDBRANCH  16  22
ENDBRANCH   9  12
BRANCH   8  24
ATOM     24  O27 MYC d          15.795  15.735  40.615  0.00  0.00    -0.355 OA
ATOM     25  H8  MYC d          16.701  15.662  40.339  0.00  0.00     0.218 HD
ENDBRANCH   8  24
BRANCH   2  26
ATOM     26  O30 MYC d          16.490  14.192  35.903  0.00  0.00    -0.360 OA
ATOM     27  H10 MYC d          16.900  15.049  35.922  0.00  0.00     0.217 HD
ENDBRANCH   2  26
BRANCH   6  28
ATOM     28  O29 MYC d          12.017  13.615  34.365  0.00  0.00    -0.361 OA
ATOM     29  H9  MYC d          12.501  13.245  33.636  0.00  0.00     0.217 HD
ENDBRANCH   6  28
TORSDOF 7
