REMARK  6 active torsions:
REMARK  status: ('A' for Active; 'I' for Inactive)
REMARK    1  A    between atoms: O3_3  and  C2_2 
REMARK    2  A    between atoms: C4_4  and  O3_3 
REMARK    3  A    between atoms: C6_6  and  C4_4 
REMARK    4  A    between atoms: N12_12  and  C6_6 
REMARK    5  A    between atoms: C8_8  and  O7_7 
REMARK    6  A    between atoms: C13_13  and  N14_14 
REMARK       I    between atoms: C15_15  and  N16_16 
REMARK       I    between atoms: C15_15  and  N17_17 
ROOT
ATOM      1  C8  MKY d          11.511  -9.498  23.619  0.00  0.00     0.067 A 
ATOM      2  C9  MKY d          12.505  -8.771  22.976  0.00  0.00     0.039 A 
ATOM      3  C10 MKY d          13.325  -9.334  22.015  0.00  0.00     0.034 A 
ATOM      4  C11 MKY d          13.130 -10.684  21.657  0.00  0.00     0.054 A 
ATOM      5  N12 MKY d          13.893 -11.437  20.789  0.00  0.00    -0.316 N 
ATOM      6  C13 MKY d          13.669 -12.759  20.636  0.00  0.00     0.167 A 
ATOM      7  S18 MKY d          12.228 -13.055  21.650  0.00  0.00    -0.051 SA
ATOM      8  C19 MKY d          12.135 -11.405  22.337  0.00  0.00     0.038 A 
ATOM      9  C20 MKY d          11.321 -10.838  23.288  0.00  0.00     0.057 A 
ENDROOT
BRANCH   6  10
ATOM     10  N14 MKY d          14.434 -13.586  19.939  0.00  0.00    -0.171 N 
ATOM     11  C15 MKY d          14.202 -14.901  19.926  0.00  0.00     0.671 C 
ATOM     12  N16 MKY d          13.769 -15.482  21.108  0.00  0.00    -0.235 N 
ATOM     13  N17 MKY d          14.483 -15.655  18.807  0.00  0.00    -0.235 N 
ATOM     14  H12 MKY d          13.578 -16.493  21.145  0.00  0.00     0.174 HD
ATOM     15  H13 MKY d          13.639 -14.902  21.949  0.00  0.00     0.174 HD
ATOM     16  H14 MKY d          14.803 -15.195  17.943  0.00  0.00     0.174 HD
ATOM     17  H15 MKY d          14.373 -16.679  18.835  0.00  0.00     0.174 HD
ATOM     18  H11 MKY d          15.223 -13.207  19.396  0.00  0.00     0.186 HD
ENDBRANCH   6  10
BRANCH   5  19
ATOM     19  C6  MKY d          15.142 -10.906  20.234  0.00  0.00     0.242 C 
BRANCH  19  20
ATOM     20  C4  MKY d          16.290 -11.603  20.934  0.00  0.00     0.277 C 
ATOM     21  O5  MKY d          16.119 -12.271  21.949  0.00  0.00    -0.263 OA
BRANCH  20  22
ATOM     22  O3  MKY d          17.509 -11.439  20.414  0.00  0.00    -0.321 OA
BRANCH  22  23
ATOM     23  C2  MKY d          18.577 -12.290  20.935  0.00  0.00     0.174 C 
ATOM     24  C1  MKY d          19.838 -12.096  20.085  0.00  0.00     0.034 C 
ENDBRANCH  22  23
ENDBRANCH  20  22
ENDBRANCH  19  20
ENDBRANCH   5  19
BRANCH   1  25
ATOM     25  O7  MKY d          10.727  -8.901  24.566  0.00  0.00    -0.361 OA
ATOM     26  H8  MKY d          10.103  -9.533  24.903  0.00  0.00     0.217 HD
ENDBRANCH   1  25
TORSDOF 6
