REMARK  14 active torsions:
REMARK  status: ('A' for Active; 'I' for Inactive)
REMARK    1  A    between atoms: C7_2  and  N1_1 
REMARK    2  A    between atoms: C8_3  and  C7_2 
REMARK    3  A    between atoms: C14_32  and  C15_6 
REMARK    4  A    between atoms: N6_14  and  C32_15 
REMARK    5  A    between atoms: C32_15  and  C33_16 
REMARK    6  A    between atoms: C33_16  and  C34_17 
REMARK    7  A    between atoms: C34_17  and  C2_18 
REMARK       I    between atoms: C2_18  and  N4_19 
REMARK    8  A    between atoms: N4_19  and  C37_21 
REMARK    9  A    between atoms: C37_21  and  C35_23 
REMARK   10  A    between atoms: C35_23  and  C38_24 
REMARK   11  A    between atoms: C38_24  and  O36_25 
REMARK   12  A    between atoms: C11_30  and  C14_32 
REMARK   13  A    between atoms: C14_32  and  O17_33 
REMARK   14  A    between atoms: C14_32  and  C16_34 
ROOT
ATOM      1  N1  ZBD d          -6.751  28.872  15.942  0.00  0.00    -0.252 N 
ATOM      2  C24 ZBD d          -5.964  29.006  17.104  0.00  0.00     0.074 A 
ATOM      3  C26 ZBD d          -3.737  28.910  18.006  0.00  0.00     0.033 A 
ATOM      4  C28 ZBD d          -5.575  29.374  19.462  0.00  0.00     0.002 A 
ATOM      5  O31 ZBD d          -5.628  29.644  13.833  0.00  0.00    -0.182 OA
ATOM      6  S5  ZBD d          -5.666  28.532  14.720  0.00  0.00     0.328 S 
ATOM      7  O30 ZBD d          -5.899  27.192  14.292  0.00  0.00    -0.182 OA
ATOM      8  C25 ZBD d          -4.604  28.832  16.908  0.00  0.00     0.074 A 
ATOM      9  N6  ZBD d          -4.235  28.551  15.578  0.00  0.00    -0.257 N 
ATOM     10  C27 ZBD d          -4.222  29.169  19.273  0.00  0.00     0.002 A 
ATOM     11  C29 ZBD d          -6.440  29.277  18.391  0.00  0.00     0.033 A 
ENDROOT
BRANCH   1  12
ATOM     12  C7  ZBD d          -8.210  28.997  15.852  0.00  0.00     0.182 C 
BRANCH  12  13
ATOM     13  C8  ZBD d          -8.848  27.643  15.684  0.00  0.00    -0.039 A 
ATOM     14  C13 ZBD d          -9.069  27.147  14.414  0.00  0.00     0.009 A 
ATOM     15  C12 ZBD d          -9.657  25.904  14.249  0.00  0.00     0.011 A 
ATOM     16  C11 ZBD d         -10.037  25.155  15.350  0.00  0.00    -0.006 A 
ATOM     17  C10 ZBD d          -9.806  25.661  16.618  0.00  0.00     0.011 A 
ATOM     18  C9  ZBD d          -9.217  26.902  16.791  0.00  0.00     0.009 A 
BRANCH  16  19
ATOM     19  C14 ZBD d         -10.670  23.793  15.141  0.00  0.00     0.281 C 
BRANCH  19  20
ATOM     20  C15 ZBD d         -10.288  22.817  16.269  0.00  0.00     0.431 C 
ATOM     21  F21 ZBD d         -10.952  23.125  17.461  0.00  0.00    -0.167 F 
ATOM     22  F22 ZBD d         -10.659  21.530  15.875  0.00  0.00    -0.167 F 
ATOM     23  F23 ZBD d          -8.912  22.828  16.506  0.00  0.00    -0.167 F 
ENDBRANCH  19  20
BRANCH  19  24
ATOM     24  O17 ZBD d         -10.157  23.267  13.916  0.00  0.00    -0.370 OA
ATOM     25  H29 ZBD d         -10.537  22.411  13.757  0.00  0.00     0.211 HD
ENDBRANCH  19  24
BRANCH  19  26
ATOM     26  C16 ZBD d         -12.205  23.905  15.039  0.00  0.00     0.431 C 
ATOM     27  F20 ZBD d         -12.815  23.541  16.239  0.00  0.00    -0.167 F 
ATOM     28  F19 ZBD d         -12.668  23.058  14.026  0.00  0.00    -0.167 F 
ATOM     29  F18 ZBD d         -12.587  25.211  14.722  0.00  0.00    -0.167 F 
ENDBRANCH  19  26
ENDBRANCH  16  19
ENDBRANCH  12  13
ENDBRANCH   1  12
BRANCH   9  30
ATOM     30  C32 ZBD d          -2.886  28.318  15.059  0.00  0.00     0.144 C 
BRANCH  30  31
ATOM     31  C33 ZBD d          -2.765  26.830  14.723  0.00  0.00     0.030 C 
BRANCH  31  32
ATOM     32  C34 ZBD d          -1.410  26.574  14.072  0.00  0.00     0.104 C 
BRANCH  32  33
ATOM     33  C2  ZBD d          -0.965  25.153  14.336  0.00  0.00     0.219 C 
ATOM     34  N4  ZBD d           0.106  24.941  15.122  0.00  0.00    -0.352 N 
ATOM     35  C39 ZBD d           0.794  26.099  15.694  0.00  0.00     0.153 C 
ATOM     36  O3  ZBD d          -1.555  24.208  13.846  0.00  0.00    -0.273 OA
BRANCH  34  37
ATOM     37  C37 ZBD d           0.561  23.564  15.374  0.00  0.00     0.084 C 
ATOM     38  C40 ZBD d          -0.063  23.057  16.674  0.00  0.00     0.032 C 
BRANCH  37  39
ATOM     39  C35 ZBD d           2.103  23.460  15.341  0.00  0.00     0.051 C 
BRANCH  39  40
ATOM     40  C38 ZBD d           2.790  23.616  16.706  0.00  0.00     0.166 C 
BRANCH  40  41
ATOM     41  O36 ZBD d           3.403  24.904  16.834  0.00  0.00    -0.401 OA
ATOM     42  H24 ZBD d           3.819  24.972  17.685  0.00  0.00     0.209 HD
ENDBRANCH  40  41
ENDBRANCH  39  40
ENDBRANCH  37  39
ENDBRANCH  34  37
ENDBRANCH  32  33
ENDBRANCH  31  32
ENDBRANCH  30  31
ENDBRANCH   9  30
TORSDOF 14
