REMARK  18 active torsions:
REMARK  status: ('A' for Active; 'I' for Inactive)
REMARK    1  A    between atoms: C22_23  and  C23_1 
REMARK    2  A    between atoms: C32_13  and  C33_7 
REMARK    3  A    between atoms: O31_14  and  C32_13 
REMARK    4  A    between atoms: C9_15  and  O31_14 
REMARK    5  A    between atoms: C7_16  and  C9_15 
REMARK    6  A    between atoms: C9_15  and  C10_26 
REMARK    7  A    between atoms: C5_17  and  C7_16 
REMARK    8  A    between atoms: C7_16  and  O8_25 
REMARK    9  A    between atoms: C4_18  and  C5_17 
REMARK   10  A    between atoms: C5_17  and  O6_24 
REMARK   11  A    between atoms: C4_18  and  C2_19 
REMARK   12  A    between atoms: O21_22  and  C4_18 
REMARK       I    between atoms: C2_19  and  N1_21 
REMARK   13  A    between atoms: N1_21  and  C41_39 
REMARK   14  A    between atoms: C22_23  and  O21_22 
REMARK       I    between atoms: C10_26  and  N12_28 
REMARK   15  A    between atoms: N12_28  and  C51_29 
REMARK   16  A    between atoms: C59_35  and  O60_36 
REMARK   17  A    between atoms: C41_39  and  C42_40 
REMARK   18  A    between atoms: C41_39  and  C45_43 
REMARK       I    between atoms: C45_43  and  N47_45 
ROOT
ATOM      1  C7  BEC d          13.990  23.020   4.936  0.00  0.00     0.188 C 
ENDROOT
BRANCH   1   2
ATOM      2  C9  BEC d          15.082  22.670   5.944  0.00  0.00     0.244 C 
BRANCH   2   3
ATOM      3  O31 BEC d          14.606  23.081   7.272  0.00  0.00    -0.369 OA
BRANCH   3   4
ATOM      4  C32 BEC d          15.653  23.423   8.223  0.00  0.00     0.207 C 
BRANCH   4   5
ATOM      5  C33 BEC d          16.436  22.218   8.748  0.00  0.00    -0.035 A 
ATOM      6  C34 BEC d          15.756  21.184   9.480  0.00  0.00     0.009 A 
ATOM      7  C35 BEC d          16.488  20.048   9.952  0.00  0.00     0.001 A 
ATOM      8  C36 BEC d          17.885  19.948   9.691  0.00  0.00     0.000 A 
ATOM      9  C37 BEC d          18.556  20.968   8.967  0.00  0.00     0.001 A 
ATOM     10  C38 BEC d          17.834  22.106   8.491  0.00  0.00     0.009 A 
ENDBRANCH   4   5
ENDBRANCH   3   4
ENDBRANCH   2   3
BRANCH   2  11
ATOM     11  C10 BEC d          15.254  21.191   5.851  0.00  0.00     0.250 C 
ATOM     12  O11 BEC d          14.273  20.503   6.126  0.00  0.00    -0.271 OA
ATOM     13  N12 BEC d          16.422  20.699   5.505  0.00  0.00    -0.348 N 
ATOM     14  H22 BEC d          17.144  21.361   5.303  0.00  0.00     0.163 HD
BRANCH  13  15
ATOM     15  C51 BEC d          16.777  19.296   5.384  0.00  0.00     0.147 C 
ATOM     16  C52 BEC d          16.726  18.850   3.936  0.00  0.00    -0.027 A 
ATOM     17  C57 BEC d          17.688  17.848   3.658  0.00  0.00    -0.047 A 
ATOM     18  C53 BEC d          15.868  19.306   2.890  0.00  0.00     0.010 A 
ATOM     19  C56 BEC d          17.837  17.272   2.364  0.00  0.00     0.008 A 
ATOM     20  C58 BEC d          18.469  17.538   4.915  0.00  0.00     0.073 C 
ATOM     21  C55 BEC d          16.978  17.731   1.327  0.00  0.00     0.001 A 
ATOM     22  C54 BEC d          15.994  18.744   1.581  0.00  0.00     0.001 A 
ATOM     23  C59 BEC d          18.172  18.800   5.772  0.00  0.00     0.149 C 
BRANCH  23  24
ATOM     24  O60 BEC d          19.075  19.848   5.419  0.00  0.00    -0.393 OA
ATOM     25  H28 BEC d          19.962  19.589   5.641  0.00  0.00     0.210 HD
ENDBRANCH  23  24
ENDBRANCH  13  15
ENDBRANCH   2  11
ENDBRANCH   1   2
BRANCH   1  26
ATOM     26  C5  BEC d          13.566  24.458   4.997  0.00  0.00     0.188 C 
BRANCH  26  27
ATOM     27  C4  BEC d          12.152  24.665   4.334  0.00  0.00     0.244 C 
BRANCH  27  28
ATOM     28  C2  BEC d          11.008  24.713   5.348  0.00  0.00     0.250 C 
ATOM     29  O3  BEC d          10.746  23.686   5.988  0.00  0.00    -0.271 OA
ATOM     30  N1  BEC d          10.337  25.862   5.489  0.00  0.00    -0.345 N 
ATOM     31  H17 BEC d          10.613  26.644   4.930  0.00  0.00     0.163 HD
BRANCH  30  32
ATOM     32  C41 BEC d           9.223  26.033   6.417  0.00  0.00     0.180 C 
BRANCH  32  33
ATOM     33  C42 BEC d           9.391  26.424   7.954  0.00  0.00     0.009 C 
ATOM     34  C43 BEC d           8.601  27.685   8.419  0.00  0.00     0.012 C 
ATOM     35  C44 BEC d          10.878  26.509   8.422  0.00  0.00     0.012 C 
ENDBRANCH  32  33
BRANCH  32  36
ATOM     36  C45 BEC d           8.284  26.976   5.673  0.00  0.00     0.240 C 
ATOM     37  O46 BEC d           8.746  28.003   5.126  0.00  0.00    -0.271 OA
ATOM     38  N47 BEC d           6.959  26.604   5.674  0.00  0.00    -0.364 N 
ATOM     39  C48 BEC d           6.016  27.465   4.986  0.00  0.00     0.149 C 
ATOM     40  H40 BEC d           6.657  25.769   6.133  0.00  0.00     0.161 HD
ENDBRANCH  32  36
ENDBRANCH  30  32
ENDBRANCH  27  28
BRANCH  27  41
ATOM     41  O21 BEC d          11.896  23.586   3.356  0.00  0.00    -0.369 OA
BRANCH  41  42
ATOM     42  C22 BEC d          11.260  24.012   2.129  0.00  0.00     0.207 C 
BRANCH  42  43
ATOM     43  C23 BEC d           9.761  24.226   2.263  0.00  0.00    -0.035 A 
ATOM     44  C24 BEC d           9.179  25.445   1.853  0.00  0.00     0.009 A 
ATOM     45  C25 BEC d           7.778  25.649   1.989  0.00  0.00     0.001 A 
ATOM     46  C26 BEC d           6.956  24.622   2.541  0.00  0.00     0.000 A 
ATOM     47  C27 BEC d           7.537  23.392   2.957  0.00  0.00     0.001 A 
ATOM     48  C28 BEC d           8.942  23.193   2.818  0.00  0.00     0.009 A 
ENDBRANCH  42  43
ENDBRANCH  41  42
ENDBRANCH  27  41
ENDBRANCH  26  27
BRANCH  26  49
ATOM     49  O6  BEC d          14.629  25.194   4.331  0.00  0.00    -0.390 OA
ATOM     50  H20 BEC d          14.692  24.908   3.427  0.00  0.00     0.210 HD
ENDBRANCH  26  49
ENDBRANCH   1  26
BRANCH   1  51
ATOM     51  O8  BEC d          14.488  22.752   3.571  0.00  0.00    -0.390 OA
ATOM     52  H21 BEC d          13.794  22.918   2.944  0.00  0.00     0.210 HD
ENDBRANCH   1  51
TORSDOF 18
