REMARK  5 active torsions:
REMARK  status: ('A' for Active; 'I' for Inactive)
REMARK    1  A    between atoms: C1_1  and  C2_2 
REMARK    2  A    between atoms: C2_2  and  CA_3 
REMARK    3  A    between atoms: CA_3  and  CB_5 
REMARK    4  A    between atoms: CA_3  and  C_4 
REMARK    5  A    between atoms: CB_5  and  CG_6 
ROOT
ATOM      1  CA  BZS d          64.417  33.848  73.034  0.00  0.00     0.101 C 
ENDROOT
BRANCH   1   2
ATOM      2  C2  BZS d          65.804  33.744  72.326  0.00  0.00     0.128 C 
BRANCH   2   3
ATOM      3  C1  BZS d          66.265  32.317  71.992  0.00  0.00     0.173 C 
ATOM      4  O2  BZS d          66.749  32.167  70.869  0.00  0.00    -0.648 OA
ATOM      5  O1  BZS d          66.182  31.366  72.862  0.00  0.00    -0.648 OA
ENDBRANCH   2   3
ENDBRANCH   1   2
BRANCH   1   6
ATOM      6  CB  BZS d          63.889  35.268  73.136  0.00  0.00     0.054 C 
BRANCH   6   7
ATOM      7  CG  BZS d          63.864  35.984  71.833  0.00  0.00    -0.057 A 
ATOM      8  CD2 BZS d          64.857  36.934  71.569  0.00  0.00     0.007 A 
ATOM      9  CE2 BZS d          64.897  37.677  70.389  0.00  0.00     0.001 A 
ATOM     10  CZ  BZS d          63.919  37.388  69.431  0.00  0.00     0.000 A 
ATOM     11  CE1 BZS d          62.935  36.412  69.666  0.00  0.00     0.001 A 
ATOM     12  CD1 BZS d          62.889  35.706  70.873  0.00  0.00     0.007 A 
ENDBRANCH   6   7
ENDBRANCH   1   6
BRANCH   1  13
ATOM     13  C   BZS d          63.368  33.055  72.324  0.00  0.00     0.177 C 
ATOM     14  O4  BZS d          63.531  32.775  71.128  0.00  0.00    -0.648 OA
ATOM     15  O3  BZS d          62.362  32.805  72.978  0.00  0.00    -0.648 OA
ENDBRANCH   1  13
TORSDOF 5
