REMARK  3 active torsions:
REMARK  status: ('A' for Active; 'I' for Inactive)
REMARK    1  A    between atoms: S_1  and  N1_3 
REMARK    2  A    between atoms: C4_8  and  S_1 
REMARK    3  A    between atoms: C1_2  and  N7_11 
ROOT
ATOM      1  C1  MOL d           7.695  12.230   0.978  0.00  0.00     0.102 A 
ATOM      2  C2  MOL d           7.656  10.848   0.833  0.00  0.00     0.037 A 
ATOM      3  C3  MOL d           6.563  10.256   0.194  0.00  0.00     0.028 A 
ATOM      4  C4  MOL d           5.506  11.024  -0.260  0.00  0.00     0.079 A 
ATOM      5  C5  MOL d           5.559  12.410  -0.128  0.00  0.00     0.028 A 
ATOM      6  C6  MOL d           6.658  13.017   0.476  0.00  0.00     0.037 A 
ENDROOT
BRANCH   4   7
ATOM      7  S   MOL d           4.225  10.331  -1.014  0.00  0.00     0.256 S 
ATOM      8  O1  MOL d           3.016  10.900  -0.432  0.00  0.00    -0.201 OA
ATOM      9  O2  MOL d           4.400  10.752  -2.379  0.00  0.00    -0.201 OA
BRANCH   7  10
ATOM     10  N1  MOL d           4.373   8.737  -0.914  0.00  0.00    -0.324 N 
ATOM     11  H1  MOL d           4.279   8.281  -0.029  0.00  0.00     0.169 HD
ATOM     12  H2  MOL d           4.560   8.200  -1.736  0.00  0.00     0.169 HD
ENDBRANCH   7  10
ENDBRANCH   4   7
BRANCH   1  13
ATOM     13  N7  MOL d           8.743  12.872   1.645  0.00  0.00    -0.116 N 
ATOM     14  O12 MOL d           9.548  12.220   2.273  0.00  0.00    -0.532 OA
ATOM     15  O13 MOL d           8.803  14.101   1.620  0.00  0.00    -0.532 OA
ENDBRANCH   1  13
TORSDOF 3
