REMARK  4 active torsions:
REMARK  status: ('A' for Active; 'I' for Inactive)
REMARK    1  A    between atoms: C1_1  and  C7_7 
REMARK    2  A    between atoms: C7_7  and  N1_8 
REMARK    3  A    between atoms: C8_12  and  C1'_13 
REMARK    4  A    between atoms: C6'_18  and  O6'_19 
ROOT
ATOM      1  C1  BMZ d          29.421  15.002  17.037  0.00  0.00     0.009 A 
ATOM      2  C2  BMZ d          28.893  15.818  18.096  0.00  0.00     0.017 A 
ATOM      3  C3  BMZ d          28.598  15.316  19.369  0.00  0.00     0.033 A 
ATOM      4  C4  BMZ d          28.827  13.978  19.553  0.00  0.00     0.062 A 
ATOM      5  C5  BMZ d          29.321  13.161  18.588  0.00  0.00     0.086 A 
ATOM      6  C6  BMZ d          29.635  13.628  17.321  0.00  0.00     0.049 A 
ATOM      7  N3  BMZ d          28.626  13.235  20.595  0.00  0.00    -0.338 N 
ATOM      8  N4  BMZ d          29.448  11.903  19.005  0.00  0.00    -0.228 NA
ATOM      9  C8  BMZ d          28.991  12.045  20.246  0.00  0.00     0.141 A 
ATOM     10  H8  BMZ d          28.254  13.530  21.509  0.00  0.00     0.167 HD
ENDROOT
BRANCH   9  11
ATOM     11  C1' BMZ d          28.867  10.988  21.172  0.00  0.00     0.043 A 
ATOM     12  C2' BMZ d          29.451   9.729  20.970  0.00  0.00     0.018 A 
ATOM     13  C3' BMZ d          29.291   8.693  21.890  0.00  0.00     0.001 A 
ATOM     14  C4' BMZ d          28.536   8.887  23.028  0.00  0.00     0.003 A 
ATOM     15  C5' BMZ d          27.954  10.108  23.261  0.00  0.00     0.037 A 
ATOM     16  C6' BMZ d          28.110  11.146  22.351  0.00  0.00     0.079 A 
BRANCH  16  17
ATOM     17  O6' BMZ d          27.498  12.331  22.667  0.00  0.00    -0.360 OA
ATOM     18  H13 BMZ d          27.668  12.967  21.982  0.00  0.00     0.217 HD
ENDBRANCH  16  17
ENDBRANCH   9  11
BRANCH   1  19
ATOM     19  C7  BMZ d          29.680  15.565  15.754  0.00  0.00     0.102 C 
ATOM     20  N2  BMZ d          29.205  16.753  15.462  0.00  0.00    -0.385 N 
ATOM     21  H6  BMZ d          28.644  17.268  16.155  0.00  0.00     0.157 HD
ATOM     22  H7  BMZ d          29.393  17.170  14.539  0.00  0.00     0.157 HD
BRANCH  19  23
ATOM     23  N1  BMZ d          30.401  14.894  14.873  0.00  0.00    -0.385 N 
ATOM     24  H4  BMZ d          30.589  15.300  13.945  0.00  0.00     0.157 HD
ATOM     25  H5  BMZ d          30.775  13.965  15.114  0.00  0.00     0.157 HD
ENDBRANCH  19  23
ENDBRANCH   1  19
TORSDOF 4
