3k5i_ligand

Created by X-TOOL on Fri Sep 26 17:34:44 2014
 31 32  0  0  0  0  0  0  0  0999 V2000
  -22.5420    8.7420   44.9130  N 0  0  0  1  0  3
  -23.4360    8.6950   43.8910  C 0  0  0  2  0  3
  -24.3140    7.6920   43.8960  N 0  0  0  1  0  2
  -23.8520    7.0000   44.9900  C 0  0  0  2  0  3
  -22.7520    7.5670   45.5830  C 0  0  0  1  0  3
  -22.1000    7.1250   46.6810  N 0  0  0  3  0  3
  -21.6450    9.7990   45.3900  C 0  0  0  2  0  4
  -21.9520   11.1660   44.7920  C 0  0  0  2  0  4
  -22.7320   11.7760   45.9650  C 0  0  0  2  0  4
  -21.8770   11.3090   47.1290  C 0  0  0  2  0  4
  -21.8290    9.9080   46.7720  O 0  0  0  1  0  2
  -20.6550   11.7830   44.7510  O 0  0  0  2  0  2
  -22.7080   13.2030   45.9470  O 0  0  0  2  0  2
  -22.2140   11.6620   48.5650  C 0  0  0  3  0  4
  -21.8090   10.6380   49.5190  O 0  0  0  1  0  2
  -22.0790   10.8100   51.1170  P 0  0  0  1  0  4
  -21.9460   12.3180   51.6380  O 0  0  0  1  0  1
  -21.0710   10.0330   51.9220  O 0  0  0  1  0  1
  -23.4480   10.3230   51.5600  O 0  0  0  1  0  1
  -23.4353    9.4449   43.1013  H 0  0  0  1  0  1
  -24.3168    6.0846   45.3533  H 0  0  0  1  0  1
  -22.3499    6.2167   47.0976  H 0  0  0  1  0  1
  -21.3532    7.6964   47.1013  H 0  0  0  1  0  1
  -20.6051    9.5250   45.1587  H 0  0  0  1  0  1
  -22.4847   11.1668   43.8296  H 0  0  0  1  0  1
  -23.7666   11.4056   46.0132  H 0  0  0  1  0  1
  -20.8723   11.7341   46.9883  H 0  0  0  1  0  1
  -20.7549   12.7195   44.6271  H 0  0  0  1  0  1
  -21.8129   13.5022   45.8388  H 0  0  0  1  0  1
  -23.3021   11.8025   48.6442  H 0  0  0  1  0  1
  -21.7032   12.6014   48.8230  H 0  0  0  1  0  1
  1  2  1  0  0  1
  1  5  1  0  0  1
  1  7  1  0  0  2
  2  3  2  0  0  1
  3  4  1  0  0  1
  4  5  2  0  0  1
  5  6  1  0  0  2
  7  8  1  0  0  1
  7 11  1  0  0  1
  8  9  1  0  0  1
  8 12  1  0  0  2
  9 10  1  0  0  1
  9 13  1  0  0  2
 10 11  1  0  0  1
 10 14  1  0  0  2
 14 15  1  0  0  2
 15 16  1  0  0  2
 16 17  2  0  0  2
 16 18  2  0  0  2
 16 19  2  0  0  2
  2 20  1  0  0  2
  4 21  1  0  0  2
  6 22  1  0  0  2
  6 23  1  0  0  2
  7 24  1  0  0  2
  8 25  1  0  0  2
  9 26  1  0  0  2
 10 27  1  0  0  2
 12 28  1  0  0  2
 13 29  1  0  0  2
 14 30  1  0  0  2
 14 31  1  0  0  2
M  END
> <MOLECULAR_FORMULA>
C8H12N3O7P

> <MOLECULAR_WEIGHT>
293.1

> <NUM_HB_ATOMS>
10 

> <NUM_ROTOR>
3  

> <XLOGP2>
-2.63

$$$$
