REMARK  2 active torsions:
REMARK  status: ('A' for Active; 'I' for Inactive)
REMARK    1  A    between atoms: C2_2  and  C1_4 
REMARK    2  A    between atoms: C4_14  and  O3_15 
ROOT
ATOM      1  C1  DK1 d           6.588  36.144 -17.717  0.00  0.00     0.136 A 
ATOM      2  N1  DK1 d           5.539  36.893 -18.205  0.00  0.00    -0.241 NA
ATOM      3  C10 DK1 d           5.063  38.024 -17.546  0.00  0.00     0.074 A 
ATOM      4  C9  DK1 d           3.962  38.737 -18.132  0.00  0.00     0.056 A 
ATOM      5  C8  DK1 d           3.500  39.868 -17.464  0.00  0.00     0.037 A 
ATOM      6 CL2  DK1 d           2.181  40.742 -18.117  0.00  0.00    -0.084 Cl
ATOM      7  C7  DK1 d           4.075  40.326 -16.266  0.00  0.00     0.048 A 
ATOM      8  C6  DK1 d           5.133  39.635 -15.707  0.00  0.00     0.051 A 
ATOM      9 CL1  DK1 d           5.733  40.320 -14.255  0.00  0.00    -0.083 Cl
ATOM     10  C5  DK1 d           5.688  38.437 -16.307  0.00  0.00     0.048 A 
ATOM     11  C4  DK1 d           6.816  37.629 -15.760  0.00  0.00     0.082 A 
ATOM     12  C3  DK1 d           7.216  36.473 -16.542  0.00  0.00     0.076 A 
ENDROOT
BRANCH   1  13
ATOM     13  C2  DK1 d           6.965  34.961 -18.575  0.00  0.00     0.229 C 
ATOM     14  O1  DK1 d           6.381  34.718 -19.599  0.00  0.00    -0.643 OA
ATOM     15  O2  DK1 d           7.954  34.268 -18.096  0.00  0.00    -0.643 OA
ENDBRANCH   1  13
BRANCH  11  16
ATOM     16  O3  DK1 d           7.408  37.895 -14.697  0.00  0.00    -0.360 OA
ATOM     17  H3  DK1 d           8.088  37.250 -14.545  0.00  0.00     0.217 HD
ENDBRANCH  11  16
TORSDOF 2
