REMARK  3 active torsions:
REMARK  status: ('A' for Active; 'I' for Inactive)
REMARK    1  A    between atoms: N2_2  and  C4_4 
REMARK    2  A    between atoms: C7_7  and  C11_16 
REMARK    3  A    between atoms: C6_8  and  C10_9 
ROOT
ATOM      1  C4  LM4 d          -0.616   2.759  22.312  0.00  0.00     0.148 A 
ATOM      2  N9  LM4 d          -1.082   3.407  21.227  0.00  0.00    -0.132 NA
ATOM      3  N8  LM4 d          -2.074   2.889  20.409  0.00  0.00    -0.147 NA
ATOM      4  C7  LM4 d          -2.606   1.687  20.648  0.00  0.00     0.100 A 
ATOM      5  C6  LM4 d          -2.149   0.938  21.764  0.00  0.00     0.009 A 
ATOM      6  C5  LM4 d          -1.140   1.487  22.586  0.00  0.00     0.067 A 
ENDROOT
BRANCH   4   7
ATOM      7  C11 LM4 d          -3.625   1.196  19.717  0.00  0.00    -0.004 A 
ATOM      8  C16 LM4 d          -3.310   1.138  18.376  0.00  0.00     0.026 A 
ATOM      9  C15 LM4 d          -4.231   0.663  17.470  0.00  0.00    -0.025 A 
ATOM     10  C25 LM4 d          -3.906   0.601  16.130  0.00  0.00     0.012 A 
ATOM     11  C14 LM4 d          -5.485   0.256  17.895  0.00  0.00    -0.026 A 
ATOM     12  C24 LM4 d          -4.829   0.118  15.210  0.00  0.00     0.001 A 
ATOM     13  C23 LM4 d          -6.084  -0.324  15.630  0.00  0.00     0.001 A 
ATOM     14  C22 LM4 d          -6.393  -0.234  16.982  0.00  0.00     0.012 A 
ATOM     15  C13 LM4 d          -5.803   0.297  19.237  0.00  0.00     0.013 A 
ATOM     16  C12 LM4 d          -4.876   0.759  20.154  0.00  0.00     0.015 A 
ENDBRANCH   4   7
BRANCH   5  17
ATOM     17  C10 LM4 d          -2.605  -0.460  22.080  0.00  0.00    -0.021 A 
ATOM     18  C21 LM4 d          -2.639  -1.408  21.058  0.00  0.00     0.031 A 
ATOM     19  C20 LM4 d          -2.990  -2.725  21.336  0.00  0.00     0.117 A 
ATOM     20  N19 LM4 d          -3.278  -3.090  22.600  0.00  0.00    -0.273 NA
ATOM     21  C18 LM4 d          -3.211  -2.214  23.612  0.00  0.00     0.117 A 
ATOM     22  C17 LM4 d          -2.852  -0.895  23.394  0.00  0.00     0.031 A 
ENDBRANCH   5  17
BRANCH   1  23
ATOM     23  N2  LM4 d           0.404   3.373  23.071  0.00  0.00    -0.373 N 
ATOM     24  C3  LM4 d           0.919   4.669  22.642  0.00  0.00     0.150 C 
ATOM     25  C1  LM4 d           1.006   2.699  24.224  0.00  0.00     0.150 C 
ENDBRANCH   1  23
TORSDOF 3
