REMARK  20 active torsions:
REMARK  status: ('A' for Active; 'I' for Inactive)
REMARK    1  A    between atoms: C3_3  and  C7_7 
REMARK    2  A    between atoms: C4_4  and  C27_27 
REMARK    3  A    between atoms: C7_7  and  C8_8 
REMARK    4  A    between atoms: C8_8  and  C9_9 
REMARK    5  A    between atoms: C9_9  and  C10_10 
REMARK    6  A    between atoms: C10_10  and  C11_11 
REMARK    7  A    between atoms: C11_11  and  C12_12 
REMARK    8  A    between atoms: C12_12  and  C13_13 
REMARK    9  A    between atoms: C13_13  and  C14_14 
REMARK   10  A    between atoms: C14_14  and  C15_15 
REMARK   11  A    between atoms: C15_15  and  C16_16 
REMARK       I    between atoms: C16_16  and  N17_17 
REMARK   12  A    between atoms: N17_17  and  C18_18 
REMARK   13  A    between atoms: C18_18  and  C20_20 
REMARK   14  A    between atoms: C18_18  and  C21_21 
REMARK   15  A    between atoms: C20_20  and  C23_23 
REMARK       I    between atoms: C21_21  and  N22_22 
REMARK   16  A    between atoms: N22_22  and  O32_32 
REMARK   17  A    between atoms: C23_23  and  C24_24 
REMARK   18  A    between atoms: C24_24  and  C25_25 
REMARK   19  A    between atoms: C25_25  and  N26_26 
REMARK   20  A    between atoms: C27_27  and  N28_28 
REMARK       I    between atoms: N28_28  and  C29_29 
REMARK       I    between atoms: C29_29  and  N30_30 
ROOT
ATOM      1  C12 FA4 d         -43.875  27.996 -16.229  0.00  0.00     0.000 C 
ENDROOT
BRANCH   1   2
ATOM      2  C11 FA4 d         -42.629  27.187 -16.585  0.00  0.00     0.000 C 
BRANCH   2   3
ATOM      3  C10 FA4 d         -42.533  26.004 -15.620  0.00  0.00     0.000 C 
BRANCH   3   4
ATOM      4  C9  FA4 d         -41.135  25.432 -15.413  0.00  0.00     0.000 C 
BRANCH   4   5
ATOM      5  C8  FA4 d         -41.078  23.997 -14.863  0.00  0.00     0.005 C 
BRANCH   5   6
ATOM      6  C7  FA4 d         -41.710  23.813 -13.465  0.00  0.00     0.039 C 
BRANCH   6   7
ATOM      7  C3  FA4 d         -41.809  22.327 -13.102  0.00  0.00    -0.050 A 
ATOM      8  C2  FA4 d         -40.688  21.761 -12.415  0.00  0.00     0.007 A 
ATOM      9  C1  FA4 d         -40.671  20.393 -12.038  0.00  0.00     0.001 A 
ATOM     10  C6  FA4 d         -41.775  19.556 -12.339  0.00  0.00     0.001 A 
ATOM     11  C5  FA4 d         -42.899  20.079 -13.013  0.00  0.00     0.009 A 
ATOM     12  C4  FA4 d         -42.947  21.466 -13.407  0.00  0.00    -0.034 A 
BRANCH  12  13
ATOM     13  C27 FA4 d         -44.196  21.961 -14.124  0.00  0.00     0.177 C 
BRANCH  13  14
ATOM     14  N28 FA4 d         -45.469  21.337 -13.511  0.00  0.00    -0.223 N 
ATOM     15  C29 FA4 d         -46.235  22.109 -12.579  0.00  0.00     0.665 C 
ATOM     16  N30 FA4 d         -45.687  23.275 -12.001  0.00  0.00    -0.235 N 
ATOM     17  N31 FA4 d         -47.424  21.748 -12.251  0.00  0.00    -0.235 N 
ATOM     18  H40 FA4 d         -46.241  23.827 -11.331  0.00  0.00     0.174 HD
ATOM     19  H41 FA4 d         -44.733  23.573 -12.249  0.00  0.00     0.174 HD
ATOM     20  H42 FA4 d         -47.837  20.900 -12.664  0.00  0.00     0.174 HD
ATOM     21  H43 FA4 d         -47.964  22.307 -11.575  0.00  0.00     0.174 HD
ATOM     22  H39 FA4 d         -45.762  20.383 -13.768  0.00  0.00     0.178 HD
ENDBRANCH  13  14
ENDBRANCH  12  13
ENDBRANCH   6   7
ENDBRANCH   5   6
ENDBRANCH   4   5
ENDBRANCH   3   4
ENDBRANCH   2   3
ENDBRANCH   1   2
BRANCH   1  23
ATOM     23  C13 FA4 d         -44.110  29.202 -17.133  0.00  0.00     0.000 C 
BRANCH  23  24
ATOM     24  C14 FA4 d         -43.631  30.506 -16.479  0.00  0.00     0.009 C 
BRANCH  24  25
ATOM     25  C15 FA4 d         -43.852  31.742 -17.352  0.00  0.00     0.103 C 
BRANCH  25  26
ATOM     26  C16 FA4 d         -43.184  31.665 -18.711  0.00  0.00     0.218 C 
ATOM     27  N17 FA4 d         -44.065  31.362 -19.741  0.00  0.00    -0.348 N 
ATOM     28  H23 FA4 d         -45.026  31.225 -19.500  0.00  0.00     0.163 HD
ATOM     29  O19 FA4 d         -41.984  31.847 -18.890  0.00  0.00    -0.274 OA
BRANCH  27  30
ATOM     30  C18 FA4 d         -43.692  31.226 -21.170  0.00  0.00     0.178 C 
BRANCH  30  31
ATOM     31  C20 FA4 d         -44.913  31.693 -21.997  0.00  0.00     0.035 C 
BRANCH  31  32
ATOM     32  C23 FA4 d         -44.555  32.136 -23.442  0.00  0.00     0.004 C 
BRANCH  32  33
ATOM     33  C24 FA4 d         -44.943  31.208 -24.619  0.00  0.00     0.027 C 
BRANCH  33  34
ATOM     34  C25 FA4 d         -45.331  31.971 -25.904  0.00  0.00     0.229 C 
BRANCH  34  35
ATOM     35  N26 FA4 d         -44.319  31.762 -26.969  0.00  0.00    -0.079 N 
ATOM     36  H34 FA4 d         -44.593  32.268 -27.797  0.00  0.00     0.274 HD
ATOM     37  H35 FA4 d         -44.254  30.779 -27.183  0.00  0.00     0.274 HD
ATOM     38  H36 FA4 d         -43.423  32.097 -26.651  0.00  0.00     0.274 HD
ENDBRANCH  34  35
ENDBRANCH  33  34
ENDBRANCH  32  33
ENDBRANCH  31  32
ENDBRANCH  30  31
BRANCH  30  39
ATOM     39  C21 FA4 d         -43.374  29.739 -21.449  0.00  0.00     0.263 C 
ATOM     40  N22 FA4 d         -42.289  29.250 -20.820  0.00  0.00    -0.236 N 
ATOM     41  H27 FA4 d         -41.748  29.819 -20.200  0.00  0.00     0.197 HD
ATOM     42  O33 FA4 d         -44.036  29.028 -22.205  0.00  0.00    -0.269 OA
BRANCH  40  43
ATOM     43  O32 FA4 d         -41.945  27.913 -21.066  0.00  0.00    -0.287 OA
ATOM     44  H44 FA4 d         -42.663  27.349 -20.804  0.00  0.00     0.244 HD
ENDBRANCH  40  43
ENDBRANCH  30  39
ENDBRANCH  27  30
ENDBRANCH  25  26
ENDBRANCH  24  25
ENDBRANCH  23  24
ENDBRANCH   1  23
TORSDOF 20
