REMARK  9 active torsions:
REMARK  status: ('A' for Active; 'I' for Inactive)
REMARK    1  A    between atoms: PB_1  and  O3A_8 
REMARK    2  A    between atoms: O3A_8  and  PA_5 
REMARK    3  A    between atoms: PA_5  and  O5'_9 
REMARK    4  A    between atoms: O5'_9  and  C5'_10 
REMARK    5  A    between atoms: C5'_10  and  C4'_11 
REMARK    6  A    between atoms: C3'_13  and  O3'_14 
REMARK    7  A    between atoms: C2'_15  and  O2'_16 
REMARK    8  A    between atoms: O2'_16  and  P2'_17 
REMARK    9  A    between atoms: C1'_21  and  N9_22 
ROOT
ATOM      1  C4' ATR d          37.768  -6.304  19.848  0.00  0.00     0.180 C 
ATOM      2  O4' ATR d          36.874  -5.722  18.930  0.00  0.00    -0.353 OA
ATOM      3  C3' ATR d          38.946  -7.041  19.057  0.00  0.00     0.183 C 
ATOM      4  C2' ATR d          38.108  -7.472  17.868  0.00  0.00     0.216 C 
ATOM      5  C1' ATR d          36.947  -6.480  17.756  0.00  0.00     0.263 C 
ENDROOT
BRANCH   5   6
ATOM      6  N9  ATR d          36.905  -5.648  16.467  0.00  0.00    -0.294 N 
ATOM      7  C4  ATR d          37.354  -4.343  16.162  0.00  0.00     0.167 A 
ATOM      8  C5  ATR d          36.796  -4.054  14.909  0.00  0.00     0.149 A 
ATOM      9  N3  ATR d          38.125  -3.494  16.933  0.00  0.00    -0.222 NA
ATOM     10  N7  ATR d          36.017  -5.159  14.405  0.00  0.00    -0.236 NA
ATOM     11  C6  ATR d          37.043  -2.740  14.385  0.00  0.00     0.155 A 
ATOM     12  C8  ATR d          36.134  -6.034  15.355  0.00  0.00     0.214 A 
ATOM     13  N1  ATR d          37.794  -1.890  15.179  0.00  0.00    -0.222 NA
ATOM     14  N6  ATR d          36.628  -2.386  13.143  0.00  0.00    -0.382 N 
ATOM     15  C2  ATR d          38.267  -2.318  16.346  0.00  0.00     0.237 A 
ATOM     16  H9  ATR d          36.816  -1.438  12.788  0.00  0.00     0.157 HD
ATOM     17  H10 ATR d          36.124  -3.066  12.555  0.00  0.00     0.157 HD
ENDBRANCH   5   6
BRANCH   4  18
ATOM     18  O2' ATR d          37.476  -8.698  18.180  0.00  0.00    -0.270 OA
BRANCH  18  19
ATOM     19  P2' ATR d          36.704  -9.460  16.942  0.00  0.00     0.422 P 
ATOM     20  O3P ATR d          36.362 -10.597  17.850  0.00  0.00    -0.617 OA
ATOM     21  O2P ATR d          37.779  -9.688  15.918  0.00  0.00    -0.617 OA
ATOM     22  O1P ATR d          35.579  -8.594  16.496  0.00  0.00    -0.617 OA
ENDBRANCH  18  19
ENDBRANCH   4  18
BRANCH   1  23
ATOM     23  C5' ATR d          38.008  -5.048  20.509  0.00  0.00     0.216 C 
BRANCH  23  24
ATOM     24  O5' ATR d          39.291  -5.001  21.157  0.00  0.00    -0.287 OA
BRANCH  24  25
ATOM     25  PA  ATR d          38.965  -5.325  22.760  0.00  0.00     0.418 P 
ATOM     26  O2A ATR d          40.197  -4.969  23.613  0.00  0.00    -0.624 OA
ATOM     27  O1A ATR d          38.398  -6.729  22.747  0.00  0.00    -0.624 OA
BRANCH  25  28
ATOM     28  O3A ATR d          37.564  -4.325  22.985  0.00  0.00    -0.173 OA
BRANCH  28  29
ATOM     29  PB  ATR d          37.241  -2.786  23.066  0.00  0.00     0.431 P 
ATOM     30  O3B ATR d          37.813  -2.183  21.857  0.00  0.00    -0.616 OA
ATOM     31  O2B ATR d          35.775  -2.898  23.126  0.00  0.00    -0.616 OA
ATOM     32  O1B ATR d          37.837  -2.284  24.299  0.00  0.00    -0.616 OA
ENDBRANCH  28  29
ENDBRANCH  25  28
ENDBRANCH  24  25
ENDBRANCH  23  24
ENDBRANCH   1  23
BRANCH   3  33
ATOM     33  O3' ATR d          39.537  -8.285  19.694  0.00  0.00    -0.390 OA
ATOM     34  H5  ATR d          38.835  -8.858  19.979  0.00  0.00     0.210 HD
ENDBRANCH   3  33
TORSDOF 9
