REMARK  4 active torsions:
REMARK  status: ('A' for Active; 'I' for Inactive)
REMARK    1  A    between atoms: C3_3  and  O3_4 
REMARK    2  A    between atoms: C4_5  and  O2_6 
REMARK    3  A    between atoms: C5_7  and  C6_8 
REMARK    4  A    between atoms: C6_8  and  O1_9 
ROOT
ATOM      1  O   IF7 d          75.928  90.855  19.724  0.00  0.00    -0.271 OA
ATOM      2  C2  IF7 d          76.986  90.292  19.427  0.00  0.00     0.249 C 
ATOM      3  C3  IF7 d          78.082  90.315  20.484  0.00  0.00     0.239 C 
ATOM      4  C4  IF7 d          79.166  89.279  20.201  0.00  0.00     0.163 C 
ATOM      5  C5  IF7 d          79.599  89.338  18.736  0.00  0.00     0.059 C 
ATOM      6  C1  IF7 d          78.403  89.037  17.822  0.00  0.00     0.132 C 
ATOM      7  N   IF7 d          77.176  89.729  18.241  0.00  0.00    -0.358 N 
ATOM      8  H11 IF7 d          76.426  89.779  17.581  0.00  0.00     0.162 HD
ENDROOT
BRANCH   5   9
ATOM      9  C6  IF7 d          80.710  88.355  18.433  0.00  0.00     0.173 C 
BRANCH   9  10
ATOM     10  O1  IF7 d          81.202  88.540  17.121  0.00  0.00    -0.400 OA
ATOM     11  H8  IF7 d          81.542  89.423  17.033  0.00  0.00     0.209 HD
ENDBRANCH   9  10
ENDBRANCH   5   9
BRANCH   4  12
ATOM     12  O2  IF7 d          78.683  87.981  20.531  0.00  0.00    -0.392 OA
ATOM     13  H4  IF7 d          78.453  87.955  21.452  0.00  0.00     0.210 HD
ENDBRANCH   4  12
BRANCH   3  14
ATOM     14  O3  IF7 d          77.527  90.109  21.773  0.00  0.00    -0.384 OA
ATOM     15  H2  IF7 d          78.221  90.126  22.422  0.00  0.00     0.210 HD
ENDBRANCH   3  14
TORSDOF 4
