REMARK  4 active torsions:
REMARK  status: ('A' for Active; 'I' for Inactive)
REMARK    1  A    between atoms: N4_4  and  C14_14 
REMARK    2  A    between atoms: C16_16  and  N17_17 
REMARK    3  A    between atoms: N17_17  and  C18_18 
REMARK    4  A    between atoms: C24_23  and  C25_24 
REMARK       I    between atoms: C25_24  and  N26_25 
ROOT
ATOM      1  C14 MOL d           2.829 -11.365 -24.085  0.00  0.00     0.044 A 
ATOM      2  C15 MOL d           2.245 -10.200 -24.579  0.00  0.00     0.060 A 
ATOM      3  C16 MOL d           0.864 -10.147 -24.798  0.00  0.00     0.049 A 
ATOM      4  C24 MOL d           0.069 -11.308 -24.533  0.00  0.00     0.096 A 
ATOM      5  C28 MOL d           0.717 -12.443 -24.057  0.00  0.00     0.136 A 
ATOM      6  F29 MOL d          -0.021 -13.565 -23.874  0.00  0.00    -0.205 F 
ATOM      7  C30 MOL d           2.061 -12.499 -23.800  0.00  0.00     0.073 A 
ENDROOT
BRANCH   1   8
ATOM      8  N4  MOL d           4.254 -11.400 -23.881  0.00  0.00    -0.324 N 
ATOM      9  C3  MOL d           5.008 -10.331 -23.423  0.00  0.00     0.105 A 
ATOM     10  C2  MOL d           6.328 -10.622 -23.509  0.00  0.00    -0.030 A 
ATOM     11  C1  MOL d           7.447  -9.683 -23.133  0.00  0.00     0.050 C 
ATOM     12  C6  MOL d           6.420 -11.953 -24.043  0.00  0.00     0.040 A 
ATOM     13  C5  MOL d           5.133 -12.400 -24.277  0.00  0.00     0.031 A 
ATOM     14  C7  MOL d           7.540 -12.859 -24.347  0.00  0.00     0.162 C 
ATOM     15  C13 MOL d           4.777 -13.712 -24.911  0.00  0.00     0.067 C 
ATOM     16  C10 MOL d           5.930 -14.357 -25.689  0.00  0.00    -0.036 C 
ATOM     17  C9  MOL d           7.205 -14.251 -24.836  0.00  0.00     0.093 C 
ATOM     18  C11 MOL d           6.134 -13.641 -27.027  0.00  0.00     0.015 C 
ATOM     19  C12 MOL d           5.598 -15.821 -25.964  0.00  0.00     0.015 C 
ATOM     20  O8  MOL d           8.706 -12.495 -24.243  0.00  0.00    -0.292 OA
ENDBRANCH   1   8
BRANCH   3  21
ATOM     21  N17 MOL d           0.281  -8.972 -25.225  0.00  0.00    -0.382 N 
ATOM     22  H   MOL d          -0.748  -8.965 -25.275  0.00  0.00     0.160 HD
BRANCH  21  23
ATOM     23  C18 MOL d           0.956  -7.737 -25.614  0.00  0.00     0.107 C 
ATOM     24  C20 MOL d           1.495  -7.848 -27.046  0.00  0.00     0.053 C 
ATOM     25  C21 MOL d           0.275  -7.519 -27.895  0.00  0.00     0.169 C 
ATOM     26  O22 MOL d          -0.606  -6.761 -27.044  0.00  0.00    -0.389 OA
ATOM     27  C23 MOL d          -0.039  -6.607 -25.743  0.00  0.00     0.192 C 
ENDBRANCH  21  23
ENDBRANCH   3  21
BRANCH   4  28
ATOM     28  C25 MOL d          -1.417 -11.316 -24.818  0.00  0.00     0.254 C 
ATOM     29  N26 MOL d          -1.794 -10.655 -25.886  0.00  0.00    -0.366 N 
ATOM     30  H   MOL d          -2.762 -10.618 -26.135  0.00  0.00     0.159 HD
ATOM     31  H   MOL d          -1.114 -10.188 -26.451  0.00  0.00     0.159 HD
ATOM     32  O27 MOL d          -2.223 -11.949 -24.104  0.00  0.00    -0.268 OA
ENDBRANCH   4  28
TORSDOF 4
