REMARK  13 active torsions:
REMARK  status: ('A' for Active; 'I' for Inactive)
REMARK    1  A    between atoms: C3_3  and  C20_20 
REMARK    2  A    between atoms: C4_4  and  O8_8 
REMARK    3  A    between atoms: C6_6  and  C12_12 
REMARK    4  A    between atoms: C6_6  and  C9_9 
REMARK    5  A    between atoms: C9_9  and  C10_10 
REMARK    6  A    between atoms: C12_12  and  C13_13 
REMARK    7  A    between atoms: C13_13  and  C14_14 
REMARK    8  A    between atoms: C20_20  and  C23_23 
REMARK    9  A    between atoms: C20_20  and  C21_21 
REMARK   10  A    between atoms: C27_27  and  N28_28 
REMARK   11  A    between atoms: N28_28  and  S30_30 
REMARK   12  A    between atoms: S30_30  and  C33_33 
REMARK   13  A    between atoms: C36_36  and  C39_39 
ROOT
ATOM      1  C20 TPV d          11.228  24.207   5.108  0.00  0.00     0.060 C 
ENDROOT
BRANCH   1   2
ATOM      2  C3  TPV d          12.547  23.548   5.488  0.00  0.00     0.055 C 
ATOM      3  C2  TPV d          12.487  22.202   6.119  0.00  0.00     0.293 C 
ATOM      4  O1  TPV d          13.549  21.422   6.078  0.00  0.00    -0.306 OA
ATOM      5  O7  TPV d          11.438  21.718   6.484  0.00  0.00    -0.259 OA
ATOM      6  C6  TPV d          14.898  22.024   5.886  0.00  0.00     0.077 C 
ATOM      7  C5  TPV d          15.030  23.252   5.600  0.00  0.00     0.103 C 
ATOM      8  C4  TPV d          13.803  23.939   4.984  0.00  0.00     0.059 C 
BRANCH   6   9
ATOM      9  C12 TPV d          15.023  21.558   7.303  0.00  0.00     0.043 C 
BRANCH   9  10
ATOM     10  C13 TPV d          16.369  21.839   7.800  0.00  0.00     0.041 C 
BRANCH  10  11
ATOM     11  C14 TPV d          17.153  21.043   8.713  0.00  0.00    -0.058 C 
ATOM     12  C19 TPV d          18.502  21.476   8.905  0.00  0.00     0.007 C 
ATOM     13  C18 TPV d          19.422  20.606   9.518  0.00  0.00     0.001 C 
ATOM     14  C17 TPV d          18.909  19.597  10.374  0.00  0.00     0.000 C 
ATOM     15  C16 TPV d          17.530  19.281  10.340  0.00  0.00     0.001 C 
ATOM     16  C15 TPV d          16.659  20.012   9.507  0.00  0.00     0.007 C 
ENDBRANCH  10  11
ENDBRANCH   9  10
ENDBRANCH   6   9
BRANCH   6  17
ATOM     17  C9  TPV d          15.673  21.224   4.793  0.00  0.00     0.038 C 
BRANCH  17  18
ATOM     18  C10 TPV d          14.930  20.787   3.808  0.00  0.00    -0.002 C 
ATOM     19  C11 TPV d          15.304  19.611   2.940  0.00  0.00     0.005 C 
ENDBRANCH  17  18
ENDBRANCH   6  17
BRANCH   8  20
ATOM     20  O8  TPV d          13.993  25.128   4.403  0.00  0.00    -0.364 OA
ATOM     21  H3  TPV d          14.900  25.205   4.131  0.00  0.00     0.217 HD
ENDBRANCH   8  20
ENDBRANCH   1   2
BRANCH   1  22
ATOM     22  C23 TPV d          10.829  25.104   6.300  0.00  0.00    -0.047 C 
ATOM     23  C29 TPV d           9.507  25.585   6.353  0.00  0.00     0.038 C 
ATOM     24  C27 TPV d           9.078  26.343   7.449  0.00  0.00     0.043 C 
ATOM     25  C26 TPV d           9.996  26.746   8.414  0.00  0.00     0.030 C 
ATOM     26  C25 TPV d          11.369  26.489   8.219  0.00  0.00     0.003 C 
ATOM     27  C24 TPV d          11.751  25.555   7.216  0.00  0.00     0.008 C 
BRANCH  24  28
ATOM     28  N28 TPV d           7.369  26.738   7.833  0.00  0.00    -0.279 N 
ATOM     29  H29 TPV d           6.775  26.234   8.460  0.00  0.00     0.179 HD
BRANCH  28  30
ATOM     30  S30 TPV d           6.964  28.046   6.989  0.00  0.00     0.280 S 
ATOM     31  O32 TPV d           5.612  28.368   7.312  0.00  0.00    -0.199 OA
ATOM     32  O31 TPV d           8.002  29.091   7.303  0.00  0.00    -0.199 OA
BRANCH  30  33
ATOM     33  C33 TPV d           7.125  27.667   5.296  0.00  0.00     0.171 C 
ATOM     34  C38 TPV d           6.079  27.045   4.620  0.00  0.00     0.046 C 
ATOM     35  C37 TPV d           6.239  26.749   3.244  0.00  0.00     0.021 C 
ATOM     36  C36 TPV d           7.436  27.088   2.635  0.00  0.00     0.065 C 
ATOM     37  C35 TPV d           8.381  27.822   3.363  0.00  0.00     0.134 C 
ATOM     38  N34 TPV d           8.271  28.067   4.676  0.00  0.00    -0.247 NA
BRANCH  36  39
ATOM     39  C39 TPV d           7.727  26.758   1.174  0.00  0.00     0.418 C 
ATOM     40  F42 TPV d           8.595  25.636   1.227  0.00  0.00    -0.166 F 
ATOM     41  F40 TPV d           8.386  27.915   0.673  0.00  0.00    -0.166 F 
ATOM     42  F41 TPV d           6.501  26.511   0.569  0.00  0.00    -0.166 F 
ENDBRANCH  36  39
ENDBRANCH  30  33
ENDBRANCH  28  30
ENDBRANCH  24  28
ENDBRANCH   1  22
BRANCH   1  43
ATOM     43  C21 TPV d          10.591  24.700   3.760  0.00  0.00     0.010 C 
ATOM     44  C22 TPV d          10.588  23.794   2.551  0.00  0.00     0.006 C 
ENDBRANCH   1  43
TORSDOF 13
