2g8r_ligand

Created by X-TOOL on Fri Sep 26 17:34:32 2014
 46 48  0  0  0  0  0  0  0  0999 V2000
   38.5350    1.0970   18.1450  O 0  0  0  1  0  1
   39.3940    1.8400   17.6080  C 0  0  0  1  0  3
   40.0240    1.4240   16.4820  N 0  0  0  2  0  3
   40.9670    2.1990   15.8860  C 0  0  0  1  0  3
   41.5370    1.7960   14.8380  O 0  0  0  1  0  1
   41.2770    3.4430   16.4440  C 0  0  0  2  0  3
   40.6120    3.8420   17.6060  C 0  0  0  2  0  3
   39.6840    3.0300   18.1680  N 0  0  0  1  0  3
   38.9760    3.4220   19.3960  C 0  0  0  2  0  4
   39.1370    4.8120   19.7010  O 0  0  0  1  0  2
   39.5400    4.9970   21.0700  C 0  0  0  2  0  4
   40.9230    5.6470   21.1450  C 0  0  0  3  0  4
   41.2290    6.2690   19.8900  O 0  0  0  2  0  2
   39.4540    2.6240   20.6170  C 0  0  0  2  0  4
   40.7460    2.0390   20.3840  O 0  0  0  2  0  2
   39.5610    3.6250   21.7540  C 0  0  0  2  0  4
   38.3730    3.3910   22.5880  N 0  3  0  2  0  4
   38.6230    2.5690   23.7870  C 0  0  0  3  0  4
   37.0890    3.9160   22.0880  C 0  0  0  3  0  4
   35.9730    3.8530   23.1180  C 0  0  0  3  0  4
   36.3450    3.2910   24.4910  C 0  0  0  2  0  4
   37.3020    2.1130   24.4060  C 0  0  0  3  0  4
   35.0830    3.0280   25.2690  C 0  5  0  1  0  3
   34.7770    1.8940   25.7380  O 0  0  0  1  0  1
   34.4030    4.0540   25.4220  O 0  0  0  1  0  1
   39.7917    0.5359   16.0854  H 0  0  0  1  0  1
   42.0224    4.0884   15.9817  H 0  0  0  1  0  1
   40.8393    4.8054   18.0601  H 0  0  0  1  0  1
   37.9057    3.2199   19.2420  H 0  0  0  1  0  1
   38.8128    5.6473   21.5782  H 0  0  0  1  0  1
   41.6778    4.8780   21.3664  H 0  0  0  1  0  1
   40.9284    6.4061   21.9411  H 0  0  0  1  0  1
   41.2243    5.6128   19.2031  H 0  0  0  1  0  1
   38.7294    1.8335   20.8622  H 0  0  0  1  0  1
   41.0157    1.5526   21.1542  H 0  0  0  1  0  1
   40.4817    3.4945   22.3416  H 0  0  0  1  0  1
   38.5144    4.2346   23.1213  H 0  0  0  1  0  1
   39.1822    3.1640   24.5241  H 0  0  0  1  0  1
   39.2144    1.6858   23.5040  H 0  0  0  1  0  1
   36.7880    3.3252   21.2103  H 0  0  0  1  0  1
   37.2322    4.9657   21.7919  H 0  0  0  1  0  1
   35.1714    3.2232   22.7047  H 0  0  0  1  0  1
   35.5962    4.8758   23.2661  H 0  0  0  1  0  1
   36.8878    4.0827   25.0283  H 0  0  0  1  0  1
   37.4878    1.7188   25.4160  H 0  0  0  1  0  1
   36.8575    1.3247   23.7807  H 0  0  0  1  0  1
  1  2  2  0  0  2
  2  3  1  0  0  1
  2  8  1  0  0  1
  3  4  1  0  0  1
  4  5  2  0  0  2
  4  6  1  0  0  1
  6  7  2  0  0  1
  7  8  1  0  0  1
  8  9  1  0  0  2
  9 10  1  0  0  1
  9 14  1  0  0  1
 10 11  1  0  0  1
 11 12  1  0  0  2
 11 16  1  0  0  1
 12 13  1  0  0  2
 14 15  1  0  0  2
 14 16  1  0  0  1
 16 17  1  0  0  2
 17 18  1  0  0  1
 17 19  1  0  0  1
 18 22  1  0  0  1
 19 20  1  0  0  1
 20 21  1  0  0  1
 21 22  1  0  0  1
 21 23  1  0  0  2
 23 24  2  0  0  2
 23 25  2  0  0  2
  3 26  1  0  0  2
  6 27  1  0  0  2
  7 28  1  0  0  2
  9 29  1  0  0  2
 11 30  1  0  0  2
 12 31  1  0  0  2
 12 32  1  0  0  2
 13 33  1  0  0  2
 14 34  1  0  0  2
 15 35  1  0  0  2
 16 36  1  0  0  2
 17 37  1  0  0  2
 18 38  1  0  0  2
 18 39  1  0  0  2
 19 40  1  0  0  2
 19 41  1  0  0  2
 20 42  1  0  0  2
 20 43  1  0  0  2
 21 44  1  0  0  2
 22 45  1  0  0  2
 22 46  1  0  0  2
M  END
> <MOLECULAR_FORMULA>
C15H21N3O7

> <MOLECULAR_WEIGHT>
355.2

> <NUM_HB_ATOMS>
9  

> <NUM_ROTOR>
3  

> <XLOGP2>
-2.76

$$$$
