REMARK  6 active torsions:
REMARK  status: ('A' for Active; 'I' for Inactive)
REMARK    1  A    between atoms: N1_8  and  C1'_9 
REMARK    2  A    between atoms: C4'_11  and  C5'_12 
REMARK    3  A    between atoms: C5'_12  and  O5'_13 
REMARK    4  A    between atoms: C2'_14  and  O2'_15 
REMARK    5  A    between atoms: C3'_16  and  N7_17 
REMARK    6  A    between atoms: C10_21  and  C11_23 
ROOT
ATOM      1  C1' N3E d          38.976   3.422  19.396  0.00  0.00     0.263 C 
ATOM      2  O4' N3E d          39.137   4.812  19.701  0.00  0.00    -0.354 OA
ATOM      3  C4' N3E d          39.540   4.997  21.070  0.00  0.00     0.181 C 
ATOM      4  C2' N3E d          39.454   2.624  20.617  0.00  0.00     0.201 C 
ATOM      5  C3' N3E d          39.561   3.625  21.754  0.00  0.00     0.252 C 
ENDROOT
BRANCH   5   6
ATOM      6  N7  N3E d          38.373   3.391  22.588  0.00  0.00    -0.062 N 
ATOM      7  C13 N3E d          38.623   2.569  23.787  0.00  0.00     0.236 C 
ATOM      8  C12 N3E d          37.302   2.113  24.406  0.00  0.00     0.043 C 
ATOM      9  C10 N3E d          36.345   3.291  24.491  0.00  0.00     0.090 C 
ATOM     10  C9  N3E d          35.973   3.853  23.118  0.00  0.00     0.043 C 
ATOM     11  C8  N3E d          37.089   3.916  22.088  0.00  0.00     0.236 C 
ATOM     12  H12 N3E d          38.514   4.235  23.121  0.00  0.00     0.280 HD
BRANCH   9  13
ATOM     13  C11 N3E d          35.083   3.028  25.269  0.00  0.00     0.177 C 
ATOM     14  O13 N3E d          34.777   1.894  25.738  0.00  0.00    -0.648 OA
ATOM     15  O12 N3E d          34.403   4.054  25.422  0.00  0.00    -0.648 OA
ENDBRANCH   9  13
ENDBRANCH   5   6
BRANCH   3  16
ATOM     16  C5' N3E d          40.923   5.647  21.145  0.00  0.00     0.198 C 
BRANCH  16  17
ATOM     17  O5' N3E d          41.229   6.269  19.890  0.00  0.00    -0.398 OA
ATOM     18  H8  N3E d          41.224   5.613  19.203  0.00  0.00     0.209 HD
ENDBRANCH  16  17
ENDBRANCH   3  16
BRANCH   4  19
ATOM     19  O2' N3E d          40.746   2.039  20.384  0.00  0.00    -0.389 OA
ATOM     20  H10 N3E d          41.016   1.553  21.154  0.00  0.00     0.210 HD
ENDBRANCH   4  19
BRANCH   1  21
ATOM     21  N1  N3E d          39.684   3.030  18.168  0.00  0.00    -0.280 N 
ATOM     22  C2  N3E d          39.394   1.840  17.608  0.00  0.00     0.331 A 
ATOM     23  O2  N3E d          38.535   1.097  18.145  0.00  0.00    -0.246 OA
ATOM     24  N3  N3E d          40.024   1.424  16.482  0.00  0.00    -0.275 N 
ATOM     25  C4  N3E d          40.967   2.199  15.886  0.00  0.00     0.250 A 
ATOM     26  H1  N3E d          39.792   0.536  16.085  0.00  0.00     0.173 HD
ATOM     27  O4  N3E d          41.537   1.796  14.838  0.00  0.00    -0.268 OA
ATOM     28  C5  N3E d          41.277   3.443  16.444  0.00  0.00     0.092 A 
ATOM     29  C6  N3E d          40.612   3.842  17.606  0.00  0.00     0.104 A 
ENDBRANCH   1  21
TORSDOF 6
