REMARK  22 active torsions:
REMARK  status: ('A' for Active; 'I' for Inactive)
REMARK    1  A    between atoms: N4B_18  and  C1A_1 
REMARK    2  A    between atoms: C2A_2  and  O2A_8 
REMARK    3  A    between atoms: C3A_3  and  O3A_9 
REMARK    4  A    between atoms: C4A_4  and  O4A_10 
REMARK    5  A    between atoms: C5A_5  and  C6A_6 
REMARK    6  A    between atoms: C6A_6  and  O6A_11 
REMARK    7  A    between atoms: O4C_30  and  C1B_12 
REMARK    8  A    between atoms: C2B_13  and  O2B_19 
REMARK    9  A    between atoms: C3B_14  and  O3B_20 
REMARK   10  A    between atoms: C4B_15  and  N4B_18 
REMARK   11  A    between atoms: O4D_42  and  C1C_22 
REMARK   12  A    between atoms: C2C_23  and  O2C_28 
REMARK   13  A    between atoms: C3C_24  and  O3C_29 
REMARK   14  A    between atoms: C4C_25  and  O4C_30 
REMARK   15  A    between atoms: C5C_26  and  C6C_27 
REMARK   16  A    between atoms: C6C_27  and  O6C_32 
REMARK   17  A    between atoms: C1D_33  and  O1D_39 
REMARK   18  A    between atoms: C2D_34  and  O2D_40 
REMARK   19  A    between atoms: C3D_35  and  O3D_41 
REMARK   20  A    between atoms: C4D_36  and  O4D_42 
REMARK   21  A    between atoms: C5D_37  and  C6D_38 
REMARK   22  A    between atoms: C6D_38  and  O6D_44 
ROOT
ATOM      1  O4C ACR d          17.597  -6.943  14.542  0.00  0.00    -0.348 OA
ENDROOT
BRANCH   1   2
ATOM      2  C1B ACR d          17.309  -8.156  15.227  0.00  0.00     0.292 C 
ATOM      3  C2B ACR d          17.665  -8.019  16.711  0.00  0.00     0.204 C 
ATOM      4  C3B ACR d          19.181  -7.822  16.886  0.00  0.00     0.184 C 
ATOM      5  C4B ACR d          20.034  -8.834  16.108  0.00  0.00     0.246 C 
ATOM      6  C5B ACR d          19.515  -9.021  14.676  0.00  0.00     0.154 C 
ATOM      7  C6B ACR d          20.164 -10.252  14.030  0.00  0.00     0.042 C 
ATOM      8  O5B ACR d          18.090  -9.185  14.627  0.00  0.00    -0.351 OA
BRANCH   3   9
ATOM      9  O2B ACR d          16.960  -6.921  17.306  0.00  0.00    -0.388 OA
ATOM     10  H22 ACR d          16.025  -7.049  17.195  0.00  0.00     0.210 HD
ENDBRANCH   3   9
BRANCH   4  11
ATOM     11  O3B ACR d          19.499  -7.865  18.292  0.00  0.00    -0.391 OA
ATOM     12  H23 ACR d          18.962  -7.233  18.756  0.00  0.00     0.210 HD
ENDBRANCH   4  11
BRANCH   5  13
ATOM     13  N4B ACR d          21.427  -8.368  16.028  0.00  0.00    -0.056 N 
ATOM     14  H20 ACR d          21.789  -8.673  15.138  0.00  0.00     0.278 HD
ATOM     15  H21 ACR d          21.403  -7.361  16.054  0.00  0.00     0.278 HD
BRANCH  13  16
ATOM     16  C1A ACR d          22.377  -8.797  17.044  0.00  0.00     0.240 C 
ATOM     17  C2A ACR d          23.435  -7.718  17.363  0.00  0.00     0.184 C 
ATOM     18  C3A ACR d          24.669  -7.850  16.482  0.00  0.00     0.182 C 
ATOM     19  C4A ACR d          25.324  -9.230  16.574  0.00  0.00     0.180 C 
ATOM     20  C5A ACR d          24.312 -10.331  16.446  0.00  0.00    -0.027 C 
ATOM     21  C7A ACR d          22.996 -10.125  16.628  0.00  0.00     0.016 C 
BRANCH  17  22
ATOM     22  O2A ACR d          22.924  -6.391  17.164  0.00  0.00    -0.390 OA
ATOM     23  H8  ACR d          23.586  -5.757  17.413  0.00  0.00     0.210 HD
ENDBRANCH  17  22
BRANCH  18  24
ATOM     24  O3A ACR d          25.619  -6.842  16.860  0.00  0.00    -0.390 OA
ATOM     25  H9  ACR d          25.211  -5.986  16.802  0.00  0.00     0.210 HD
ENDBRANCH  18  24
BRANCH  19  26
ATOM     26  O4A ACR d          26.301  -9.338  15.524  0.00  0.00    -0.388 OA
ATOM     27  H10 ACR d          26.937  -8.638  15.612  0.00  0.00     0.210 HD
ENDBRANCH  19  26
BRANCH  20  28
ATOM     28  C6A ACR d          24.785 -11.724  16.108  0.00  0.00     0.201 C 
BRANCH  28  29
ATOM     29  O6A ACR d          24.957 -12.446  17.330  0.00  0.00    -0.397 OA
ATOM     30  H11 ACR d          25.255 -13.327  17.137  0.00  0.00     0.209 HD
ENDBRANCH  28  29
ENDBRANCH  20  28
ENDBRANCH  13  16
ENDBRANCH   5  13
ENDBRANCH   1   2
BRANCH   1  31
ATOM     31  C4C ACR d          16.566  -6.474  13.690  0.00  0.00     0.187 C 
ATOM     32  C3C ACR d          15.850  -5.278  14.342  0.00  0.00     0.183 C 
ATOM     33  C2C ACR d          14.865  -4.650  13.358  0.00  0.00     0.204 C 
ATOM     34  C1C ACR d          15.651  -4.167  12.143  0.00  0.00     0.292 C 
ATOM     35  O5C ACR d          16.276  -5.313  11.566  0.00  0.00    -0.348 OA
ATOM     36  C5C ACR d          17.226  -6.032  12.375  0.00  0.00     0.180 C 
BRANCH  32  37
ATOM     37  O3C ACR d          15.150  -5.670  15.544  0.00  0.00    -0.390 OA
ATOM     38  H32 ACR d          15.771  -6.026  16.169  0.00  0.00     0.210 HD
ENDBRANCH  32  37
BRANCH  33  39
ATOM     39  O2C ACR d          14.197  -3.520  13.946  0.00  0.00    -0.388 OA
ATOM     40  H31 ACR d          14.841  -2.866  14.192  0.00  0.00     0.210 HD
ENDBRANCH  33  39
BRANCH  34  41
ATOM     41  O4D ACR d          16.634  -3.218  12.557  0.00  0.00    -0.348 OA
BRANCH  41  42
ATOM     42  C4D ACR d          16.781  -2.085  11.717  0.00  0.00     0.187 C 
ATOM     43  C3D ACR d          16.080  -0.915  12.403  0.00  0.00     0.183 C 
ATOM     44  C2D ACR d          16.401   0.370  11.636  0.00  0.00     0.204 C 
ATOM     45  C1D ACR d          17.905   0.585  11.508  0.00  0.00     0.288 C 
ATOM     46  O5D ACR d          18.524  -0.546  10.893  0.00  0.00    -0.349 OA
ATOM     47  C5D ACR d          18.281  -1.794  11.587  0.00  0.00     0.180 C 
BRANCH  43  48
ATOM     48  O3D ACR d          14.671  -1.152  12.437  0.00  0.00    -0.390 OA
ATOM     49  H43 ACR d          14.497  -1.952  12.920  0.00  0.00     0.210 HD
ENDBRANCH  43  48
BRANCH  44  50
ATOM     50  O2D ACR d          15.878   1.511  12.316  0.00  0.00    -0.388 OA
ATOM     51  H42 ACR d          16.264   1.567  13.182  0.00  0.00     0.210 HD
ENDBRANCH  44  50
BRANCH  45  52
ATOM     52  O1D ACR d          18.478   0.796  12.794  0.00  0.00    -0.369 OA
ATOM     53  H41 ACR d          18.067   1.548  13.203  0.00  0.00     0.212 HD
ENDBRANCH  45  52
BRANCH  47  54
ATOM     54  C6D ACR d          19.019  -2.935  10.862  0.00  0.00     0.198 C 
BRANCH  54  55
ATOM     55  O6D ACR d          20.444  -2.775  11.014  0.00  0.00    -0.398 OA
ATOM     56  H44 ACR d          20.891  -3.482  10.564  0.00  0.00     0.209 HD
ENDBRANCH  54  55
ENDBRANCH  47  54
ENDBRANCH  41  42
ENDBRANCH  34  41
BRANCH  36  57
ATOM     57  C6C ACR d          17.711  -7.242  11.576  0.00  0.00     0.198 C 
BRANCH  57  58
ATOM     58  O6C ACR d          18.706  -6.791  10.644  0.00  0.00    -0.398 OA
ATOM     59  H33 ACR d          19.021  -7.530  10.136  0.00  0.00     0.209 HD
ENDBRANCH  57  58
ENDBRANCH  36  57
ENDBRANCH   1  31
TORSDOF 22
