REMARK  10 active torsions:
REMARK  status: ('A' for Active; 'I' for Inactive)
REMARK    1  A    between atoms: C1_1  and  C2_2 
REMARK    2  A    between atoms: C2_2  and  O2_15 
REMARK    3  A    between atoms: C4_4  and  O4_16 
REMARK    4  A    between atoms: C5_5  and  N5_12 
REMARK    5  A    between atoms: C6_6  and  C7_7 
REMARK    6  A    between atoms: C7_7  and  O7_18 
REMARK    7  A    between atoms: C7_7  and  C8_8 
REMARK    8  A    between atoms: C8_8  and  O8_19 
REMARK    9  A    between atoms: C8_8  and  C9_9 
REMARK   10  A    between atoms: C9_9  and  O9_20 
REMARK       I    between atoms: N5_12  and  C10_10 
ROOT
ATOM      1  C2  SIA d          24.586  18.664  64.529  0.00  0.00     0.256 C 
ATOM      2  C3  SIA d          23.607  17.605  63.920  0.00  0.00     0.114 C 
ATOM      3  C4  SIA d          24.219  16.805  62.791  0.00  0.00     0.149 C 
ATOM      4  C5  SIA d          25.757  16.831  62.830  0.00  0.00     0.145 C 
ATOM      5  C6  SIA d          26.274  18.228  62.674  0.00  0.00     0.182 C 
ATOM      6  O6  SIA d          25.578  19.104  63.568  0.00  0.00    -0.336 OA
ENDROOT
BRANCH   5   7
ATOM      7  C7  SIA d          27.777  18.375  62.966  0.00  0.00     0.180 C 
BRANCH   7   8
ATOM      8  O7  SIA d          28.006  17.988  64.275  0.00  0.00    -0.390 OA
ATOM      9  H16 SIA d          27.504  18.543  64.861  0.00  0.00     0.210 HD
ENDBRANCH   7   8
BRANCH   7  10
ATOM     10  C8  SIA d          28.218  19.847  62.767  0.00  0.00     0.173 C 
BRANCH  10  11
ATOM     11  O8  SIA d          27.929  20.043  61.408  0.00  0.00    -0.391 OA
ATOM     12  H17 SIA d          28.430  19.426  60.887  0.00  0.00     0.210 HD
ENDBRANCH  10  11
BRANCH  10  13
ATOM     13  C9  SIA d          29.733  19.988  63.074  0.00  0.00     0.198 C 
BRANCH  13  14
ATOM     14  O9  SIA d          30.407  19.451  62.006  0.00  0.00    -0.398 OA
ATOM     15  H18 SIA d          30.177  19.927  61.216  0.00  0.00     0.209 HD
ENDBRANCH  13  14
ENDBRANCH  10  13
ENDBRANCH   7  10
ENDBRANCH   5   7
BRANCH   4  16
ATOM     16  N5  SIA d          26.235  16.089  61.645  0.00  0.00    -0.352 N 
ATOM     17  C10 SIA d          26.990  15.005  61.783  0.00  0.00     0.214 C 
ATOM     18  O10 SIA d          27.303  14.551  62.885  0.00  0.00    -0.274 OA
ATOM     19  C11 SIA d          27.453  14.273  60.588  0.00  0.00     0.117 C 
ATOM     20  H13 SIA d          25.988  16.406  60.730  0.00  0.00     0.163 HD
ENDBRANCH   4  16
BRANCH   3  21
ATOM     21  O4  SIA d          23.799  15.495  62.836  0.00  0.00    -0.393 OA
ATOM     22  H15 SIA d          24.195  15.012  62.120  0.00  0.00     0.210 HD
ENDBRANCH   3  21
BRANCH   1  23
ATOM     23  C1  SIA d          23.728  19.837  64.984  0.00  0.00     0.238 C 
ATOM     24  O1B SIA d          24.339  20.924  64.993  0.00  0.00    -0.644 OA
ATOM     25  O1A SIA d          22.517  19.715  65.288  0.00  0.00    -0.644 OA
ENDBRANCH   1  23
BRANCH   1  26
ATOM     26  O2  SIA d          25.289  18.140  65.650  0.00  0.00    -0.357 OA
ATOM     27  H14 SIA d          25.830  17.411  65.370  0.00  0.00     0.213 HD
ENDBRANCH   1  26
TORSDOF 10
