REMARK  2 active torsions:
REMARK  status: ('A' for Active; 'I' for Inactive)
REMARK    1  A    between atoms: CAW_9  and  CBB_10 
REMARK    2  A    between atoms: CAU_18  and  CAT_19 
REMARK       I    between atoms: CAT_19  and  NAA_21 
ROOT
ATOM      1  CBB 085 d           4.650   8.758   5.945  0.00  0.00     0.098 A 
ATOM      2  NAP 085 d           4.129   8.277   7.077  0.00  0.00    -0.227 NA
ATOM      3  CBA 085 d           4.687   8.873   8.134  0.00  0.00     0.139 A 
ATOM      4  CAV 085 d           4.370   8.618   9.473  0.00  0.00     0.010 A 
ATOM      5  CAJ 085 d           4.881   9.419  10.506  0.00  0.00     0.016 A 
ATOM      6  CAH 085 d           4.551   9.146  11.840  0.00  0.00     0.018 A 
ATOM      7  CAI 085 d           3.546   7.530   9.801  0.00  0.00     0.016 A 
ATOM      8  CAG 085 d           3.226   7.254  11.135  0.00  0.00     0.018 A 
ATOM      9  CAU 085 d           3.719   8.066  12.157  0.00  0.00     0.031 A 
ATOM     10  NAQ 085 d           5.594   9.737   7.673  0.00  0.00    -0.336 N 
ATOM     11  CBC 085 d           5.605   9.701   6.332  0.00  0.00     0.092 A 
ATOM     12  CAX 085 d           6.423  10.512   5.523  0.00  0.00     0.085 A 
ATOM     13  CAF 085 d           7.705  10.812   5.981  0.00  0.00     0.034 A 
ATOM     14  CAD 085 d           8.546  11.633   5.231  0.00  0.00     0.004 A 
ATOM     15  CAC 085 d           8.080  12.188   4.036  0.00  0.00     0.019 A 
ATOM     16  CAE 085 d           6.774  11.879   3.624  0.00  0.00     0.117 A 
ATOM     17  NAO 085 d           5.984  11.075   4.366  0.00  0.00    -0.259 NA
ATOM     18  H12 085 d           6.193  10.338   8.257  0.00  0.00     0.168 HD
ENDROOT
BRANCH   1  19
ATOM     19  CAW 085 d           4.291   8.276   4.663  0.00  0.00    -0.002 A 
ATOM     20  CAM 085 d           2.980   7.842   4.451  0.00  0.00     0.053 A 
ATOM     21  CAZ 085 d           2.585   7.302   3.233  0.00  0.00     0.105 A 
ATOM     22  OAS 085 d           1.362   6.847   2.825  0.00  0.00    -0.323 OA
ATOM     23  CAY 085 d           3.514   7.156   2.197  0.00  0.00     0.105 A 
ATOM     24  CAN 085 d           1.487   6.539   1.449  0.00  0.00     0.352 C 
ATOM     25  OAR 085 d           2.890   6.613   1.114  0.00  0.00    -0.323 OA
ATOM     26  CAL 085 d           4.830   7.554   2.392  0.00  0.00     0.040 A 
ATOM     27  CAK 085 d           5.214   8.106   3.620  0.00  0.00     0.017 A 
ENDBRANCH   1  19
BRANCH   9  28
ATOM     28  CAT 085 d           3.365   7.776  13.619  0.00  0.00     0.249 C 
ATOM     29  OAB 085 d           4.168   8.005  14.532  0.00  0.00    -0.268 OA
ATOM     30  NAA 085 d           2.135   7.302  13.811  0.00  0.00    -0.366 N 
ATOM     31  H10 085 d           1.821   7.085  14.736  0.00  0.00     0.159 HD
ATOM     32  H11 085 d           1.525   7.163  13.031  0.00  0.00     0.159 HD
ENDBRANCH   9  28
TORSDOF 2
