REMARK  19 active torsions:
REMARK  status: ('A' for Active; 'I' for Inactive)
REMARK    1  A    between atoms: NV2_1  and  CV6_3 
REMARK       I    between atoms: CV5_10  and  NV2_1 
REMARK    2  A    between atoms: CV1_2  and  CV5_10 
REMARK    3  A    between atoms: CV1_2  and  CV2_4 
REMARK    4  A    between atoms: CV6_3  and  CV7_5 
REMARK    5  A    between atoms: CV6_3  and  CR_11 
REMARK       I    between atoms: CR_11  and  N1_14 
REMARK    6  A    between atoms: N1_14  and  C1_15 
REMARK    7  A    between atoms: C1_15  and  C2_16 
REMARK    8  A    between atoms: C1_15  and  C3_20 
REMARK    9  A    between atoms: C2_16  and  C4_17 
REMARK       I    between atoms: C4_17  and  N2_19 
REMARK       I    between atoms: C3_20  and  NL_22 
REMARK   10  A    between atoms: NL_22  and  CAL_23 
REMARK   11  A    between atoms: CAL_23  and  CBL_24 
REMARK   12  A    between atoms: CAL_23  and  P_28 
REMARK   13  A    between atoms: CBL_24  and  CGL_25 
REMARK   14  A    between atoms: P_28  and  O5_31 
REMARK   15  A    between atoms: O5_31  and  C5_32 
REMARK   16  A    between atoms: C5_32  and  C6_33 
REMARK   17  A    between atoms: C5_32  and  CT_41 
REMARK   18  A    between atoms: C6_33  and  CE2_35 
REMARK   19  A    between atoms: CT_41  and  OT1_42 
ROOT
ATOM      1  C3  PP8 d          21.263   8.813  21.781  0.00  0.00     0.241 C 
ATOM      2  O1  PP8 d          21.828   8.458  22.811  0.00  0.00    -0.271 OA
ATOM      3  NL  PP8 d          21.859   9.501  20.802  0.00  0.00    -0.343 N 
ATOM      4  H25 PP8 d          21.283   9.754  20.025  0.00  0.00     0.163 HD
ENDROOT
BRANCH   1   5
ATOM      5  C1  PP8 d          19.816   8.420  21.528  0.00  0.00     0.185 C 
BRANCH   5   6
ATOM      6  N1  PP8 d          19.837   7.235  20.684  0.00  0.00    -0.346 N 
ATOM      7  CR  PP8 d          18.950   7.001  19.711  0.00  0.00     0.241 C 
ATOM      8  OV2 PP8 d          18.099   7.814  19.364  0.00  0.00    -0.271 OA
ATOM      9  H19 PP8 d          20.555   6.557  20.840  0.00  0.00     0.163 HD
BRANCH   7  10
ATOM     10  CV6 PP8 d          19.079   5.607  19.068  0.00  0.00     0.180 C 
BRANCH  10  11
ATOM     11  NV2 PP8 d          17.832   5.286  18.419  0.00  0.00    -0.347 N 
ATOM     12  CV5 PP8 d          17.108   4.191  18.511  0.00  0.00     0.218 C 
ATOM     13  OV1 PP8 d          17.469   3.309  19.293  0.00  0.00    -0.274 OA
ATOM     14  H1  PP8 d          17.466   5.994  17.815  0.00  0.00     0.163 HD
BRANCH  12  15
ATOM     15  CV1 PP8 d          15.912   4.005  17.570  0.00  0.00     0.106 C 
BRANCH  15  16
ATOM     16  CV2 PP8 d          14.632   3.811  18.376  0.00  0.00    -0.014 C 
ATOM     17  CV4 PP8 d          13.443   3.834  17.401  0.00  0.00     0.010 C 
ATOM     18  CV3 PP8 d          14.471   4.939  19.382  0.00  0.00     0.010 C 
ENDBRANCH  15  16
ENDBRANCH  12  15
ENDBRANCH  10  11
BRANCH  10  19
ATOM     19  CV7 PP8 d          20.303   5.553  18.168  0.00  0.00     0.009 C 
ATOM     20  CV8 PP8 d          20.504   4.189  17.524  0.00  0.00     0.012 C 
ATOM     21  CV9 PP8 d          20.363   6.644  17.118  0.00  0.00     0.012 C 
ENDBRANCH  10  19
ENDBRANCH   7  10
ENDBRANCH   5   6
BRANCH   5  22
ATOM     22  C2  PP8 d          18.967   8.287  22.754  0.00  0.00     0.137 C 
BRANCH  22  23
ATOM     23  C4  PP8 d          18.943   9.457  23.721  0.00  0.00     0.217 C 
ATOM     24  O2  PP8 d          18.823   9.103  24.917  0.00  0.00    -0.274 OA
ATOM     25  N2  PP8 d          19.048  10.738  23.423  0.00  0.00    -0.370 N 
ATOM     26  H23 PP8 d          19.018  11.424  24.150  0.00  0.00     0.159 HD
ATOM     27  H24 PP8 d          19.157  11.023  22.471  0.00  0.00     0.159 HD
ENDBRANCH  22  23
ENDBRANCH   5  22
ENDBRANCH   1   5
BRANCH   3  28
ATOM     28  CAL PP8 d          23.241   9.921  20.738  0.00  0.00     0.205 C 
BRANCH  28  29
ATOM     29  CBL PP8 d          23.985   9.403  19.515  0.00  0.00     0.042 C 
BRANCH  29  30
ATOM     30  CGL PP8 d          23.719   7.947  19.175  0.00  0.00    -0.020 C 
ATOM     31  CL1 PP8 d          24.401   7.533  17.885  0.00  0.00     0.009 C 
ATOM     32  CL2 PP8 d          24.164   7.013  20.300  0.00  0.00     0.009 C 
ENDBRANCH  29  30
ENDBRANCH  28  29
BRANCH  28  33
ATOM     33  P   PP8 d          23.401  11.697  20.941  0.00  0.00     0.273 P 
ATOM     34  O3  PP8 d          22.463  12.334  19.993  0.00  0.00    -0.645 OA
ATOM     35  O4  PP8 d          24.844  12.081  20.815  0.00  0.00    -0.645 OA
BRANCH  33  36
ATOM     36  O5  PP8 d          22.922  12.006  22.399  0.00  0.00    -0.295 OA
BRANCH  36  37
ATOM     37  C5  PP8 d          23.563  12.960  23.166  0.00  0.00     0.236 C 
BRANCH  37  38
ATOM     38  C6  PP8 d          22.563  14.009  23.743  0.00  0.00     0.081 C 
BRANCH  38  39
ATOM     39  CE2 PP8 d          21.650  13.574  24.872  0.00  0.00    -0.055 A 
ATOM     40  CZ  PP8 d          21.330  14.461  25.896  0.00  0.00     0.007 A 
ATOM     41  CE1 PP8 d          20.496  14.063  26.927  0.00  0.00     0.001 A 
ATOM     42  CD1 PP8 d          20.014  12.762  26.884  0.00  0.00     0.000 A 
ATOM     43  CG  PP8 d          20.284  11.820  25.895  0.00  0.00     0.001 A 
ATOM     44  CD2 PP8 d          21.121  12.300  24.910  0.00  0.00     0.007 A 
ENDBRANCH  38  39
ENDBRANCH  37  38
BRANCH  37  45
ATOM     45  CT  PP8 d          24.324  12.379  24.379  0.00  0.00     0.288 C 
ATOM     46  OT2 PP8 d          24.426  11.147  24.514  0.00  0.00    -0.262 OA
BRANCH  45  47
ATOM     47  OT1 PP8 d          24.747  13.227  25.211  0.00  0.00    -0.324 OA
ATOM     48  C7  PP8 d          25.464  12.853  26.370  0.00  0.00     0.213 C 
ENDBRANCH  45  47
ENDBRANCH  37  45
ENDBRANCH  36  37
ENDBRANCH  33  36
ENDBRANCH  28  33
ENDBRANCH   3  28
TORSDOF 19
