REMARK  4 active torsions:
REMARK  status: ('A' for Active; 'I' for Inactive)
REMARK    1  A    between atoms: CA_3  and  C_1 
REMARK    2  A    between atoms: C2_14  and  CA_3 
REMARK    3  A    between atoms: CAG_8  and  C2_14 
REMARK    4  A    between atoms: CAL_10  and  CAN_12 
ROOT
ATOM      1  CAE 3EB d          56.782   6.229   7.095  0.00  0.00     0.007 A 
ATOM      2  CAF 3EB d          56.708   6.467   8.462  0.00  0.00     0.002 A 
ATOM      3  CAG 3EB d          56.382   5.001   6.567  0.00  0.00    -0.057 A 
ATOM      4  CAH 3EB d          56.247   5.484   9.321  0.00  0.00     0.018 A 
ATOM      5  CAM 3EB d          55.901   4.029   7.445  0.00  0.00     0.025 A 
ATOM      6  CAN 3EB d          55.811   4.263   8.817  0.00  0.00     0.041 A 
ENDROOT
BRANCH   3   7
ATOM      7  C2  3EB d          56.502   4.678   5.086  0.00  0.00     0.049 C 
BRANCH   7   8
ATOM      8  CA  3EB d          56.277   5.855   4.114  0.00  0.00     0.117 C 
BRANCH   8   9
ATOM      9  C   3EB d          54.870   6.380   4.176  0.00  0.00     0.172 C 
ATOM     10  O   3EB d          53.891   5.628   4.229  0.00  0.00    -0.648 OA
ATOM     11  OXT 3EB d          54.751   7.663   4.110  0.00  0.00    -0.648 OA
ENDBRANCH   8   9
ENDBRANCH   7   8
ENDBRANCH   3   7
BRANCH   6  12
ATOM     12  CAL 3EB d          55.238   3.209   9.725  0.00  0.00     0.209 C 
ATOM     13  OAB 3EB d          54.608   2.240   9.255  0.00  0.00    -0.644 OA
ATOM     14  OAD 3EB d          55.361   3.392  10.995  0.00  0.00    -0.644 OA
ENDBRANCH   6  12
TORSDOF 4
