REMARK  27 active torsions:
REMARK  status: ('A' for Active; 'I' for Inactive)
REMARK    1  A    between atoms: N_1  and  CA_2 
REMARK    2  A    between atoms: CA_2  and  C_3 
REMARK    3  A    between atoms: CA_2  and  CB_5 
REMARK       I    between atoms: C_3  and  N_9 
REMARK    4  A    between atoms: CB_5  and  CG_6 
REMARK    5  A    between atoms: N_9  and  CA_10 
REMARK    6  A    between atoms: CA_10  and  C_11 
REMARK       I    between atoms: C_11  and  N_14 
REMARK    7  A    between atoms: N_14  and  CA_15 
REMARK    8  A    between atoms: CA_15  and  C_16 
REMARK    9  A    between atoms: CA_15  and  CB_18 
REMARK       I    between atoms: C_16  and  N_23 
REMARK   10  A    between atoms: CB_18  and  CG_19 
REMARK   11  A    between atoms: CG_19  and  CD_20 
REMARK   12  A    between atoms: N_23  and  CA_24 
REMARK   13  A    between atoms: CA_24  and  C_25 
REMARK   14  A    between atoms: CA_24  and  CB_27 
REMARK       I    between atoms: C_25  and  N_34 
REMARK   15  A    between atoms: CB_27  and  CG_28 
REMARK   16  A    between atoms: N_34  and  CA_35 
REMARK   17  A    between atoms: CA_35  and  C_36 
REMARK   18  A    between atoms: CA_35  and  CB_38 
REMARK       I    between atoms: C_36  and  N_45 
REMARK   19  A    between atoms: CB_38  and  CG_39 
REMARK   20  A    between atoms: CG_39  and  CD_40 
REMARK   21  A    between atoms: CD_40  and  NE_41 
REMARK       I    between atoms: NE_41  and  CZ_42 
REMARK       I    between atoms: CZ_42  and  NH1_43 
REMARK   22  A    between atoms: N_45  and  CA_46 
REMARK   23  A    between atoms: CA_46  and  C_47 
REMARK   24  A    between atoms: CA_46  and  CB_49 
REMARK       I    between atoms: C_47  and  N_55 
REMARK   25  A    between atoms: CB_49  and  CG_50 
REMARK   26  A    between atoms: N_55  and  CA_56 
REMARK   27  A    between atoms: CA_56  and  C_57 
ROOT
ATOM      1  C   ASP d          -0.957 -11.747  14.894  0.00  0.00     0.241 C 
ATOM      2  O   ASP d          -0.815 -11.576  13.689  0.00  0.00    -0.271 OA
ATOM      3  N   ASP d          -2.150 -11.868  15.464  0.00  0.00    -0.346 N 
ATOM      4  H27 ASP d          -2.205 -11.951  16.459  0.00  0.00     0.163 HD
ENDROOT
BRANCH   1   5
ATOM      5  CA  ASP d           0.251 -11.830  15.817  0.00  0.00     0.180 C 
BRANCH   5   6
ATOM      6  N   ASP d           1.407 -12.225  15.010  0.00  0.00    -0.346 N 
ATOM      7  C   ASP d           1.626 -13.500  14.698  0.00  0.00     0.241 C 
ATOM      8  O   ASP d           0.900 -14.406  15.103  0.00  0.00    -0.271 OA
ATOM      9  H18 ASP d           2.043 -11.524  14.688  0.00  0.00     0.163 HD
BRANCH   7  10
ATOM     10  CA  ASP d           2.810 -13.786  13.776  0.00  0.00     0.177 C 
BRANCH  10  11
ATOM     11  N   ASP d           3.447 -15.067  14.072  0.00  0.00    -0.346 N 
ATOM     12  C   ASP d           4.413 -15.195  14.976  0.00  0.00     0.240 C 
ATOM     13  O   ASP d           4.924 -14.230  15.539  0.00  0.00    -0.271 OA
ATOM     14  H12 ASP d           3.144 -15.880  13.575  0.00  0.00     0.163 HD
BRANCH  12  15
ATOM     15  CA  ASP d           4.892 -16.623  15.277  0.00  0.00     0.172 C 
ATOM     16  CB  ASP d           4.527 -17.032  16.700  0.00  0.00     0.042 C 
BRANCH  15  17
ATOM     17  N   ASP d           6.326 -16.811  15.057  0.00  0.00    -0.346 N 
ATOM     18  C   ASP d           6.878 -16.591  13.864  0.00  0.00     0.249 C 
ATOM     19  O   ASP d           6.243 -16.141  12.906  0.00  0.00    -0.271 OA
ATOM     20  H7  ASP d           6.903 -17.110  15.817  0.00  0.00     0.163 HD
BRANCH  18  21
ATOM     21  CA  ASP d           8.370 -16.902  13.726  0.00  0.00     0.284 C 
BRANCH  21  22
ATOM     22  N   ASP d           8.821 -18.045  14.572  0.00  0.00    -0.066 N 
ATOM     23  H1  ASP d           9.808 -18.196  14.434  0.00  0.00     0.275 HD
ATOM     24  H2  ASP d           8.314 -18.877  14.311  0.00  0.00     0.275 HD
ATOM     25  H3  ASP d           8.645 -17.835  15.542  0.00  0.00     0.275 HD
ENDBRANCH  21  22
BRANCH  21  26
ATOM     26  CB  ASP d           8.742 -17.140  12.252  0.00  0.00     0.155 C 
BRANCH  26  27
ATOM     27  CG  ASP d           8.069 -18.374  11.652  0.00  0.00     0.175 C 
ATOM     28  OD1 ASP d           7.080 -18.885  12.221  0.00  0.00    -0.648 OA
ATOM     29  OD2 ASP d           8.528 -18.838  10.586  0.00  0.00    -0.648 OA
ENDBRANCH  26  27
ENDBRANCH  21  26
ENDBRANCH  18  21
ENDBRANCH  15  17
ENDBRANCH  12  15
ENDBRANCH  10  11
BRANCH  10  30
ATOM     30  CB  ASP d           2.277 -13.777  12.346  0.00  0.00     0.045 C 
BRANCH  30  31
ATOM     31  CG  ASP d           3.292 -13.510  11.258  0.00  0.00     0.116 C 
BRANCH  31  32
ATOM     32  CD  ASP d           2.603 -13.250   9.933  0.00  0.00     0.172 C 
ATOM     33  OE1 ASP d           1.535 -13.848   9.668  0.00  0.00    -0.648 OA
ATOM     34  OE2 ASP d           3.113 -12.421   9.160  0.00  0.00    -0.648 OA
ENDBRANCH  31  32
ENDBRANCH  30  31
ENDBRANCH  10  30
ENDBRANCH   7  10
ENDBRANCH   5   6
BRANCH   5  35
ATOM     35  CB  ASP d           0.508 -10.491  16.532  0.00  0.00     0.073 C 
BRANCH  35  36
ATOM     36  CG  ASP d          -0.578 -10.097  17.496  0.00  0.00    -0.056 A 
ATOM     37  CD1 ASP d          -1.243  -8.890  17.363  0.00  0.00     0.007 A 
ATOM     38  CE1 ASP d          -2.245  -8.514  18.249  0.00  0.00     0.001 A 
ATOM     39  CZ  ASP d          -2.588  -9.370  19.288  0.00  0.00     0.000 A 
ATOM     40  CE2 ASP d          -1.921 -10.574  19.431  0.00  0.00     0.001 A 
ATOM     41  CD2 ASP d          -0.930 -10.939  18.541  0.00  0.00     0.007 A 
ENDBRANCH  35  36
ENDBRANCH   5  35
ENDBRANCH   1   5
BRANCH   3  42
ATOM     42  CA  ASP d          -3.385 -11.883  14.682  0.00  0.00     0.176 C 
BRANCH  42  43
ATOM     43  C   ASP d          -3.878 -10.484  14.300  0.00  0.00     0.241 C 
ATOM     44  O   ASP d          -3.907  -9.585  15.137  0.00  0.00    -0.271 OA
ATOM     45  N   ASP d          -4.285 -10.309  13.042  0.00  0.00    -0.346 N 
ATOM     46  H40 ASP d          -4.259 -11.084  12.411  0.00  0.00     0.163 HD
BRANCH  45  47
ATOM     47  CA  ASP d          -4.768  -9.016  12.559  0.00  0.00     0.182 C 
BRANCH  47  48
ATOM     48  C   ASP d          -6.036  -9.083  11.703  0.00  0.00     0.241 C 
ATOM     49  O   ASP d          -6.337  -8.155  10.945  0.00  0.00    -0.271 OA
ATOM     50  N   ASP d          -6.797 -10.159  11.859  0.00  0.00    -0.345 N 
ATOM     51  H47 ASP d          -6.512 -10.866  12.507  0.00  0.00     0.163 HD
BRANCH  50  52
ATOM     52  CA  ASP d          -8.037 -10.340  11.112  0.00  0.00     0.181 C 
ATOM     53  CB  ASP d          -7.768 -10.993   9.757  0.00  0.00     0.043 C 
BRANCH  52  54
ATOM     54  C   ASP d          -8.968 -11.226  11.920  0.00  0.00     0.196 C 
ATOM     55  O   ASP d          -8.491 -11.960  12.784  0.00  0.00    -0.646 OA
ATOM     56  OXT ASP d         -10.183 -11.222  11.719  0.00  0.00    -0.646 OA
ENDBRANCH  52  54
ENDBRANCH  50  52
ENDBRANCH  47  48
BRANCH  47  57
ATOM     57  CB  ASP d          -3.646  -8.278  11.825  0.00  0.00     0.095 C 
BRANCH  57  58
ATOM     58  CG  ASP d          -2.566  -7.799  12.740  0.00  0.00     0.053 A 
ATOM     59  ND1 ASP d          -2.688  -6.646  13.486  0.00  0.00    -0.247 NA
ATOM     60  CE1 ASP d          -1.596  -6.482  14.212  0.00  0.00     0.207 A 
ATOM     61  NE2 ASP d          -0.780  -7.492  13.972  0.00  0.00    -0.359 N 
ATOM     62  CD2 ASP d          -1.360  -8.328  13.052  0.00  0.00     0.116 A 
ATOM     63  H46 ASP d           0.144  -7.630  14.406  0.00  0.00     0.166 HD
ENDBRANCH  57  58
ENDBRANCH  47  57
ENDBRANCH  45  47
ENDBRANCH  42  43
BRANCH  42  64
ATOM     64  CB  ASP d          -4.449 -12.635  15.490  0.00  0.00     0.036 C 
BRANCH  64  65
ATOM     65  CG  ASP d          -5.821 -12.663  14.851  0.00  0.00     0.023 C 
BRANCH  65  66
ATOM     66  CD  ASP d          -6.725 -13.550  15.687  0.00  0.00     0.138 C 
BRANCH  66  67
ATOM     67  NE  ASP d          -8.114 -13.440  15.258  0.00  0.00    -0.227 N 
ATOM     68  CZ  ASP d          -9.132 -13.955  15.940  0.00  0.00     0.665 C 
ATOM     69  NH1 ASP d          -8.898 -14.614  17.066  0.00  0.00    -0.235 N 
ATOM     70  NH2 ASP d         -10.375 -13.815  15.497  0.00  0.00    -0.235 N 
ATOM     71  H36 ASP d          -9.682 -15.016  17.600  0.00  0.00     0.174 HD
ATOM     72  H37 ASP d          -7.932 -14.724  17.407  0.00  0.00     0.174 HD
ATOM     73  H38 ASP d         -10.555 -13.303  14.622  0.00  0.00     0.174 HD
ATOM     74  H39 ASP d         -11.160 -14.219  16.028  0.00  0.00     0.174 HD
ATOM     75  H35 ASP d          -8.317 -12.938  14.382  0.00  0.00     0.177 HD
ENDBRANCH  66  67
ENDBRANCH  65  66
ENDBRANCH  64  65
ENDBRANCH  42  64
ENDBRANCH   3  42
TORSDOF 27
