REMARK  11 active torsions:
REMARK  status: ('A' for Active; 'I' for Inactive)
REMARK    1  A    between atoms: O3B_5  and  PG_1 
REMARK    2  A    between atoms: PB_6  and  O3B_5 
REMARK    3  A    between atoms: O3A_9  and  PB_6 
REMARK    4  A    between atoms: PA_10  and  O3A_9 
REMARK    5  A    between atoms: O5'_25  and  PA_10 
REMARK    6  A    between atoms: C1'_33  and  N9_13 
REMARK    7  A    between atoms: C2_20  and  N2_21 
REMARK    8  A    between atoms: C5'_26  and  O5'_25 
REMARK    9  A    between atoms: C4'_27  and  C5'_26 
REMARK   10  A    between atoms: C3'_29  and  O3'_30 
REMARK   11  A    between atoms: C2'_31  and  O2'_32 
ROOT
ATOM      1  C4' MOL d         -28.095 -19.119   6.115  0.00  0.00     0.180 C 
ATOM      2  O4' MOL d         -26.849 -19.798   6.507  0.00  0.00    -0.353 OA
ATOM      3  C3' MOL d         -27.640 -17.886   5.287  0.00  0.00     0.182 C 
ATOM      4  C2' MOL d         -26.151 -18.074   5.239  0.00  0.00     0.198 C 
ATOM      5  C1' MOL d         -25.895 -18.761   6.510  0.00  0.00     0.266 C 
ENDROOT
BRANCH   5   6
ATOM      6  N9  MOL d         -24.537 -19.280   6.683  0.00  0.00    -0.251 N 
ATOM      7  C8  MOL d         -23.764 -19.979   5.781  0.00  0.00     0.353 A 
ATOM      8  N7  MOL d         -22.572 -20.277   6.250  0.00  0.00    -0.184 NA
ATOM      9  O8  MOL d         -24.206 -20.254   4.670  0.00  0.00    -0.244 OA
ATOM     10  C5  MOL d         -22.575 -19.739   7.537  0.00  0.00     0.175 A 
ATOM     11  C6  MOL d         -21.570 -19.722   8.546  0.00  0.00     0.292 A 
ATOM     12  C4  MOL d         -23.784 -19.138   7.796  0.00  0.00     0.164 A 
ATOM     13  O6  MOL d         -20.429 -20.184   8.523  0.00  0.00    -0.265 OA
ATOM     14  N1  MOL d         -22.011 -19.065   9.709  0.00  0.00    -0.154 N 
ATOM     15  C2  MOL d         -23.269 -18.500   9.852  0.00  0.00     0.680 A 
ATOM     16  H1  MOL d         -21.378 -19.002  10.480  0.00  0.00     0.187 HD
ATOM     17  N3  MOL d         -24.190 -18.507   8.920  0.00  0.00    -0.174 N 
ATOM     18  H4  MOL d         -25.120 -18.079   9.032  0.00  0.00     0.186 HD
BRANCH  15  19
ATOM     19  N2  MOL d         -23.522 -17.917  11.029  0.00  0.00    -0.234 N 
ATOM     20  H2  MOL d         -24.438 -17.478  11.200  0.00  0.00     0.174 HD
ATOM     21  H3  MOL d         -22.801 -17.907  11.764  0.00  0.00     0.174 HD
ENDBRANCH  15  19
ENDBRANCH   5   6
BRANCH   4  22
ATOM     22  O2' MOL d         -25.468 -16.821   5.185  0.00  0.00    -0.388 OA
ATOM     23  H11 MOL d         -25.683 -16.311   5.957  0.00  0.00     0.210 HD
ENDBRANCH   4  22
BRANCH   1  24
ATOM     24  C5' MOL d         -29.059 -20.025   5.396  0.00  0.00     0.216 C 
BRANCH  24  25
ATOM     25  O5' MOL d         -30.223 -19.256   5.061  0.00  0.00    -0.287 OA
BRANCH  25  26
ATOM     26  PA  MOL d         -31.507 -19.876   4.352  0.00  0.00     0.417 P 
ATOM     27  O1A MOL d         -31.846 -21.225   4.895  0.00  0.00    -0.624 OA
ATOM     28  O2A MOL d         -32.632 -18.891   4.311  0.00  0.00    -0.624 OA
BRANCH  26  29
ATOM     29  O3A MOL d         -30.965 -20.079   2.838  0.00  0.00    -0.180 OA
BRANCH  29  30
ATOM     30  PB  MOL d         -30.792 -19.142   1.570  0.00  0.00     0.428 P 
ATOM     31  O1B MOL d         -29.929 -19.820   0.583  0.00  0.00    -0.624 OA
ATOM     32  O2B MOL d         -32.109 -18.776   1.018  0.00  0.00    -0.624 OA
BRANCH  30  33
ATOM     33  O3B MOL d         -30.046 -17.830   2.159  0.00  0.00    -0.173 OA
BRANCH  33  34
ATOM     34  PG  MOL d         -29.367 -16.593   1.387  0.00  0.00     0.431 P 
ATOM     35  O1G MOL d         -29.932 -16.528  -0.003  0.00  0.00    -0.616 OA
ATOM     36  O2G MOL d         -29.665 -15.358   2.191  0.00  0.00    -0.616 OA
ATOM     37  O3G MOL d         -27.861 -16.807   1.308  0.00  0.00    -0.616 OA
ENDBRANCH  33  34
ENDBRANCH  30  33
ENDBRANCH  29  30
ENDBRANCH  26  29
ENDBRANCH  25  26
ENDBRANCH  24  25
ENDBRANCH   1  24
BRANCH   3  38
ATOM     38  O3' MOL d         -28.062 -16.683   5.937  0.00  0.00    -0.390 OA
ATOM     39  H9  MOL d         -27.781 -15.933   5.426  0.00  0.00     0.210 HD
ENDBRANCH   3  38
TORSDOF 11
