REMARK  8 active torsions:
REMARK  status: ('A' for Active; 'I' for Inactive)
REMARK    1  A    between atoms: C14_2  and  C5_3 
REMARK       I    between atoms: C14_2  and  N1_11 
REMARK    2  A    between atoms: C5_3  and  O21_4 
REMARK    3  A    between atoms: O21_4  and  C44_5 
REMARK    4  A    between atoms: C1_12  and  C7_16 
REMARK       I    between atoms: C7_16  and  N23_18 
REMARK    5  A    between atoms: N23_18  and  C24_19 
REMARK    6  A    between atoms: C24_19  and  C25_20 
REMARK    7  A    between atoms: C28_23  and  C21_24 
REMARK    8  A    between atoms: C21_24  and  N46_25 
ROOT
ATOM      1  C7  MOL d         -26.080   1.508  14.332  0.00  0.00     0.240 C 
ATOM      2  O22 MOL d         -26.229   2.727  14.425  0.00  0.00    -0.271 OA
ATOM      3  N23 MOL d         -24.847   1.086  13.949  0.00  0.00    -0.355 N 
ATOM      4  H21 MOL d         -24.716   0.099  13.852  0.00  0.00     0.162 HD
ENDROOT
BRANCH   1   5
ATOM      5  C1  MOL d         -27.195   0.507  14.636  0.00  0.00     0.179 C 
ATOM      6  N1  MOL d         -28.221   0.945  15.578  0.00  0.00    -0.337 N 
ATOM      7  C14 MOL d         -27.821   1.210  16.765  0.00  0.00     0.244 C 
ATOM      8  C4  MOL d         -29.564   0.842  14.921  0.00  0.00     0.127 C 
ATOM      9  O32 MOL d         -26.663   1.152  17.146  0.00  0.00    -0.271 OA
ATOM     10  C3  MOL d         -29.225   0.826  13.431  0.00  0.00     0.022 C 
ATOM     11  C2  MOL d         -27.816   0.281  13.254  0.00  0.00     0.037 C 
BRANCH   7  12
ATOM     12  C5  MOL d         -28.779   1.675  17.873  0.00  0.00     0.271 C 
BRANCH  12  13
ATOM     13  O21 MOL d         -29.547   0.756  18.600  0.00  0.00    -0.377 OA
BRANCH  13  14
ATOM     14  C44 MOL d         -29.323  -0.609  18.721  0.00  0.00     0.122 C 
ATOM     15  C49 MOL d         -30.590  -1.447  18.764  0.00  0.00     0.032 C 
ATOM     16  C48 MOL d         -30.437  -2.930  18.992  0.00  0.00     0.002 C 
ATOM     17  C47 MOL d         -29.792  -2.994  20.318  0.00  0.00     0.000 C 
ATOM     18  C46 MOL d         -28.484  -2.266  20.364  0.00  0.00     0.002 C 
ATOM     19  C45 MOL d         -28.689  -0.830  20.027  0.00  0.00     0.032 C 
ENDBRANCH  13  14
ENDBRANCH  12  13
ENDBRANCH   7  12
ENDBRANCH   1   5
BRANCH   3  20
ATOM     20  C24 MOL d         -23.684   1.944  13.663  0.00  0.00     0.161 C 
BRANCH  20  21
ATOM     21  C25 MOL d         -22.575   1.754  14.685  0.00  0.00    -0.040 A 
ATOM     22  C26 MOL d         -21.352   1.248  14.239  0.00  0.00     0.010 A 
ATOM     23  C27 MOL d         -20.319   1.063  15.151  0.00  0.00     0.016 A 
ATOM     24  C28 MOL d         -20.469   1.368  16.497  0.00  0.00     0.007 A 
ATOM     25  C29 MOL d         -21.654   1.863  16.954  0.00  0.00     0.016 A 
ATOM     26  C30 MOL d         -22.700   2.054  16.050  0.00  0.00     0.010 A 
BRANCH  24  27
ATOM     27  C21 MOL d         -19.328   1.153  17.444  0.00  0.00     0.102 C 
ATOM     28  N47 MOL d         -19.132   1.936  18.491  0.00  0.00    -0.385 N 
ATOM     29  H28 MOL d         -19.773   2.721  18.674  0.00  0.00     0.157 HD
ATOM     30  H29 MOL d         -18.338   1.761  19.123  0.00  0.00     0.157 HD
BRANCH  27  31
ATOM     31  N46 MOL d         -18.504   0.150  17.214  0.00  0.00    -0.385 N 
ATOM     32  H26 MOL d         -17.711  -0.021  17.849  0.00  0.00     0.157 HD
ATOM     33  H27 MOL d         -18.653  -0.463  16.399  0.00  0.00     0.157 HD
ENDBRANCH  27  31
ENDBRANCH  24  27
ENDBRANCH  20  21
ENDBRANCH   3  20
TORSDOF 8
