4wup_ligand

Created by X-TOOL on Sun Nov 13 14:27:09 2016
 25 25  0  0  0  0  0  0  0  0999 V2000
   14.1170   36.9040   18.0660  C 0  0  0  2  0  3
   14.2790   36.0260   19.1220  C 0  0  0  1  0  3
   14.1550   37.7480   21.1160  O 0  0  0  1  0  1
   15.0540   36.6880   20.5950  S 0  0  0  1  0  4
   15.1640   35.5380   21.6120  O 0  0  0  1  0  1
   16.6260   37.3160   20.3920  N 0  0  0  3  0  3
   13.7990   34.7050   19.0950  C 0  0  0  2  0  3
   13.1710   34.2300   17.9290  C 0  0  0  2  0  3
   12.9870   35.1050   16.8410  C 0  0  0  1  0  3
   13.4690   36.4290   16.9080  C 0  0  0  2  0  3
   12.1600   34.5450   15.3160  S 0  0  0  1  0  2
   10.5280   35.3710   15.3480  C 0  0  0  3  0  4
   10.0820   35.7590   13.9350  C 0  0  0  3  0  4
    8.6820   35.7000   13.9100  O 0  0  0  2  0  2
   14.4768   37.9247   18.1269  H 0  0  0  1  0  1
   17.1155   37.7010   21.1744  H 0  0  0  1  0  1
   17.0585   37.2994   19.4905  H 0  0  0  1  0  1
   13.9111   34.0615   19.9601  H 0  0  0  1  0  1
   12.8326   33.2019   17.8688  H 0  0  0  1  0  1
   13.3394   37.0894   16.0582  H 0  0  0  1  0  1
   10.5961   36.2786   15.9657  H 0  0  0  1  0  1
    9.7863   34.6856   15.7839  H 0  0  0  1  0  1
   10.5017   35.0554   13.2010  H 0  0  0  1  0  1
   10.4202   36.7790   13.7001  H 0  0  0  1  0  1
    8.3716   35.9361   13.0437  H 0  0  0  1  0  1
  1  2  4  0  0  1
  1 10  4  0  0  1
  2  4  1  0  0  2
  2  7  4  0  0  1
  4  3  2  0  0  2
  4  5  2  0  0  2
  4  6  1  0  0  2
  7  8  4  0  0  1
  8  9  4  0  0  1
  9 10  4  0  0  1
  9 11  1  0  0  2
 11 12  1  0  0  2
 12 13  1  0  0  2
 13 14  1  0  0  2
  1 15  1  0  0  2
  6 16  1  0  0  2
  6 17  1  0  0  2
  7 18  1  0  0  2
  8 19  1  0  0  2
 10 20  1  0  0  2
 12 21  1  0  0  2
 12 22  1  0  0  2
 13 23  1  0  0  2
 13 24  1  0  0  2
 14 25  1  0  0  2
M  END
> <MOLECULAR_FORMULA>
C8H11NO3S2

> <MOLECULAR_WEIGHT>
233.2

> <NUM_HB_ATOMS>
5  

> <NUM_ROTOR>
4  

> <XLOGP2>
0.14 

$$$$
