REMARK  11 active torsions:
REMARK  status: ('A' for Active; 'I' for Inactive)
REMARK    1  A    between atoms: O3B_8  and  PG_1 
REMARK    2  A    between atoms: PB_5  and  O3B_8 
REMARK    3  A    between atoms: O3A_12  and  PB_5 
REMARK    4  A    between atoms: PA_9  and  O3A_12 
REMARK    5  A    between atoms: O5'_23  and  PA_9 
REMARK    6  A    between atoms: C1'_31  and  N9_13 
REMARK    7  A    between atoms: C6_17  and  N6_18 
REMARK    8  A    between atoms: C5'_24  and  O5'_23 
REMARK    9  A    between atoms: C4'_25  and  C5'_24 
REMARK   10  A    between atoms: C3'_27  and  O3'_28 
REMARK   11  A    between atoms: C2'_29  and  O2'_30 
ROOT
ATOM      1  C4' ATP d         110.151  51.973  14.736  0.00  0.00     0.180 C 
ATOM      2  O4' ATP d         109.195  52.979  14.293  0.00  0.00    -0.353 OA
ATOM      3  C3' ATP d         111.430  52.146  13.857  0.00  0.00     0.182 C 
ATOM      4  C2' ATP d         111.328  53.585  13.366  0.00  0.00     0.198 C 
ATOM      5  C1' ATP d         109.814  53.798  13.262  0.00  0.00     0.262 C 
ENDROOT
BRANCH   1   6
ATOM      6  C5' ATP d         110.424  52.194  16.228  0.00  0.00     0.216 C 
BRANCH   6   7
ATOM      7  O5' ATP d         110.791  50.969  16.858  0.00  0.00    -0.287 OA
BRANCH   7   8
ATOM      8  PA  ATP d         112.266  51.121  17.534  0.00  0.00     0.417 P 
ATOM      9  O1A ATP d         112.876  52.445  17.236  0.00  0.00    -0.624 OA
ATOM     10  O2A ATP d         112.115  50.984  19.135  0.00  0.00    -0.624 OA
BRANCH   8  11
ATOM     11  O3A ATP d         113.229  49.963  16.927  0.00  0.00    -0.180 OA
BRANCH  11  12
ATOM     12  PB  ATP d         112.966  48.553  17.689  0.00  0.00     0.428 P 
ATOM     13  O1B ATP d         113.667  48.576  18.999  0.00  0.00    -0.624 OA
ATOM     14  O2B ATP d         113.579  47.362  16.791  0.00  0.00    -0.624 OA
BRANCH  12  15
ATOM     15  O3B ATP d         111.362  48.312  17.874  0.00  0.00    -0.173 OA
BRANCH  15  16
ATOM     16  PG  ATP d         111.031  47.597  19.299  0.00  0.00     0.431 P 
ATOM     17  O1G ATP d         109.647  47.051  19.251  0.00  0.00    -0.616 OA
ATOM     18  O2G ATP d         112.065  46.390  19.574  0.00  0.00    -0.616 OA
ATOM     19  O3G ATP d         111.146  48.687  20.481  0.00  0.00    -0.616 OA
ENDBRANCH  15  16
ENDBRANCH  12  15
ENDBRANCH  11  12
ENDBRANCH   8  11
ENDBRANCH   7   8
ENDBRANCH   6   7
ENDBRANCH   1   6
BRANCH   3  20
ATOM     20  O3' ATP d         111.448  51.195  12.778  0.00  0.00    -0.390 OA
ATOM     21  H9  ATP d         112.234  51.321  12.260  0.00  0.00     0.210 HD
ENDBRANCH   3  20
BRANCH   5  22
ATOM     22  N9  ATP d         109.463  55.203  13.460  0.00  0.00    -0.294 N 
ATOM     23  C8  ATP d         110.034  56.085  14.349  0.00  0.00     0.214 A 
ATOM     24  N7  ATP d         109.472  57.247  14.247  0.00  0.00    -0.236 NA
ATOM     25  C5  ATP d         108.507  57.195  13.291  0.00  0.00     0.149 A 
ATOM     26  C6  ATP d         107.580  58.123  12.742  0.00  0.00     0.155 A 
ATOM     27  C4  ATP d         108.493  55.874  12.778  0.00  0.00     0.167 A 
ATOM     28  N1  ATP d         106.735  57.704  11.765  0.00  0.00    -0.222 NA
ATOM     29  C2  ATP d         106.757  56.445  11.312  0.00  0.00     0.237 A 
ATOM     30  N3  ATP d         107.615  55.544  11.803  0.00  0.00    -0.222 NA
BRANCH  26  31
ATOM     31  N6  ATP d         107.544  59.433  13.197  0.00  0.00    -0.382 N 
ATOM     32  H2  ATP d         106.870  60.100  12.795  0.00  0.00     0.157 HD
ATOM     33  H3  ATP d         108.192  59.739  13.937  0.00  0.00     0.157 HD
ENDBRANCH  26  31
ENDBRANCH   5  22
BRANCH   4  34
ATOM     34  O2' ATP d         112.018  53.801  12.130  0.00  0.00    -0.388 OA
ATOM     35  H11 ATP d         111.648  53.239  11.460  0.00  0.00     0.210 HD
ENDBRANCH   4  34
TORSDOF 11
