REMARK  13 active torsions:
REMARK  status: ('A' for Active; 'I' for Inactive)
REMARK    1  A    between atoms: N62_1  and  C62_2 
REMARK    2  A    between atoms: N92_10  and  C1'_11 
REMARK    3  A    between atoms: C2'_13  and  O2'_14 
REMARK    4  A    between atoms: C3'_15  and  O3'_16 
REMARK    5  A    between atoms: C4'_17  and  C5'_18 
REMARK    6  A    between atoms: C5'_18  and  S5'_19 
REMARK    7  A    between atoms: S5'_19  and  S5R_20 
REMARK    8  A    between atoms: S5R_20  and  C5R_21 
REMARK    9  A    between atoms: C5R_21  and  C4R_22 
REMARK   10  A    between atoms: C3R_24  and  O3R_25 
REMARK   11  A    between atoms: C2R_26  and  O2R_27 
REMARK   12  A    between atoms: C1R_28  and  N91_29 
REMARK   13  A    between atoms: C61_37  and  N61_38 
ROOT
ATOM      1  S5' DTA d          13.307   9.307  11.885  0.00  0.00    -0.095 SA
ENDROOT
BRANCH   1   2
ATOM      2  C5' DTA d          13.778  10.034  10.267  0.00  0.00     0.120 C 
BRANCH   2   3
ATOM      3  C4' DTA d          15.243   9.836   9.863  0.00  0.00     0.165 C 
ATOM      4  O4' DTA d          15.552   8.444   9.809  0.00  0.00    -0.355 OA
ATOM      5  C1' DTA d          16.751   8.349   9.005  0.00  0.00     0.262 C 
ATOM      6  C2' DTA d          16.651   9.464   7.955  0.00  0.00     0.198 C 
ATOM      7  C3' DTA d          15.419  10.264   8.407  0.00  0.00     0.180 C 
BRANCH   5   8
ATOM      8  N92 DTA d          16.839   7.031   8.319  0.00  0.00    -0.294 N 
ATOM      9  C42 DTA d          17.958   6.319   8.260  0.00  0.00     0.167 A 
ATOM     10  N32 DTA d          19.198   6.559   8.738  0.00  0.00    -0.222 NA
ATOM     11  C52 DTA d          17.679   5.159   7.557  0.00  0.00     0.149 A 
ATOM     12  C22 DTA d          20.159   5.671   8.541  0.00  0.00     0.237 A 
ATOM     13  N12 DTA d          19.929   4.553   7.872  0.00  0.00    -0.222 NA
ATOM     14  C62 DTA d          18.724   4.250   7.366  0.00  0.00     0.155 A 
ATOM     15  N72 DTA d          16.388   5.202   7.217  0.00  0.00    -0.236 NA
ATOM     16  C82 DTA d          15.874   6.350   7.683  0.00  0.00     0.214 A 
BRANCH  14  17
ATOM     17  N62 DTA d          18.559   3.094   6.706  0.00  0.00    -0.382 N 
ATOM     18  H1  DTA d          17.638   2.852   6.314  0.00  0.00     0.157 HD
ATOM     19  H2  DTA d          19.353   2.448   6.591  0.00  0.00     0.157 HD
ENDBRANCH  14  17
ENDBRANCH   5   8
BRANCH   6  20
ATOM     20  O2' DTA d          17.833  10.271   8.007  0.00  0.00    -0.388 OA
ATOM     21  H7  DTA d          17.772  10.962   7.357  0.00  0.00     0.210 HD
ENDBRANCH   6  20
BRANCH   7  22
ATOM     22  O3' DTA d          15.647  11.668   8.327  0.00  0.00    -0.390 OA
ATOM     23  H9  DTA d          16.378  11.901   8.886  0.00  0.00     0.210 HD
ENDBRANCH   7  22
ENDBRANCH   2   3
ENDBRANCH   1   2
BRANCH   1  24
ATOM     24  S5R DTA d          14.920   9.549  13.121  0.00  0.00    -0.095 SA
BRANCH  24  25
ATOM     25  C5R DTA d          15.454   7.838  13.540  0.00  0.00     0.120 C 
BRANCH  25  26
ATOM     26  C4R DTA d          16.975   7.671  13.825  0.00  0.00     0.165 C 
ATOM     27  O4R DTA d          17.744   8.572  12.974  0.00  0.00    -0.355 OA
ATOM     28  C1R DTA d          18.706   9.261  13.815  0.00  0.00     0.262 C 
ATOM     29  C2R DTA d          18.006   9.400  15.154  0.00  0.00     0.198 C 
ATOM     30  C3R DTA d          17.348   8.026  15.275  0.00  0.00     0.180 C 
BRANCH  28  31
ATOM     31  N91 DTA d          19.023  10.576  13.193  0.00  0.00    -0.294 N 
ATOM     32  C81 DTA d          18.155  11.526  12.828  0.00  0.00     0.214 A 
ATOM     33  N71 DTA d          18.819  12.557  12.305  0.00  0.00    -0.236 NA
ATOM     34  C51 DTA d          20.116  12.254  12.324  0.00  0.00     0.149 A 
ATOM     35  C41 DTA d          20.245  10.991  12.888  0.00  0.00     0.167 A 
ATOM     36  C61 DTA d          21.276  12.914  11.914  0.00  0.00     0.155 A 
ATOM     37  N31 DTA d          21.465  10.438  13.038  0.00  0.00    -0.222 NA
ATOM     38  C21 DTA d          22.548  11.094  12.640  0.00  0.00     0.237 A 
ATOM     39  N11 DTA d          22.462  12.304  12.096  0.00  0.00    -0.222 NA
BRANCH  36  40
ATOM     40  N61 DTA d          21.218  14.127  11.362  0.00  0.00    -0.382 N 
ATOM     41  H23 DTA d          22.084  14.600  11.065  0.00  0.00     0.157 HD
ATOM     42  H24 DTA d          20.308  14.591  11.233  0.00  0.00     0.157 HD
ENDBRANCH  36  40
ENDBRANCH  28  31
BRANCH  29  43
ATOM     43  O2R DTA d          18.974   9.618  16.194  0.00  0.00    -0.388 OA
ATOM     44  H19 DTA d          19.652   8.955  16.138  0.00  0.00     0.210 HD
ENDBRANCH  29  43
BRANCH  30  45
ATOM     45  O3R DTA d          18.281   7.058  15.788  0.00  0.00    -0.390 OA
ATOM     46  H17 DTA d          18.508   7.282  16.683  0.00  0.00     0.210 HD
ENDBRANCH  30  45
ENDBRANCH  25  26
ENDBRANCH  24  25
ENDBRANCH   1  24
TORSDOF 13
