REMARK  14 active torsions:
REMARK  status: ('A' for Active; 'I' for Inactive)
REMARK    1  A    between atoms: C2_3  and  O39_1 
REMARK    2  A    between atoms: S8_9  and  C5_6 
REMARK    3  A    between atoms: N11_12  and  S8_9 
REMARK    4  A    between atoms: N11_12  and  C12_13 
REMARK    5  A    between atoms: C16_20  and  N11_12 
REMARK    6  A    between atoms: C12_13  and  C13_14 
REMARK    7  A    between atoms: C17_21  and  C16_20 
REMARK    8  A    between atoms: C17_21  and  O18_22 
REMARK    9  A    between atoms: C19_23  and  C17_21 
REMARK   10  A    between atoms: C19_23  and  N20_24 
REMARK   11  A    between atoms: C32_36  and  C19_23 
REMARK       I    between atoms: N20_24  and  C21_25 
REMARK   12  A    between atoms: C21_25  and  O23_27 
REMARK   13  A    between atoms: O23_27  and  C25_29 
REMARK   14  A    between atoms: C38_42  and  C32_36 
ROOT
ATOM      1  C17 MOL d          13.671  18.882  18.013  0.00  0.00     0.160 C 
ENDROOT
BRANCH   1   2
ATOM      2  C16 MOL d          12.616  17.941  17.367  0.00  0.00     0.169 C 
BRANCH   2   3
ATOM      3  N11 MOL d          11.320  18.587  17.336  0.00  0.00    -0.302 N 
BRANCH   3   4
ATOM      4  S8  MOL d          10.624  18.960  15.891  0.00  0.00     0.261 S 
ATOM      5  O9  MOL d          11.735  19.063  14.876  0.00  0.00    -0.200 OA
ATOM      6  O10 MOL d           9.741  20.100  16.082  0.00  0.00    -0.200 OA
BRANCH   4   7
ATOM      7  C5  MOL d           9.622  17.573  15.434  0.00  0.00     0.079 C 
ATOM      8  C4  MOL d           8.258  17.618  15.682  0.00  0.00     0.028 C 
ATOM      9  C3  MOL d           7.445  16.490  15.550  0.00  0.00     0.038 C 
ATOM     10  C2  MOL d           8.021  15.354  14.989  0.00  0.00     0.068 C 
ATOM     11  C7  MOL d           9.347  15.355  14.585  0.00  0.00     0.038 C 
ATOM     12  C6  MOL d          10.167  16.449  14.869  0.00  0.00     0.028 C 
BRANCH  10  13
ATOM     13  O39 MOL d           7.365  14.199  14.743  0.00  0.00    -0.356 OA
ATOM     14  C40 MOL d           6.001  14.234  15.157  0.00  0.00     0.210 C 
ENDBRANCH  10  13
ENDBRANCH   4   7
ENDBRANCH   3   4
BRANCH   3  15
ATOM     15  C12 MOL d          10.426  18.180  18.372  0.00  0.00     0.160 C 
BRANCH  15  16
ATOM     16  C13 MOL d          10.949  18.442  19.799  0.00  0.00     0.103 C 
ATOM     17  C14 MOL d          10.940  19.918  20.194  0.00  0.00     0.036 C 
ATOM     18  C47 MOL d           9.533  20.087  20.771  0.00  0.00     0.105 C 
ATOM     19  C45 MOL d           9.124  18.678  21.147  0.00  0.00     0.218 C 
ATOM     20  N15 MOL d           9.971  17.794  20.679  0.00  0.00    -0.355 N 
ATOM     21  O46 MOL d           8.141  18.347  21.807  0.00  0.00    -0.274 OA
ATOM     22  H13 MOL d           9.953  16.817  20.892  0.00  0.00     0.162 HD
ENDBRANCH  15  16
ENDBRANCH   3  15
ENDBRANCH   2   3
ENDBRANCH   1   2
BRANCH   1  23
ATOM     23  O18 MOL d          14.769  18.029  18.312  0.00  0.00    -0.392 OA
ATOM     24  H19 MOL d          15.463  18.538  18.715  0.00  0.00     0.210 HD
ENDBRANCH   1  23
BRANCH   1  25
ATOM     25  C19 MOL d          14.056  20.008  17.058  0.00  0.00     0.121 C 
BRANCH  25  26
ATOM     26  N20 MOL d          14.878  20.960  17.776  0.00  0.00    -0.329 N 
ATOM     27  C21 MOL d          14.448  22.116  18.290  0.00  0.00     0.361 C 
ATOM     28  O22 MOL d          13.346  22.597  18.200  0.00  0.00    -0.238 OA
ATOM     29  H21 MOL d          15.845  20.734  17.897  0.00  0.00     0.165 HD
BRANCH  27  30
ATOM     30  O23 MOL d          15.460  22.779  18.933  0.00  0.00    -0.299 OA
BRANCH  30  31
ATOM     31  C25 MOL d          15.155  24.128  19.294  0.00  0.00     0.136 C 
ATOM     32  C24 MOL d          15.176  25.040  18.072  0.00  0.00     0.040 C 
ATOM     33  C31 MOL d          16.619  25.504  17.975  0.00  0.00     0.019 C 
ATOM     34  C27 MOL d          17.379  25.069  19.201  0.00  0.00     0.128 C 
ATOM     35  C30 MOL d          17.416  24.924  16.818  0.00  0.00     0.033 C 
ATOM     36  C26 MOL d          16.316  24.626  20.184  0.00  0.00     0.065 C 
ATOM     37  O28 MOL d          18.209  23.975  18.789  0.00  0.00    -0.385 OA
ATOM     38  C29 MOL d          18.110  23.678  17.433  0.00  0.00     0.168 C 
ENDBRANCH  30  31
ENDBRANCH  27  30
ENDBRANCH  25  26
BRANCH  25  39
ATOM     39  C32 MOL d          14.806  19.594  15.777  0.00  0.00     0.066 C 
BRANCH  39  40
ATOM     40  C38 MOL d          15.152  20.762  14.873  0.00  0.00    -0.056 A 
ATOM     41  C33 MOL d          16.478  21.212  14.792  0.00  0.00     0.007 A 
ATOM     42  C34 MOL d          16.770  22.353  14.035  0.00  0.00     0.001 A 
ATOM     43  C35 MOL d          15.749  23.022  13.347  0.00  0.00     0.000 A 
ATOM     44  C36 MOL d          14.450  22.518  13.359  0.00  0.00     0.001 A 
ATOM     45  C37 MOL d          14.161  21.400  14.140  0.00  0.00     0.007 A 
ENDBRANCH  39  40
ENDBRANCH  25  39
ENDBRANCH   1  25
TORSDOF 14
