REMARK  4 active torsions:
REMARK  status: ('A' for Active; 'I' for Inactive)
REMARK    1  A    between atoms: C3_3  and  O3_11 
REMARK    2  A    between atoms: C4_4  and  O4_12 
REMARK    3  A    between atoms: C5_5  and  C6_6 
REMARK    4  A    between atoms: C6_6  and  O6_14 
ROOT
ATOM      1  C1  NGT d           5.124  22.047  34.826  0.00  0.00     0.216 C 
ATOM      2  C2  NGT d           5.161  23.316  35.729  0.00  0.00     0.179 C 
ATOM      3  C3  NGT d           6.642  23.646  36.217  0.00  0.00     0.177 C 
ATOM      4  C4  NGT d           7.449  22.406  36.525  0.00  0.00     0.180 C 
ATOM      5  C5  NGT d           7.406  21.448  35.348  0.00  0.00     0.178 C 
ATOM      6  C7  NGT d           4.775  24.260  33.704  0.00  0.00     0.064 C 
ATOM      7  C8  NGT d           4.341  25.233  32.648  0.00  0.00     0.078 C 
ATOM      8  N2  NGT d           4.661  24.417  34.951  0.00  0.00    -0.276 NA
ATOM      9  S1  NGT d           5.427  22.712  33.154  0.00  0.00    -0.081 SA
ATOM     10  O5  NGT d           6.050  21.035  35.095  0.00  0.00    -0.363 OA
ENDROOT
BRANCH   5  11
ATOM     11  C6  NGT d           8.239  20.190  35.546  0.00  0.00     0.198 C 
BRANCH  11  12
ATOM     12  O6  NGT d           8.000  19.256  34.501  0.00  0.00    -0.398 OA
ATOM     13  H13 NGT d           7.080  19.017  34.495  0.00  0.00     0.209 HD
ENDBRANCH  11  12
ENDBRANCH   5  11
BRANCH   4  14
ATOM     14  O4  NGT d           8.784  22.780  36.801  0.00  0.00    -0.390 OA
ATOM     15  H12 NGT d           8.798  23.379  37.538  0.00  0.00     0.210 HD
ENDBRANCH   4  14
BRANCH   3  16
ATOM     16  O3  NGT d           6.593  24.498  37.351  0.00  0.00    -0.391 OA
ATOM     17  H11 NGT d           7.476  24.754  37.592  0.00  0.00     0.210 HD
ENDBRANCH   3  16
TORSDOF 4
