REMARK  7 active torsions:
REMARK  status: ('A' for Active; 'I' for Inactive)
REMARK    1  A    between atoms: CA_4  and  C_1 
REMARK    2  A    between atoms: N_2  and  CA_4 
REMARK    3  A    between atoms: NAQ_18  and  CAO_17 
REMARK    4  A    between atoms: CAO_17  and  CAV_22 
REMARK    5  A    between atoms: SBC_28  and  NAQ_18 
REMARK    6  A    between atoms: CAU_21  and  OAR_19 
REMARK    7  A    between atoms: CAW_23  and  SBC_28 
ROOT
ATOM      1  N   FG5 d           1.027 -10.939  38.720  0.00  0.00    -0.338 N 
ATOM      2  CAH FG5 d          -0.619  -9.548  41.664  0.00  0.00     0.039 A 
ATOM      3  CAK FG5 d           0.242 -10.327  40.914  0.00  0.00     0.033 A 
ATOM      4  CAL FG5 d          -1.402  -8.672  39.541  0.00  0.00     0.050 A 
ATOM      5  CAM FG5 d          -0.296  -9.616  37.553  0.00  0.00     0.040 A 
ATOM      6  CAU FG5 d          -1.454  -8.703  40.949  0.00  0.00     0.069 A 
ATOM      7  CAV FG5 d           0.686 -10.527  37.496  0.00  0.00     0.032 A 
ATOM      8  CAY FG5 d          -0.546  -9.456  38.859  0.00  0.00    -0.005 A 
ATOM      9  CBA FG5 d           0.270 -10.268  39.569  0.00  0.00     0.045 A 
ENDROOT
BRANCH   7  10
ATOM     10  CAO FG5 d           1.388 -11.108  36.243  0.00  0.00     0.189 C 
BRANCH  10  11
ATOM     11  NAQ FG5 d           1.376 -10.229  35.064  0.00  0.00    -0.308 N 
ATOM     12  H17 FG5 d           1.850  -9.350  35.005  0.00  0.00     0.172 HD
BRANCH  11  13
ATOM     13  SBC FG5 d           0.388 -10.954  33.737  0.00  0.00     0.281 S 
ATOM     14  OAC FG5 d          -0.984 -10.262  33.754  0.00  0.00    -0.199 OA
ATOM     15  OAD FG5 d           0.240 -12.486  33.799  0.00  0.00    -0.199 OA
BRANCH  13  16
ATOM     16  CAW FG5 d           1.186 -10.571  32.212  0.00  0.00     0.191 A 
ATOM     17  CAN FG5 d           0.637 -10.825  31.038  0.00  0.00     0.066 A 
ATOM     18  CAX FG5 d           1.456 -10.435  30.071  0.00  0.00     0.001 A 
ATOM     19  CAI FG5 d           1.305 -10.504  28.745  0.00  0.00     0.014 A 
ATOM     20  CAZ FG5 d           2.552  -9.929  30.651  0.00  0.00     0.087 A 
ATOM     21  CAF FG5 d           2.308 -10.039  27.914  0.00  0.00     0.001 A 
ATOM     22  CAG FG5 d           3.444  -9.511  28.522  0.00  0.00     0.003 A 
ATOM     23  CAJ FG5 d           3.549  -9.457  29.909  0.00  0.00     0.038 A 
ATOM     24  OAS FG5 d           2.380 -10.017  32.048  0.00  0.00    -0.296 OA
ENDBRANCH  13  16
ENDBRANCH  11  13
ENDBRANCH  10  11
ENDBRANCH   7  10
BRANCH   1  25
ATOM     25  CA  FG5 d           2.052 -11.885  39.306  0.00  0.00     0.242 C 
BRANCH  25  26
ATOM     26  C   FG5 d           2.169 -13.294  38.759  0.00  0.00     0.191 C 
ATOM     27  O   FG5 d           3.292 -13.850  38.934  0.00  0.00    -0.647 OA
ATOM     28  OXT FG5 d           1.157 -13.802  38.231  0.00  0.00    -0.647 OA
ENDBRANCH  25  26
ENDBRANCH   1  25
BRANCH   6  29
ATOM     29  OAR FG5 d          -2.303  -7.942  41.667  0.00  0.00    -0.356 OA
ATOM     30  CAA FG5 d          -2.908  -6.867  40.948  0.00  0.00     0.210 C 
ENDBRANCH   6  29
TORSDOF 7
