REMARK  8 active torsions:
REMARK  status: ('A' for Active; 'I' for Inactive)
REMARK    1  A    between atoms: SBK_37  and  N_2 
REMARK    2  A    between atoms: CAR_21  and  CAN_18 
REMARK    3  A    between atoms: CAN_18  and  OAW_26 
REMARK    4  A    between atoms: NBI_36  and  CAR_21 
REMARK    5  A    between atoms: CBB_30  and  OAU_24 
REMARK    6  A    between atoms: CBC_31  and  OAV_25 
REMARK    7  A    between atoms: OAW_26  and  CAZ_28 
REMARK    8  A    between atoms: CBA_29  and  SBK_37 
ROOT
ATOM      1  C   JFK d          11.333 -14.297 -17.904  0.00  0.00     0.243 C 
ATOM      2  N   JFK d           8.985 -14.018 -18.144  0.00  0.00    -0.288 N 
ATOM      3  O   JFK d          12.418 -14.044 -17.388  0.00  0.00    -0.271 OA
ATOM      4  CA  JFK d          10.192 -13.697 -17.330  0.00  0.00     0.188 C 
ATOM      5  CB  JFK d          10.056 -14.145 -15.883  0.00  0.00     0.036 C 
ATOM      6  CAM JFK d           9.731 -15.625 -15.860  0.00  0.00     0.004 C 
ATOM      7  CAO JFK d           8.383 -15.868 -16.517  0.00  0.00     0.026 C 
ATOM      8  CAQ JFK d           9.271 -16.360 -18.836  0.00  0.00     0.046 C 
ATOM      9  CAS JFK d          10.169 -15.503 -19.734  0.00  0.00     0.128 C 
ATOM     10  CBG JFK d           8.432 -15.395 -17.969  0.00  0.00     0.098 C 
ATOM     11  NBI JFK d          11.356 -15.120 -18.974  0.00  0.00    -0.348 N 
ENDROOT
BRANCH   2  12
ATOM     12  SBK JFK d           7.787 -12.795 -18.178  0.00  0.00     0.262 S 
ATOM     13  OAE JFK d           8.424 -11.481 -17.828  0.00  0.00    -0.200 OA
ATOM     14  OAF JFK d           6.618 -13.183 -17.309  0.00  0.00    -0.200 OA
BRANCH  12  15
ATOM     15  CBA JFK d           7.180 -12.742 -19.818  0.00  0.00     0.081 A 
ATOM     16  CAI JFK d           6.094 -13.518 -20.111  0.00  0.00     0.027 A 
ATOM     17  CAJ JFK d           5.550 -13.541 -21.384  0.00  0.00     0.032 A 
ATOM     18  CBE JFK d           6.076 -12.794 -22.346  0.00  0.00     0.052 A 
ATOM     19  NAT JFK d           5.655 -12.704 -23.624  0.00  0.00    -0.316 N 
ATOM     20  CBF JFK d           7.145 -12.018 -22.069  0.00  0.00     0.038 A 
ATOM     21  CBD JFK d           6.392 -11.866 -24.347  0.00  0.00     0.289 A 
ATOM     22  H28 JFK d           4.874 -13.212 -23.988  0.00  0.00     0.170 HD
ATOM     23  OAD JFK d           6.223 -11.608 -25.534  0.00  0.00    -0.260 OA
ATOM     24  SAX JFK d           7.517 -11.253 -23.465  0.00  0.00    -0.027 SA
ATOM     25  CAL JFK d           7.704 -11.975 -20.847  0.00  0.00     0.046 A 
ENDBRANCH  12  15
ENDBRANCH   2  12
BRANCH  11  26
ATOM     26  CAR JFK d          12.695 -15.675 -19.356  0.00  0.00     0.152 C 
BRANCH  26  27
ATOM     27  CAN JFK d          13.226 -15.226 -20.721  0.00  0.00     0.195 C 
BRANCH  27  28
ATOM     28  OAW JFK d          13.564 -13.860 -20.615  0.00  0.00    -0.349 OA
BRANCH  28  29
ATOM     29  CAZ JFK d          14.771 -13.517 -20.060  0.00  0.00     0.071 A 
ATOM     30  CAG JFK d          15.598 -14.432 -19.412  0.00  0.00     0.039 A 
ATOM     31  CAH JFK d          16.812 -14.009 -18.864  0.00  0.00     0.042 A 
ATOM     32  CBB JFK d          17.196 -12.674 -18.955  0.00  0.00     0.101 A 
ATOM     33  CBC JFK d          16.371 -11.771 -19.600  0.00  0.00     0.104 A 
ATOM     34  CAK JFK d          15.171 -12.189 -20.148  0.00  0.00     0.076 A 
BRANCH  32  35
ATOM     35  OAU JFK d          18.360 -12.159 -18.452  0.00  0.00    -0.353 OA
ATOM     36  CAA JFK d          19.094 -13.106 -17.674  0.00  0.00     0.210 C 
ENDBRANCH  32  35
BRANCH  33  37
ATOM     37  OAV JFK d          16.807 -10.484 -19.659  0.00  0.00    -0.353 OA
ATOM     38  CAB JFK d          15.911  -9.651 -20.399  0.00  0.00     0.210 C 
ENDBRANCH  33  37
ENDBRANCH  28  29
ENDBRANCH  27  28
ENDBRANCH  26  27
ENDBRANCH  11  26
TORSDOF 8
