REMARK  9 active torsions:
REMARK  status: ('A' for Active; 'I' for Inactive)
REMARK    1  A    between atoms: N1_1  and  C1'_9 
REMARK    2  A    between atoms: C3'_11  and  O3'_14 
REMARK    3  A    between atoms: C4'_12  and  C5'_15 
REMARK    4  A    between atoms: C5'_15  and  O5'_16 
REMARK    5  A    between atoms: O5'_16  and  PA_17 
REMARK    6  A    between atoms: PA_17  and  O3A_20 
REMARK    7  A    between atoms: O3A_20  and  PB_21 
REMARK    8  A    between atoms: PB_21  and  O3B_24 
REMARK    9  A    between atoms: O3B_24  and  PG_25 
ROOT
ATOM      1  C1' DUT d          25.514  16.995   5.797  0.00  0.00     0.235 C 
ATOM      2  C2' DUT d          25.635  15.670   6.556  0.00  0.00     0.088 C 
ATOM      3  C3' DUT d          26.800  15.879   7.528  0.00  0.00     0.153 C 
ATOM      4  C4' DUT d          26.782  17.390   7.766  0.00  0.00     0.177 C 
ATOM      5  O4' DUT d          26.247  17.972   6.570  0.00  0.00    -0.356 OA
ENDROOT
BRANCH   4   6
ATOM      6  C5' DUT d          28.160  18.007   8.059  0.00  0.00     0.216 C 
BRANCH   6   7
ATOM      7  O5' DUT d          28.983  17.764   6.916  0.00  0.00    -0.287 OA
BRANCH   7   8
ATOM      8  PA  DUT d          30.557  17.953   7.014  0.00  0.00     0.417 P 
ATOM      9  O1A DUT d          31.160  17.674   5.666  0.00  0.00    -0.624 OA
ATOM     10  O2A DUT d          30.986  17.213   8.228  0.00  0.00    -0.624 OA
BRANCH   8  11
ATOM     11  O3A DUT d          30.561  19.562   7.329  0.00  0.00    -0.180 OA
BRANCH  11  12
ATOM     12  PB  DUT d          31.700  20.401   8.179  0.00  0.00     0.428 P 
ATOM     13  O1B DUT d          32.194  21.502   7.318  0.00  0.00    -0.624 OA
ATOM     14  O2B DUT d          32.701  19.446   8.732  0.00  0.00    -0.624 OA
BRANCH  12  15
ATOM     15  O3B DUT d          30.767  21.011   9.338  0.00  0.00    -0.173 OA
BRANCH  15  16
ATOM     16  PG  DUT d          30.596  20.341  10.798  0.00  0.00     0.431 P 
ATOM     17  O1G DUT d          31.748  20.927  11.569  0.00  0.00    -0.616 OA
ATOM     18  O2G DUT d          30.630  18.816  10.654  0.00  0.00    -0.616 OA
ATOM     19  O3G DUT d          29.250  20.747  11.305  0.00  0.00    -0.616 OA
ENDBRANCH  15  16
ENDBRANCH  12  15
ENDBRANCH  11  12
ENDBRANCH   8  11
ENDBRANCH   7   8
ENDBRANCH   6   7
ENDBRANCH   4   6
BRANCH   3  20
ATOM     20  O3' DUT d          26.644  15.102   8.737  0.00  0.00    -0.393 OA
ATOM     21  H9  DUT d          26.664  14.177   8.522  0.00  0.00     0.210 HD
ENDBRANCH   3  20
BRANCH   1  22
ATOM     22  N1  DUT d          26.037  16.922   4.407  0.00  0.00    -0.282 N 
ATOM     23  C2  DUT d          25.221  17.154   3.273  0.00  0.00     0.330 A 
ATOM     24  N3  DUT d          25.737  17.096   2.012  0.00  0.00    -0.286 N 
ATOM     25  O2  DUT d          24.029  17.426   3.409  0.00  0.00    -0.246 OA
ATOM     26  C4  DUT d          27.036  16.777   1.829  0.00  0.00     0.184 A 
ATOM     27  H1  DUT d          25.154  17.290   1.223  0.00  0.00     0.172 HD
ATOM     28  C5  DUT d          27.872  16.558   2.928  0.00  0.00     0.076 A 
ATOM     29  O4  DUT d          27.560  16.742   0.589  0.00  0.00    -0.172 OA
ATOM     30  C6  DUT d          27.333  16.637   4.198  0.00  0.00     0.103 A 
ENDBRANCH   1  22
TORSDOF 9
