2e5y_ligand

Created by X-TOOL on Fri Sep 26 17:34:37 2014
 43 45  0  0  0  0  0  0  0  0999 V2000
   24.3820   13.9950    9.7310  P 0  0  0  1  0  4
   23.8720   12.9180   10.6960  O 0  0  0  1  0  1
   23.2910   14.9340    9.3410  O 0  0  0  1  0  1
   25.1830   13.4800    8.5500  O 0  0  0  1  0  1
   26.3190   16.1500   10.1240  P 0  0  0  1  0  4
   26.1120   16.4690    8.6530  O 0  0  0  1  0  1
   27.6910   16.1670   10.6880  O 0  0  0  1  0  1
   25.5190   14.8130   10.5180  O 0  0  0  1  0  2
   25.8500   18.7340   11.3740  P 0  0  0  1  0  4
   27.0770   18.8040   12.2340  O 0  0  0  1  0  1
   25.8890   19.5080   10.0700  O 0  0  0  1  0  1
   25.4790   17.2150   11.0070  O 0  0  0  1  0  2
   24.4920   19.2300   12.1040  O 0  0  0  1  0  2
   23.3000   19.5510   11.3900  C 0  0  0  3  0  4
   22.1560   19.6980   12.3910  C 0  0  0  2  0  4
   21.7830   18.3960   12.8280  O 0  0  0  1  0  2
   22.6790   20.4250   13.6090  C 0  0  0  2  0  4
   21.4900   21.0480   14.0690  O 0  0  0  2  0  2
   22.8330   19.4110   14.7060  C 0  0  0  2  0  4
   22.6920   19.8860   16.0490  O 0  0  0  2  0  2
   22.0670   18.1990   14.2330  C 0  0  0  2  0  4
   22.6830   16.9140   14.4720  N 0  0  0  1  0  3
   23.7800   16.4020   13.6830  C 0  0  0  2  0  3
   24.0280   15.1110   14.2240  N 0  0  0  1  0  2
   23.2260   14.9010   15.3750  C 0  0  0  1  0  3
   23.0860   13.7380   16.2970  C 0  0  0  1  0  3
   23.6640   12.5210   15.9050  N 0  0  0  3  0  3
   22.0020   13.9280   17.2340  N 0  0  0  1  0  2
   21.1440   15.1030   17.3890  C 0  0  0  2  0  3
   21.2840   16.2200   16.4710  N 0  0  0  1  0  2
   22.3690   16.0590   15.5380  C 0  0  0  1  0  3
   23.0672   18.7464   10.6770  H 0  0  0  1  0  1
   23.4382   20.4959   10.8442  H 0  0  0  1  0  1
   21.3045   20.2303   11.9420  H 0  0  0  1  0  1
   23.5504   21.0724   13.4317  H 0  0  0  1  0  1
   21.6802   21.5518   14.8516  H 0  0  0  1  0  1
   23.8884   19.1027   14.6731  H 0  0  0  1  0  1
   21.8256   20.2586   16.1626  H 0  0  0  1  0  1
   21.1110   18.1883   14.7769  H 0  0  0  1  0  1
   24.2987   16.8933   12.8611  H 0  0  0  1  0  1
   23.5884   11.6947   16.5153  H 0  0  0  1  0  1
   24.1639   12.4539   15.0069  H 0  0  0  1  0  1
   20.4082   15.1397   18.1842  H 0  0  0  1  0  1
  1  2  2  0  0  2
  1  3  2  0  0  2
  1  4  2  0  0  2
  8  1  1  0  0  2
  5  6  2  0  0  2
  5  7  2  0  0  2
  5  8  1  0  0  2
 12  5  1  0  0  2
  9 10  2  0  0  2
  9 11  2  0  0  2
  9 12  1  0  0  2
  9 13  1  0  0  2
 13 14  1  0  0  2
 14 15  1  0  0  2
 15 16  1  0  0  1
 15 17  1  0  0  1
 16 21  1  0  0  1
 17 18  1  0  0  2
 17 19  1  0  0  1
 19 20  1  0  0  2
 19 21  1  0  0  1
 21 22  1  0  0  2
 22 23  1  0  0  1
 22 31  1  0  0  1
 23 24  2  0  0  1
 24 25  1  0  0  1
 25 26  4  0  0  1
 25 31  4  0  0  1
 26 27  1  0  0  2
 26 28  4  0  0  1
 28 29  4  0  0  1
 29 30  4  0  0  1
 30 31  4  0  0  1
 14 32  1  0  0  2
 14 33  1  0  0  2
 15 34  1  0  0  2
 17 35  1  0  0  2
 18 36  1  0  0  2
 19 37  1  0  0  2
 20 38  1  0  0  2
 21 39  1  0  0  2
 23 40  1  0  0  2
 27 41  1  0  0  2
 27 42  1  0  0  2
 29 43  1  0  0  2
M  END
> <MOLECULAR_FORMULA>
C10H12N5O13P3

> <MOLECULAR_WEIGHT>
503.1

> <NUM_HB_ATOMS>
18 

> <NUM_ROTOR>
7  

> <XLOGP2>
-3.94

$$$$
