REMARK  9 active torsions:
REMARK  status: ('A' for Active; 'I' for Inactive)
REMARK    1  A    between atoms: C4'_5  and  N4'_6 
REMARK    2  A    between atoms: C5'_7  and  C7'_9 
REMARK    3  A    between atoms: C7'_9  and  N3_10 
REMARK    4  A    between atoms: C5_13  and  C6_16 
REMARK    5  A    between atoms: C6_16  and  C7_17 
REMARK    6  A    between atoms: C7_17  and  O7_18 
REMARK    7  A    between atoms: O7_18  and  PA_19 
REMARK    8  A    between atoms: PA_19  and  O3A_22 
REMARK    9  A    between atoms: O3A_22  and  PB_23 
ROOT
ATOM      1  N3  N1T d          19.073  74.519  26.085  0.00  0.00    -0.349 N 
ATOM      2  C2  N1T d          18.949  75.774  25.656  0.00  0.00     0.141 C 
ATOM      3  S1  N1T d          19.764  76.041  24.224  0.00  0.00    -0.087 SA
ATOM      4  C5  N1T d          20.226  74.402  24.163  0.00  0.00     0.008 C 
ATOM      5  C4  N1T d          19.889  73.760  25.334  0.00  0.00     0.021 C 
ATOM      6  CM4 N1T d          19.910  72.268  25.541  0.00  0.00     0.069 C 
ENDROOT
BRANCH   1   7
ATOM      7  C7' N1T d          18.173  73.933  27.146  0.00  0.00     0.171 C 
BRANCH   7   8
ATOM      8  C5' N1T d          16.808  73.446  26.679  0.00  0.00     0.005 C 
ATOM      9  C4' N1T d          15.729  74.334  26.368  0.00  0.00     0.129 C 
ATOM     10  N3' N1T d          14.452  73.907  26.167  0.00  0.00    -0.236 NA
ATOM     11  C2' N1T d          14.181  72.603  26.086  0.00  0.00     0.033 C 
ATOM     12  C1' N1T d          15.151  71.652  26.562  0.00  0.00     0.027 C 
ATOM     13  CM2 N1T d          12.832  72.133  25.759  0.00  0.00     0.070 C 
ATOM     14  C6' N1T d          16.490  72.143  26.857  0.00  0.00     0.014 C 
BRANCH   9  15
ATOM     15  N4' N1T d          15.854  75.614  26.424  0.00  0.00    -0.384 N 
ATOM     16  H5  N1T d          16.782  76.035  26.573  0.00  0.00     0.157 HD
ATOM     17  H6  N1T d          15.026  76.217  26.320  0.00  0.00     0.157 HD
ENDBRANCH   9  15
ENDBRANCH   7   8
ENDBRANCH   1   7
BRANCH   4  18
ATOM     18  C6  N1T d          20.594  73.770  22.844  0.00  0.00     0.075 C 
BRANCH  18  19
ATOM     19  C7  N1T d          21.626  74.486  22.024  0.00  0.00     0.186 C 
BRANCH  19  20
ATOM     20  O7  N1T d          20.810  75.484  21.438  0.00  0.00    -0.289 OA
BRANCH  20  21
ATOM     21  PA  N1T d          20.948  76.243  20.066  0.00  0.00     0.418 P 
ATOM     22  O2A N1T d          21.744  75.568  18.989  0.00  0.00    -0.624 OA
ATOM     23  O1A N1T d          19.530  76.603  19.735  0.00  0.00    -0.624 OA
BRANCH  21  24
ATOM     24  O3A N1T d          21.721  77.604  20.309  0.00  0.00    -0.173 OA
BRANCH  24  25
ATOM     25  PB  N1T d          23.112  78.223  19.944  0.00  0.00     0.431 P 
ATOM     26  O3B N1T d          24.111  77.358  20.572  0.00  0.00    -0.616 OA
ATOM     27  O2B N1T d          23.120  78.037  18.462  0.00  0.00    -0.616 OA
ATOM     28  O1B N1T d          22.875  79.492  20.629  0.00  0.00    -0.616 OA
ENDBRANCH  24  25
ENDBRANCH  21  24
ENDBRANCH  20  21
ENDBRANCH  19  20
ENDBRANCH  18  19
ENDBRANCH   4  18
TORSDOF 9
