REMARK  5 active torsions:
REMARK  status: ('A' for Active; 'I' for Inactive)
REMARK    1  A    between atoms: N_1  and  CA_2 
REMARK    2  A    between atoms: CA_2  and  C_3 
REMARK    3  A    between atoms: CA_2  and  CB_5 
REMARK    4  A    between atoms: CB_5  and  CG_6 
REMARK    5  A    between atoms: CG_6  and  CD_7 
ROOT
ATOM      1  CA  GLU d           1.215  71.808  79.943  0.00  0.00     0.283 C 
ENDROOT
BRANCH   1   2
ATOM      2  N   GLU d           0.528  71.827  81.266  0.00  0.00    -0.065 N 
ATOM      3  H1  GLU d          -0.339  71.316  81.202  0.00  0.00     0.275 HD
ATOM      4  H2  GLU d           0.337  72.780  81.532  0.00  0.00     0.275 HD
ATOM      5  H3  GLU d           1.121  71.397  81.959  0.00  0.00     0.275 HD
ENDBRANCH   1   2
BRANCH   1   6
ATOM      6  C   GLU d           2.523  72.564  79.990  0.00  0.00     0.204 C 
ATOM      7  O   GLU d           3.181  72.618  78.938  0.00  0.00    -0.646 OA
ATOM      8  OXT GLU d           2.883  73.063  81.085  0.00  0.00    -0.646 OA
ENDBRANCH   1   6
BRANCH   1   9
ATOM      9  CB  GLU d           0.315  72.404  78.864  0.00  0.00     0.054 C 
BRANCH   9  10
ATOM     10  CG  GLU d          -0.877  71.511  78.505  0.00  0.00     0.116 C 
BRANCH  10  11
ATOM     11  CD  GLU d          -0.521  70.331  77.594  0.00  0.00     0.172 C 
ATOM     12  OE1 GLU d          -1.384  69.459  77.406  0.00  0.00    -0.648 OA
ATOM     13  OE2 GLU d           0.602  70.261  77.056  0.00  0.00    -0.648 OA
ENDBRANCH  10  11
ENDBRANCH   9  10
ENDBRANCH   1   9
TORSDOF 5
