REMARK  15 active torsions:
REMARK  status: ('A' for Active; 'I' for Inactive)
REMARK    1  A    between atoms: C6_6  and  N6_7 
REMARK    2  A    between atoms: C1_11  and  N9_10 
REMARK    3  A    between atoms: C2_12  and  O2_13 
REMARK    4  A    between atoms: C3_14  and  O3_15 
REMARK    5  A    between atoms: C5_18  and  C4_17 
REMARK    6  A    between atoms: O5_19  and  C5_18 
REMARK    7  A    between atoms: PA_20  and  O5_19 
REMARK    8  A    between atoms: O3A_23  and  PA_20 
REMARK    9  A    between atoms: PB_24  and  O3A_23 
REMARK   10  A    between atoms: RO5_27  and  PB_24 
REMARK   11  A    between atoms: RC5_28  and  RO5_27 
REMARK   12  A    between atoms: RC4_36  and  RC5_28 
REMARK   13  A    between atoms: RC1_31  and  RO1_30 
REMARK   14  A    between atoms: RC2_33  and  RO2_32 
REMARK   15  A    between atoms: RC3_35  and  RO3_34 
ROOT
ATOM      1  C5  APR d         -10.086  32.243 -41.502  0.00  0.00     0.216 C 
ENDROOT
BRANCH   1   2
ATOM      2  C4  APR d          -9.979  31.044 -40.538  0.00  0.00     0.180 C 
ATOM      3  C3  APR d         -10.714  29.771 -40.929  0.00  0.00     0.182 C 
ATOM      4  C2  APR d         -11.892  29.757 -40.057  0.00  0.00     0.198 C 
ATOM      5  C1  APR d         -11.553  30.540 -38.869  0.00  0.00     0.262 C 
ATOM      6  O4  APR d         -10.554  31.430 -39.284  0.00  0.00    -0.353 OA
BRANCH   3   7
ATOM      7  O3  APR d          -9.822  28.644 -40.792  0.00  0.00    -0.390 OA
ATOM      8  H9  APR d         -10.293  27.843 -40.991  0.00  0.00     0.210 HD
ENDBRANCH   3   7
BRANCH   4   9
ATOM      9  O2  APR d         -12.289  28.415 -39.713  0.00  0.00    -0.388 OA
ATOM     10  H7  APR d         -11.575  27.981 -39.261  0.00  0.00     0.210 HD
ENDBRANCH   4   9
BRANCH   5  11
ATOM     11  N9  APR d         -12.548  31.457 -38.326  0.00  0.00    -0.294 N 
ATOM     12  C4  APR d         -12.642  31.688 -36.976  0.00  0.00     0.167 A 
ATOM     13  N3  APR d         -11.839  31.094 -35.955  0.00  0.00    -0.222 NA
ATOM     14  C5  APR d         -13.685  32.627 -36.831  0.00  0.00     0.149 A 
ATOM     15  C2  APR d         -12.178  31.551 -34.621  0.00  0.00     0.237 A 
ATOM     16  N1  APR d         -13.197  32.490 -34.358  0.00  0.00    -0.222 NA
ATOM     17  C6  APR d         -13.970  33.045 -35.448  0.00  0.00     0.155 A 
ATOM     18  N7  APR d         -14.216  32.954 -38.056  0.00  0.00    -0.236 NA
ATOM     19  C8  APR d         -13.518  32.239 -38.941  0.00  0.00     0.214 A 
BRANCH  17  20
ATOM     20  N6  APR d         -14.991  33.996 -35.121  0.00  0.00    -0.382 N 
ATOM     21  H2  APR d         -15.563  34.414 -35.868  0.00  0.00     0.157 HD
ATOM     22  H3  APR d         -15.152  34.261 -34.139  0.00  0.00     0.157 HD
ENDBRANCH  17  20
ENDBRANCH   5  11
ENDBRANCH   1   2
BRANCH   1  23
ATOM     23  O5  APR d          -9.548  31.881 -42.789  0.00  0.00    -0.287 OA
BRANCH  23  24
ATOM     24  PA  APR d          -9.488  32.861 -43.962  0.00  0.00     0.417 P 
ATOM     25  O1A APR d         -10.795  33.487 -44.188  0.00  0.00    -0.624 OA
ATOM     26  O2A APR d          -8.941  32.171 -45.138  0.00  0.00    -0.624 OA
BRANCH  24  27
ATOM     27  O3A APR d          -8.441  33.948 -43.735  0.00  0.00    -0.180 OA
BRANCH  27  28
ATOM     28  PB  APR d          -7.018  34.130 -43.447  0.00  0.00     0.417 P 
ATOM     29  O1B APR d          -6.348  32.855 -43.262  0.00  0.00    -0.624 OA
ATOM     30  O2B APR d          -6.554  34.892 -42.394  0.00  0.00    -0.624 OA
BRANCH  28  31
ATOM     31  RO5 APR d          -6.754  34.497 -44.879  0.00  0.00    -0.287 OA
BRANCH  31  32
ATOM     32  RC5 APR d          -6.945  35.566 -45.644  0.00  0.00     0.216 C 
BRANCH  32  33
ATOM     33  RC4 APR d          -7.159  35.378 -47.031  0.00  0.00     0.180 C 
ATOM     34  RO4 APR d          -7.905  36.676 -47.190  0.00  0.00    -0.349 OA
ATOM     35  RC1 APR d          -7.232  37.318 -48.250  0.00  0.00     0.288 C 
ATOM     36  RC2 APR d          -6.187  36.559 -48.743  0.00  0.00     0.204 C 
ATOM     37  RC3 APR d          -6.170  35.242 -48.128  0.00  0.00     0.182 C 
BRANCH  35  38
ATOM     38  RO1 APR d          -6.532  38.417 -47.701  0.00  0.00    -0.369 OA
ATOM     39  H15 APR d          -7.149  39.011 -47.290  0.00  0.00     0.212 HD
ENDBRANCH  35  38
BRANCH  36  40
ATOM     40  RO2 APR d          -6.993  36.084 -49.825  0.00  0.00    -0.388 OA
ATOM     41  H17 APR d          -6.480  35.495 -50.366  0.00  0.00     0.210 HD
ENDBRANCH  36  40
BRANCH  37  42
ATOM     42  RO3 APR d          -6.303  34.013 -48.821  0.00  0.00    -0.390 OA
ATOM     43  H19 APR d          -7.139  33.994 -49.272  0.00  0.00     0.210 HD
ENDBRANCH  37  42
ENDBRANCH  32  33
ENDBRANCH  31  32
ENDBRANCH  28  31
ENDBRANCH  27  28
ENDBRANCH  24  27
ENDBRANCH  23  24
ENDBRANCH   1  23
TORSDOF 15
