REMARK  5 active torsions:
REMARK  status: ('A' for Active; 'I' for Inactive)
REMARK    1  A    between atoms: C9_6  and  N6_12 
REMARK    2  A    between atoms: C13_8  and  N15_15 
REMARK    3  A    between atoms: C3_9  and  O2_11 
REMARK    4  A    between atoms: N15_15  and  C16_16 
REMARK    5  A    between atoms: N22_22  and  C23_23 
ROOT
ATOM      1  N15 MOL d         -54.873   1.940 -23.481  0.00  0.00    -0.326 N 
ATOM      2  H   MOL d         -55.245   2.897 -23.562  0.00  0.00     0.169 HD
ENDROOT
BRANCH   1   3
ATOM      3  C13 MOL d         -55.076   1.107 -24.571  0.00  0.00     0.133 A 
ATOM      4  C12 MOL d         -56.234   1.234 -25.354  0.00  0.00     0.070 A 
ATOM      5  C11 MOL d         -56.387   0.403 -26.460  0.00  0.00     0.124 A 
ATOM      6  N10 MOL d         -55.430  -0.475 -26.738  0.00  0.00    -0.231 NA
ATOM      7  C9  MOL d         -54.322  -0.582 -25.992  0.00  0.00     0.205 A 
ATOM      8  N14 MOL d         -54.164   0.210 -24.930  0.00  0.00    -0.201 NA
BRANCH   7   9
ATOM      9  N6  MOL d         -53.331  -1.526 -26.292  0.00  0.00    -0.251 NA
ATOM     10  C5  MOL d         -53.067  -1.634 -27.762  0.00  0.00     0.101 C 
ATOM     11  C4  MOL d         -51.850  -2.506 -28.105  0.00  0.00     0.047 C 
ATOM     12  C3  MOL d         -50.653  -1.906 -27.352  0.00  0.00     0.123 C 
ATOM     13  C8  MOL d         -50.832  -2.014 -25.830  0.00  0.00     0.047 C 
ATOM     14  C7  MOL d         -52.157  -1.378 -25.374  0.00  0.00     0.101 C 
BRANCH  12  15
ATOM     15  O2  MOL d         -49.362  -2.320 -27.822  0.00  0.00    -0.391 OA
ATOM     16  C1  MOL d         -48.937  -3.688 -27.663  0.00  0.00     0.202 C 
ENDBRANCH  12  15
ENDBRANCH   7   9
ENDBRANCH   1   3
BRANCH   1  17
ATOM     17  C16 MOL d         -54.219   1.627 -22.281  0.00  0.00     0.131 A 
ATOM     18  C17 MOL d         -53.206   0.666 -22.194  0.00  0.00     0.081 A 
ATOM     19  C18 MOL d         -52.599   0.412 -20.953  0.00  0.00     0.050 A 
ATOM     20  C19 MOL d         -53.018   1.189 -19.836  0.00  0.00     0.010 A 
ATOM     21  N22 MOL d         -51.630  -0.453 -20.498  0.00  0.00    -0.351 N 
ATOM     22  C20 MOL d         -52.224   0.739 -18.691  0.00  0.00     0.032 A 
ATOM     23  C28 MOL d         -54.004   2.160 -20.021  0.00  0.00     0.132 A 
ATOM     24  C21 MOL d         -51.432  -0.239 -19.143  0.00  0.00     0.092 A 
ATOM     25  N29 MOL d         -54.573   2.332 -21.205  0.00  0.00    -0.242 NA
BRANCH  21  26
ATOM     26  C23 MOL d         -50.910  -1.439 -21.338  0.00  0.00     0.089 C 
ATOM     27  C24 MOL d         -49.918  -0.726 -22.273  0.00  0.00     0.026 C 
ATOM     28  C25 MOL d         -48.688  -0.461 -21.377  0.00  0.00     0.002 C 
ATOM     29  C26 MOL d         -48.575  -1.769 -20.554  0.00  0.00     0.002 C 
ATOM     30  C27 MOL d         -49.996  -2.385 -20.534  0.00  0.00     0.026 C 
ENDBRANCH  21  26
ENDBRANCH   1  17
TORSDOF 5
