REMARK  5 active torsions:
REMARK  status: ('A' for Active; 'I' for Inactive)
REMARK    1  A    between atoms: C23_2  and  C21_4 
REMARK    2  A    between atoms: C4_6  and  O1_7 
REMARK    3  A    between atoms: C7_11  and  N1_12 
REMARK    4  A    between atoms: N1_12  and  C9_13 
REMARK    5  A    between atoms: C13_19  and  C14_20 
ROOT
ATOM      1  N1  CF1 d          34.433   0.824  54.125  0.00  0.00    -0.354 N 
ATOM      2  H7  CF1 d          35.430   1.058  54.017  0.00  0.00     0.166 HD
ENDROOT
BRANCH   1   3
ATOM      3  C7  CF1 d          34.083  -0.460  53.854  0.00  0.00     0.050 A 
ATOM      4  C21 CF1 d          34.636  -1.094  52.730  0.00  0.00     0.070 A 
ATOM      5  C5  CF1 d          34.231  -2.391  52.401  0.00  0.00     0.057 A 
ATOM      6  C4  CF1 d          33.298  -3.059  53.200  0.00  0.00     0.069 A 
ATOM      7  C3  CF1 d          32.761  -2.430  54.322  0.00  0.00     0.039 A 
ATOM      8  C8  CF1 d          33.162  -1.138  54.658  0.00  0.00     0.033 A 
BRANCH   4   9
ATOM      9  C23 CF1 d          35.648  -0.381  51.860  0.00  0.00     0.211 C 
ATOM     10  O23 CF1 d          36.009   0.776  52.158  0.00  0.00    -0.644 OA
ATOM     11  O24 CF1 d          36.117  -0.950  50.852  0.00  0.00    -0.644 OA
ENDBRANCH   4   9
BRANCH   6  12
ATOM     12  O1  CF1 d          32.896  -4.336  52.880  0.00  0.00    -0.356 OA
ATOM     13  C2  CF1 d          33.780  -5.453  53.046  0.00  0.00     0.210 C 
ENDBRANCH   6  12
ENDBRANCH   1   3
BRANCH   1  14
ATOM     14  C9  CF1 d          33.612   1.841  54.525  0.00  0.00     0.055 A 
ATOM     15  C10 CF1 d          34.220   3.037  54.873  0.00  0.00     0.060 A 
ATOM     16 CL1  CF1 d          35.987   3.157  54.783  0.00  0.00    -0.082 Cl
ATOM     17  C11 CF1 d          33.482   4.140  55.282  0.00  0.00     0.027 A 
ATOM     18  C12 CF1 d          32.103   4.050  55.356  0.00  0.00     0.018 A 
ATOM     19  C13 CF1 d          31.467   2.855  55.001  0.00  0.00     0.050 A 
ATOM     20  C15 CF1 d          32.216   1.747  54.584  0.00  0.00     0.047 A 
BRANCH  19  21
ATOM     21  C14 CF1 d          29.973   2.799  55.093  0.00  0.00     0.417 C 
ATOM     22  F1  CF1 d          29.620   3.156  56.307  0.00  0.00    -0.166 F 
ATOM     23  F3  CF1 d          29.461   3.641  54.225  0.00  0.00    -0.166 F 
ATOM     24  F2  CF1 d          29.511   1.588  54.833  0.00  0.00    -0.166 F 
ENDBRANCH  19  21
ENDBRANCH   1  14
TORSDOF 5
