REMARK  8 active torsions:
REMARK  status: ('A' for Active; 'I' for Inactive)
REMARK    1  A    between atoms: C13_13  and  C7_7 
REMARK    2  A    between atoms: C8_8  and  C14_14 
REMARK    3  A    between atoms: C9_9  and  C23_23 
REMARK    4  A    between atoms: C24_24  and  C10_10 
REMARK       I    between atoms: N26_26  and  C13_13 
REMARK    5  A    between atoms: C25_25  and  C21_21 
REMARK    6  A    between atoms: C23_23  and  N27_27 
REMARK    7  A    between atoms: N27_27  and  C24_24 
REMARK    8  A    between atoms: C25_25  and  N26_26 
ROOT
ATOM      1  C1  OM3 d         -10.762  47.974   5.996  0.00  0.00     0.001 A 
ATOM      2  C2  OM3 d         -11.604  48.867   5.390  0.00  0.00     0.001 A 
ATOM      3  C3  OM3 d          -9.812  47.336   5.218  0.00  0.00     0.017 A 
ATOM      4  C4  OM3 d         -11.494  49.092   4.032  0.00  0.00     0.010 A 
ATOM      5  C7  OM3 d          -9.687  47.565   3.857  0.00  0.00     0.040 A 
ATOM      6  C9  OM3 d         -10.551  48.465   3.252  0.00  0.00    -0.017 A 
ENDROOT
BRANCH   6   7
ATOM      7  C23 OM3 d         -10.515  48.804   1.795  0.00  0.00     0.274 C 
BRANCH   7   8
ATOM      8  N27 OM3 d         -11.453  48.053   0.910  0.00  0.00    -0.067 N 
ATOM      9  C22 OM3 d         -11.660  48.780  -0.375  0.00  0.00     0.270 C 
ATOM     10  H30 OM3 d         -12.342  48.067   1.384  0.00  0.00     0.280 HD
BRANCH   8  11
ATOM     11  C24 OM3 d         -11.130  46.588   0.720  0.00  0.00     0.274 C 
BRANCH  11  12
ATOM     12  C10 OM3 d         -12.079  45.897  -0.231  0.00  0.00    -0.013 A 
ATOM     13  C5  OM3 d         -11.571  45.556  -1.477  0.00  0.00     0.013 A 
ATOM     14  C6  OM3 d         -12.342  44.912  -2.430  0.00  0.00     0.040 A 
ATOM     15  C11 OM3 d         -13.650  44.631  -2.110  0.00  0.00     0.106 A 
ATOM     16  C12 OM3 d         -14.169  44.964  -0.895  0.00  0.00     0.122 A 
ATOM     17  O31 OM3 d         -14.553  44.020  -2.932  0.00  0.00    -0.323 OA
ATOM     18  C8  OM3 d         -13.409  45.603   0.084  0.00  0.00     0.085 A 
ATOM     19  O32 OM3 d         -15.497  44.585  -0.810  0.00  0.00    -0.322 OA
ATOM     20  C20 OM3 d         -15.700  43.959  -2.082  0.00  0.00     0.352 A 
BRANCH  18  21
ATOM     21  C14 OM3 d         -14.014  45.913   1.415  0.00  0.00     0.212 C 
ATOM     22  O28 OM3 d         -14.965  45.173   1.812  0.00  0.00    -0.644 OA
ATOM     23  O30 OM3 d         -13.522  46.835   2.110  0.00  0.00    -0.644 OA
ENDBRANCH  18  21
ENDBRANCH  11  12
ENDBRANCH   8  11
ENDBRANCH   7   8
ENDBRANCH   6   7
BRANCH   5  24
ATOM     24  C13 OM3 d          -8.624  46.824   3.099  0.00  0.00     0.252 C 
ATOM     25  N26 OM3 d          -8.491  45.495   3.379  0.00  0.00    -0.356 N 
ATOM     26  H29 OM3 d          -9.113  45.054   4.026  0.00  0.00     0.162 HD
ATOM     27  O29 OM3 d          -7.911  47.354   2.267  0.00  0.00    -0.268 OA
BRANCH  25  28
ATOM     28  C25 OM3 d          -7.444  44.724   2.734  0.00  0.00     0.127 C 
BRANCH  28  29
ATOM     29  C21 OM3 d          -8.102  43.538   2.030  0.00  0.00     0.003 C 
ATOM     30  C18 OM3 d          -8.918  43.991   0.843  0.00  0.00     0.006 C 
ATOM     31  C16 OM3 d          -9.687  42.799   0.309  0.00  0.00     0.000 C 
ATOM     32  C15 OM3 d          -8.712  41.790  -0.229  0.00  0.00     0.000 C 
ATOM     33  C17 OM3 d          -7.907  41.313   0.954  0.00  0.00     0.000 C 
ATOM     34  C19 OM3 d          -7.136  42.474   1.564  0.00  0.00     0.006 C 
ENDBRANCH  28  29
ENDBRANCH  25  28
ENDBRANCH   5  24
TORSDOF 8
