REMARK  0 active torsions:
REMARK  status: ('A' for Active; 'I' for Inactive)
ROOT
ATOM      1  C1  MOL d          26.730   5.947   4.323  0.00  0.00    -0.045 A 
ATOM      2  C2  MOL d          27.148   7.062   5.197  0.00  0.00     0.025 A 
ATOM      3  C3  MOL d          27.338   6.147   3.146  0.00  0.00     0.094 A 
ATOM      4  C4  MOL d          25.801   4.823   4.696  0.00  0.00     0.049 C 
ATOM      5  C5  MOL d          27.962   7.821   4.446  0.00  0.00     0.088 A 
ATOM      6  N6  MOL d          28.094   7.277   3.207  0.00  0.00    -0.375 N 
ATOM      7  H7  MOL d          28.670   7.657   2.442  0.00  0.00     0.164 HD
ENDROOT
TORSDOF 0
