REMARK  21 active torsions:
REMARK  status: ('A' for Active; 'I' for Inactive)
REMARK    1  A    between atoms: C31_31  and  C01_1 
REMARK    2  A    between atoms: C04_4  and  C45_45 
REMARK    3  A    between atoms: C13_13  and  C07_7 
REMARK    4  A    between atoms: C10_10  and  C51_51 
REMARK    5  A    between atoms: O14_14  and  C13_13 
REMARK    6  A    between atoms: C15_15  and  O14_14 
REMARK    7  A    between atoms: C16_16  and  C15_15 
REMARK    8  A    between atoms: C15_15  and  C34_34 
REMARK    9  A    between atoms: C17_17  and  C16_16 
REMARK   10  A    between atoms: C16_16  and  O33_33 
REMARK   11  A    between atoms: C18_18  and  C17_17 
REMARK   12  A    between atoms: C17_17  and  O32_32 
REMARK   13  A    between atoms: C18_18  and  C19_19 
REMARK   14  A    between atoms: O30_30  and  C18_18 
REMARK       I    between atoms: C19_19  and  N21_21 
REMARK   15  A    between atoms: N21_21  and  C22_22 
REMARK   16  A    between atoms: C22_22  and  C23_23 
REMARK   17  A    between atoms: C22_22  and  C26_26 
REMARK       I    between atoms: C26_26  and  N28_28 
REMARK   18  A    between atoms: C31_31  and  O30_30 
REMARK       I    between atoms: C34_34  and  N36_36 
REMARK   19  A    between atoms: N36_36  and  C37_37 
REMARK   20  A    between atoms: C37_37  and  C38_38 
REMARK   21  A    between atoms: C37_37  and  C41_41 
REMARK       I    between atoms: C41_41  and  N43_43 
ROOT
ATOM      1  C16 BEJ d          14.122  23.245   4.616  0.00  0.00     0.188 C 
ENDROOT
BRANCH   1   2
ATOM      2  C15 BEJ d          15.084  22.860   5.730  0.00  0.00     0.244 C 
BRANCH   2   3
ATOM      3  O14 BEJ d          14.601  23.314   7.007  0.00  0.00    -0.369 OA
BRANCH   3   4
ATOM      4  C13 BEJ d          15.668  23.708   7.925  0.00  0.00     0.207 C 
BRANCH   4   5
ATOM      5  C07 BEJ d          16.297  22.493   8.554  0.00  0.00    -0.035 A 
ATOM      6  C08 BEJ d          15.453  21.603   9.331  0.00  0.00     0.010 A 
ATOM      7  C09 BEJ d          16.010  20.427   9.930  0.00  0.00     0.013 A 
ATOM      8  C10 BEJ d          17.417  20.123   9.761  0.00  0.00    -0.025 A 
ATOM      9  C11 BEJ d          18.251  21.028   8.977  0.00  0.00     0.013 A 
ATOM     10  C12 BEJ d          17.699  22.211   8.372  0.00  0.00     0.010 A 
BRANCH   8  11
ATOM     11  C51 BEJ d          18.004  18.883  10.393  0.00  0.00    -0.008 A 
ATOM     12  C52 BEJ d          17.265  17.646  10.560  0.00  0.00     0.015 A 
ATOM     13  C53 BEJ d          17.875  16.493  11.174  0.00  0.00     0.020 A 
ATOM     14  C54 BEJ d          19.229  16.634  11.602  0.00  0.00     0.116 A 
ATOM     15  N55 BEJ d          19.966  17.800  11.457  0.00  0.00    -0.272 NA
ATOM     16  C56 BEJ d          19.362  18.876  10.873  0.00  0.00     0.128 A 
ENDBRANCH   8  11
ENDBRANCH   4   5
ENDBRANCH   3   4
ENDBRANCH   2   3
BRANCH   2  17
ATOM     17  C34 BEJ d          15.224  21.362   5.654  0.00  0.00     0.250 C 
ATOM     18  O35 BEJ d          14.294  20.658   6.057  0.00  0.00    -0.271 OA
ATOM     19  N36 BEJ d          16.424  20.899   5.136  0.00  0.00    -0.345 N 
ATOM     20  H32 BEJ d          17.098  21.579   4.848  0.00  0.00     0.163 HD
BRANCH  19  21
ATOM     21  C37 BEJ d          16.775  19.488   4.981  0.00  0.00     0.180 C 
BRANCH  21  22
ATOM     22  C38 BEJ d          16.816  19.054   3.464  0.00  0.00     0.009 C 
ATOM     23  C39 BEJ d          17.255  17.564   3.243  0.00  0.00     0.012 C 
ATOM     24  C40 BEJ d          15.490  19.321   2.741  0.00  0.00     0.012 C 
ENDBRANCH  21  22
BRANCH  21  25
ATOM     25  C41 BEJ d          18.192  19.344   5.557  0.00  0.00     0.240 C 
ATOM     26  O42 BEJ d          19.118  20.083   5.164  0.00  0.00    -0.271 OA
ATOM     27  N43 BEJ d          18.331  18.347   6.516  0.00  0.00    -0.364 N 
ATOM     28  C44 BEJ d          19.624  18.127   7.114  0.00  0.00     0.149 C 
ATOM     29  H41 BEJ d          17.546  17.791   6.787  0.00  0.00     0.161 HD
ENDBRANCH  21  25
ENDBRANCH  19  21
ENDBRANCH   2  17
ENDBRANCH   1   2
BRANCH   1  30
ATOM     30  C17 BEJ d          13.715  24.695   4.687  0.00  0.00     0.188 C 
BRANCH  30  31
ATOM     31  C18 BEJ d          12.344  24.926   4.013  0.00  0.00     0.244 C 
BRANCH  31  32
ATOM     32  C19 BEJ d          11.220  24.826   5.065  0.00  0.00     0.250 C 
ATOM     33  O20 BEJ d          10.983  23.756   5.642  0.00  0.00    -0.271 OA
ATOM     34  N21 BEJ d          10.491  25.992   5.317  0.00  0.00    -0.345 N 
ATOM     35  H15 BEJ d          10.758  26.804   4.797  0.00  0.00     0.163 HD
BRANCH  34  36
ATOM     36  C22 BEJ d           9.348  26.162   6.285  0.00  0.00     0.180 C 
BRANCH  36  37
ATOM     37  C23 BEJ d           9.818  26.832   7.646  0.00  0.00     0.009 C 
ATOM     38  C24 BEJ d          10.939  26.046   8.394  0.00  0.00     0.012 C 
ATOM     39  C25 BEJ d           8.668  27.100   8.658  0.00  0.00     0.012 C 
ENDBRANCH  36  37
BRANCH  36  40
ATOM     40  C26 BEJ d           8.603  27.115   5.590  0.00  0.00     0.240 C 
ATOM     41  O27 BEJ d           8.696  28.142   5.014  0.00  0.00    -0.271 OA
ATOM     42  N28 BEJ d           6.987  26.644   5.553  0.00  0.00    -0.364 N 
ATOM     43  C29 BEJ d           5.954  27.443   4.894  0.00  0.00     0.149 C 
ATOM     44  H24 BEJ d           6.724  25.788   5.997  0.00  0.00     0.161 HD
ENDBRANCH  36  40
ENDBRANCH  34  36
ENDBRANCH  31  32
BRANCH  31  45
ATOM     45  O30 BEJ d          12.075  23.973   2.918  0.00  0.00    -0.369 OA
BRANCH  45  46
ATOM     46  C31 BEJ d          11.304  24.467   1.816  0.00  0.00     0.207 C 
BRANCH  46  47
ATOM     47  C01 BEJ d           9.835  24.397   2.085  0.00  0.00    -0.035 A 
ATOM     48  C02 BEJ d           9.040  25.549   1.879  0.00  0.00     0.010 A 
ATOM     49  C03 BEJ d           7.635  25.501   2.139  0.00  0.00     0.013 A 
ATOM     50  C04 BEJ d           7.007  24.279   2.615  0.00  0.00    -0.025 A 
ATOM     51  C05 BEJ d           7.851  23.116   2.818  0.00  0.00     0.013 A 
ATOM     52  C06 BEJ d           9.248  23.157   2.561  0.00  0.00     0.010 A 
BRANCH  50  53
ATOM     53  C45 BEJ d           5.506  24.209   2.892  0.00  0.00    -0.008 A 
ATOM     54  C46 BEJ d           4.905  23.454   3.965  0.00  0.00     0.015 A 
ATOM     55  C47 BEJ d           3.473  23.439   4.153  0.00  0.00     0.020 A 
ATOM     56  C48 BEJ d           2.685  24.205   3.227  0.00  0.00     0.116 A 
ATOM     57  N49 BEJ d           3.217  24.942   2.185  0.00  0.00    -0.272 NA
ATOM     58  C50 BEJ d           4.577  24.932   2.039  0.00  0.00     0.128 A 
ENDBRANCH  50  53
ENDBRANCH  46  47
ENDBRANCH  45  46
ENDBRANCH  31  45
ENDBRANCH  30  31
BRANCH  30  59
ATOM     59  O32 BEJ d          14.834  25.448   4.220  0.00  0.00    -0.390 OA
ATOM     60  H30 BEJ d          14.979  25.261   3.300  0.00  0.00     0.210 HD
ENDBRANCH  30  59
ENDBRANCH   1  30
BRANCH   1  61
ATOM     61  O33 BEJ d          14.651  22.914   3.316  0.00  0.00    -0.390 OA
ATOM     62  H31 BEJ d          13.988  23.076   2.655  0.00  0.00     0.210 HD
ENDBRANCH   1  61
TORSDOF 21
