REMARK  6 active torsions:
REMARK  status: ('A' for Active; 'I' for Inactive)
REMARK    1  A    between atoms: O8_1  and  C8_2 
REMARK    2  A    between atoms: N3_11  and  C1S_12 
REMARK    3  A    between atoms: C2S_13  and  O2S_14 
REMARK    4  A    between atoms: C4S_16  and  C5S_19 
REMARK    5  A    between atoms: C3S_17  and  O3S_18 
REMARK    6  A    between atoms: C5S_19  and  S5S_20 
ROOT
ATOM      1  C8  MCF d         -35.805  -5.839  35.584  0.00  0.00     0.191 C 
ATOM      2  C7  MCF d         -34.641  -5.315  36.442  0.00  0.00     0.158 C 
ATOM      3  N6  MCF d         -34.039  -6.400  37.176  0.00  0.00    -0.382 N 
ATOM      4  C5  MCF d         -34.574  -6.934  38.286  0.00  0.00     0.205 C 
ATOM      5  N4  MCF d         -35.816  -7.047  38.565  0.00  0.00    -0.224 NA
ATOM      6  C10 MCF d         -36.918  -6.640  37.845  0.00  0.00     0.161 A 
ATOM      7  C9  MCF d         -36.929  -6.063  36.487  0.00  0.00     0.112 A 
ATOM      8  N1  MCF d         -38.236  -5.782  36.268  0.00  0.00    -0.241 NA
ATOM      9  C2  MCF d         -38.956  -6.135  37.375  0.00  0.00     0.214 A 
ATOM     10  N3  MCF d         -38.144  -6.650  38.334  0.00  0.00    -0.294 N 
ATOM     11  H5  MCF d         -33.149  -6.787  36.830  0.00  0.00     0.160 HD
ENDROOT
BRANCH  10  12
ATOM     12  C1S MCF d         -38.582  -7.093  39.675  0.00  0.00     0.262 C 
ATOM     13  C2S MCF d         -40.082  -6.943  39.846  0.00  0.00     0.198 C 
ATOM     14  C3S MCF d         -40.387  -7.959  40.931  0.00  0.00     0.180 C 
ATOM     15  C4S MCF d         -39.408  -9.055  40.556  0.00  0.00     0.165 C 
ATOM     16  O4S MCF d         -38.370  -8.471  39.777  0.00  0.00    -0.355 OA
BRANCH  13  17
ATOM     17  O2S MCF d         -40.437  -5.596  40.134  0.00  0.00    -0.388 OA
ATOM     18  H10 MCF d         -40.012  -5.323  40.938  0.00  0.00     0.210 HD
ENDBRANCH  13  17
BRANCH  14  19
ATOM     19  O3S MCF d         -40.113  -7.313  42.169  0.00  0.00    -0.390 OA
ATOM     20  H13 MCF d         -40.769  -6.644  42.328  0.00  0.00     0.210 HD
ENDBRANCH  14  19
BRANCH  15  21
ATOM     21  C5S MCF d         -39.910 -10.344  39.928  0.00  0.00     0.108 C 
BRANCH  21  22
ATOM     22  S5S MCF d         -40.226 -11.477  41.224  0.00  0.00    -0.171 SA
ATOM     23  C6S MCF d         -38.915 -12.643  41.172  0.00  0.00     0.089 C 
ENDBRANCH  21  22
ENDBRANCH  15  21
ENDBRANCH  10  12
BRANCH   1  24
ATOM     24  O8  MCF d         -35.578  -7.080  34.853  0.00  0.00    -0.388 OA
ATOM     25  H1  MCF d         -36.360  -7.304  34.362  0.00  0.00     0.210 HD
ENDBRANCH   1  24
TORSDOF 6
