REMARK  3 active torsions:
REMARK  status: ('A' for Active; 'I' for Inactive)
REMARK    1  A    between atoms: C14_8  and  N19_13 
REMARK    2  A    between atoms: C15_9  and  C16_10 
REMARK       I    between atoms: N19_13  and  C20_14 
REMARK    3  A    between atoms: C20_14  and  C21_15 
ROOT
ATOM      1  S1  COL d          14.194  45.059  17.006  0.00  0.00    -0.164 SA
ATOM      2  C2  COL d          13.958  45.570  18.702  0.00  0.00     0.120 C 
ATOM      3  C3  COL d          12.499  45.548  18.970  0.00  0.00     0.001 A 
ATOM      4  C4  COL d          11.449  45.264  18.167  0.00  0.00    -0.024 A 
ATOM      5  C5  COL d          11.406  44.649  16.812  0.00  0.00     0.051 C 
ATOM      6  C6  COL d          12.761  43.942  16.720  0.00  0.00     0.079 C 
ATOM      7  S13 COL d          11.996  46.235  20.479  0.00  0.00    -0.074 SA
ATOM      8  C14 COL d          10.401  46.044  20.020  0.00  0.00     0.095 A 
ATOM      9  C15 COL d          10.166  45.556  18.818  0.00  0.00     0.082 A 
ENDROOT
BRANCH   8  10
ATOM     10  N19 COL d           9.308  46.505  20.851  0.00  0.00    -0.311 N 
ATOM     11  C20 COL d           9.498  47.204  21.976  0.00  0.00     0.323 C 
ATOM     12  O24 COL d          10.569  47.268  22.601  0.00  0.00    -0.260 OA
ATOM     13  H7  COL d           8.372  46.292  20.572  0.00  0.00     0.170 HD
BRANCH  11  14
ATOM     14  C21 COL d           8.159  47.645  22.546  0.00  0.00     0.270 C 
ATOM     15  O22 COL d           7.158  46.717  22.400  0.00  0.00    -0.640 OA
ATOM     16  O23 COL d           7.942  48.586  23.234  0.00  0.00    -0.640 OA
ENDBRANCH  11  14
ENDBRANCH   8  10
BRANCH   9  17
ATOM     17  C16 COL d           8.729  45.429  18.284  0.00  0.00     0.212 C 
ATOM     18  O17 COL d           7.738  45.423  18.957  0.00  0.00    -0.644 OA
ATOM     19  O18 COL d           8.667  45.355  17.013  0.00  0.00    -0.644 OA
ENDBRANCH   9  17
TORSDOF 3
