REMARK  21 active torsions:
REMARK  status: ('A' for Active; 'I' for Inactive)
REMARK    1  A    between atoms: C33_32  and  C34_1 
REMARK    2  A    between atoms: C30_13  and  C40_7 
REMARK    3  A    between atoms: O29_14  and  C30_13 
REMARK    4  A    between atoms: C5_15  and  O29_14 
REMARK    5  A    between atoms: C4_16  and  C5_15 
REMARK    6  A    between atoms: C5_15  and  C6_35 
REMARK    7  A    between atoms: C3_17  and  C4_16 
REMARK    8  A    between atoms: C4_16  and  O28_34 
REMARK    9  A    between atoms: C2_18  and  C3_17 
REMARK   10  A    between atoms: C3_17  and  O27_33 
REMARK   11  A    between atoms: C2_18  and  C1_19 
REMARK   12  A    between atoms: O32_31  and  C2_18 
REMARK       I    between atoms: C1_19  and  N18_21 
REMARK   13  A    between atoms: N18_21  and  C19_22 
REMARK   14  A    between atoms: C19_22  and  C20_23 
REMARK   15  A    between atoms: C19_22  and  C23_27 
REMARK   16  A    between atoms: C20_23  and  C22_25 
REMARK       I    between atoms: C23_27  and  N25_29 
REMARK   17  A    between atoms: C33_32  and  O32_31 
REMARK       I    between atoms: C6_35  and  N8_37 
REMARK   18  A    between atoms: N8_37  and  C9_38 
REMARK   19  A    between atoms: C9_38  and  C10_39 
REMARK   20  A    between atoms: C9_38  and  C13_43 
REMARK   21  A    between atoms: C10_39  and  C12_41 
REMARK       I    between atoms: C13_43  and  N15_45 
ROOT
ATOM      1  C4  BEI d          14.093  23.028   4.912  0.00  0.00     0.188 C 
ENDROOT
BRANCH   1   2
ATOM      2  C5  BEI d          15.155  22.646   5.937  0.00  0.00     0.244 C 
BRANCH   2   3
ATOM      3  O29 BEI d          14.714  23.058   7.282  0.00  0.00    -0.370 OA
BRANCH   3   4
ATOM      4  C30 BEI d          15.802  23.414   8.200  0.00  0.00     0.203 C 
BRANCH   4   5
ATOM      5  C40 BEI d          16.446  22.180   8.794  0.00  0.00    -0.057 A 
ATOM      6  C41 BEI d          15.634  21.207   9.480  0.00  0.00     0.063 A 
ATOM      7  C42 BEI d          16.224  20.024  10.037  0.00  0.00    -0.026 A 
ATOM      8  C43 BEI d          17.617  19.824   9.905  0.00  0.00    -0.027 A 
ATOM      9  C44 BEI d          18.434  20.794   9.221  0.00  0.00     0.054 A 
ATOM     10  C45 BEI d          17.846  21.974   8.664  0.00  0.00    -0.018 A 
ENDBRANCH   4   5
ENDBRANCH   3   4
ENDBRANCH   2   3
BRANCH   2  11
ATOM     11  C6  BEI d          15.352  21.195   5.790  0.00  0.00     0.250 C 
ATOM     12  O7  BEI d          14.385  20.483   6.108  0.00  0.00    -0.271 OA
ATOM     13  N8  BEI d          16.546  20.742   5.325  0.00  0.00    -0.345 N 
ATOM     14  H38 BEI d          17.259  21.405   5.095  0.00  0.00     0.163 HD
BRANCH  13  15
ATOM     15  C9  BEI d          16.821  19.322   5.151  0.00  0.00     0.180 C 
BRANCH  15  16
ATOM     16  C10 BEI d          16.756  18.889   3.627  0.00  0.00     0.013 C 
ATOM     17  C11 BEI d          17.226  17.395   3.429  0.00  0.00     0.012 C 
BRANCH  16  18
ATOM     18  C12 BEI d          15.322  19.040   3.055  0.00  0.00     0.002 C 
ATOM     19  C47 BEI d          15.341  19.080   1.513  0.00  0.00     0.005 C 
ENDBRANCH  16  18
ENDBRANCH  15  16
BRANCH  15  20
ATOM     20  C13 BEI d          18.200  19.098   5.705  0.00  0.00     0.240 C 
ATOM     21  O14 BEI d          19.152  19.780   5.269  0.00  0.00    -0.271 OA
ATOM     22  N15 BEI d          18.294  18.127   6.676  0.00  0.00    -0.364 N 
ATOM     23  C16 BEI d          19.625  17.891   7.222  0.00  0.00     0.149 C 
ATOM     24  H49 BEI d          17.495  17.613   6.989  0.00  0.00     0.161 HD
ENDBRANCH  15  20
ENDBRANCH  13  15
ENDBRANCH   2  11
ENDBRANCH   1   2
BRANCH   1  25
ATOM     25  C3  BEI d          13.680  24.467   4.996  0.00  0.00     0.188 C 
BRANCH  25  26
ATOM     26  C2  BEI d          12.294  24.657   4.292  0.00  0.00     0.244 C 
BRANCH  26  27
ATOM     27  C1  BEI d          11.114  24.663   5.264  0.00  0.00     0.250 C 
ATOM     28  O17 BEI d          10.823  23.623   5.863  0.00  0.00    -0.271 OA
ATOM     29  N18 BEI d          10.419  25.827   5.404  0.00  0.00    -0.345 N 
ATOM     30  H19 BEI d          10.726  26.622   4.881  0.00  0.00     0.163 HD
BRANCH  29  31
ATOM     31  C19 BEI d           9.235  25.987   6.284  0.00  0.00     0.180 C 
BRANCH  31  32
ATOM     32  C20 BEI d           9.585  26.671   7.665  0.00  0.00     0.013 C 
ATOM     33  C21 BEI d           8.298  26.891   8.527  0.00  0.00     0.012 C 
BRANCH  32  34
ATOM     34  C22 BEI d          10.648  25.852   8.490  0.00  0.00     0.002 C 
ATOM     35  C46 BEI d          11.316  26.757   9.573  0.00  0.00     0.005 C 
ENDBRANCH  32  34
ENDBRANCH  31  32
BRANCH  31  36
ATOM     36  C23 BEI d           8.270  26.882   5.519  0.00  0.00     0.240 C 
ATOM     37  O24 BEI d           8.691  27.958   5.060  0.00  0.00    -0.271 OA
ATOM     38  N25 BEI d           6.976  26.422   5.398  0.00  0.00    -0.364 N 
ATOM     39  C26 BEI d           6.036  27.265   4.677  0.00  0.00     0.149 C 
ATOM     40  H30 BEI d           6.696  25.546   5.790  0.00  0.00     0.161 HD
ENDBRANCH  31  36
ENDBRANCH  29  31
ENDBRANCH  26  27
BRANCH  26  41
ATOM     41  O32 BEI d          12.069  23.615   3.249  0.00  0.00    -0.369 OA
BRANCH  41  42
ATOM     42  C33 BEI d          11.424  24.093   2.033  0.00  0.00     0.207 C 
BRANCH  42  43
ATOM     43  C34 BEI d           9.910  24.178   2.172  0.00  0.00    -0.035 A 
ATOM     44  C35 BEI d           9.228  25.359   1.809  0.00  0.00     0.009 A 
ATOM     45  C36 BEI d           7.819  25.455   1.940  0.00  0.00     0.001 A 
ATOM     46  C37 BEI d           7.088  24.357   2.443  0.00  0.00     0.000 A 
ATOM     47  C38 BEI d           7.754  23.159   2.816  0.00  0.00     0.001 A 
ATOM     48  C39 BEI d           9.170  23.073   2.679  0.00  0.00     0.009 A 
ENDBRANCH  42  43
ENDBRANCH  41  42
ENDBRANCH  26  41
ENDBRANCH  25  26
BRANCH  25  49
ATOM     49  O27 BEI d          14.780  25.204   4.370  0.00  0.00    -0.390 OA
ATOM     50  H36 BEI d          14.882  24.915   3.471  0.00  0.00     0.210 HD
ENDBRANCH  25  49
ENDBRANCH   1  25
BRANCH   1  51
ATOM     51  O28 BEI d          14.606  22.782   3.551  0.00  0.00    -0.390 OA
ATOM     52  H37 BEI d          13.922  22.966   2.918  0.00  0.00     0.210 HD
ENDBRANCH   1  51
TORSDOF 21
