REMARK  12 active torsions:
REMARK  status: ('A' for Active; 'I' for Inactive)
REMARK    1  A    between atoms: O5'_1  and  C5'_2 
REMARK    2  A    between atoms: C5'_2  and  C4'_3 
REMARK    3  A    between atoms: C3'_5  and  O3'_6 
REMARK    4  A    between atoms: O3'_6  and  P_19 
REMARK    5  A    between atoms: C1'_8  and  N9_9 
REMARK    6  A    between atoms: C6_13  and  N6_14 
REMARK    7  A    between atoms: P_19  and  O5'_22 
REMARK    8  A    between atoms: O5'_22  and  C5'_23 
REMARK    9  A    between atoms: C5'_23  and  C4'_24 
REMARK   10  A    between atoms: C3'_26  and  O3'_27 
REMARK   11  A    between atoms: C1'_29  and  N9_30 
REMARK   12  A    between atoms: C2_37  and  N2_38 
ROOT
ATOM      1  P    DA d         -20.325 -18.843  45.024  0.00  0.00     0.408 P 
ATOM      2  OP1  DA d         -20.896 -17.478  44.912  0.00  0.00    -0.624 OA
ATOM      3  OP2  DA d         -19.238 -19.086  46.009  0.00  0.00    -0.624 OA
ENDROOT
BRANCH   1   4
ATOM      4  O3'  DA d         -19.790 -19.271  43.570  0.00  0.00    -0.282 OA
BRANCH   4   5
ATOM      5  C3'  DA d         -20.292 -20.451  42.917  0.00  0.00     0.169 C 
ATOM      6  C4'  DA d         -19.139 -21.309  42.388  0.00  0.00     0.177 C 
ATOM      7  O4'  DA d         -19.503 -21.667  41.032  0.00  0.00    -0.356 OA
ATOM      8  C1'  DA d         -20.246 -20.587  40.511  0.00  0.00     0.233 C 
ATOM      9  C2'  DA d         -21.131 -20.137  41.673  0.00  0.00     0.089 C 
BRANCH   6  10
ATOM     10  C5'  DA d         -18.829 -22.566  43.185  0.00  0.00     0.198 C 
BRANCH  10  11
ATOM     11  O5'  DA d         -18.744 -22.299  44.582  0.00  0.00    -0.398 OA
ATOM     12  H1   DA d         -18.550 -23.105  45.046  0.00  0.00     0.209 HD
ENDBRANCH  10  11
ENDBRANCH   6  10
BRANCH   8  13
ATOM     13  N9   DA d         -20.916 -21.004  39.269  0.00  0.00    -0.296 N 
ATOM     14  C8   DA d         -20.378 -21.817  38.308  0.00  0.00     0.214 A 
ATOM     15  N7   DA d         -21.161 -22.033  37.277  0.00  0.00    -0.236 NA
ATOM     16  C5   DA d         -22.300 -21.309  37.576  0.00  0.00     0.149 A 
ATOM     17  C6   DA d         -23.513 -21.126  36.879  0.00  0.00     0.155 A 
ATOM     18  C4   DA d         -22.171 -20.665  38.797  0.00  0.00     0.167 A 
ATOM     19  N1   DA d         -24.456 -20.343  37.442  0.00  0.00    -0.222 NA
ATOM     20  C2   DA d         -24.195 -19.780  38.629  0.00  0.00     0.237 A 
ATOM     21  N3   DA d         -23.096 -19.878  39.380  0.00  0.00    -0.222 NA
BRANCH  17  22
ATOM     22  N6   DA d         -23.769 -21.686  35.696  0.00  0.00    -0.382 N 
ATOM     23  H10  DA d         -24.673 -21.518  35.231  0.00  0.00     0.157 HD
ATOM     24  H11  DA d         -23.063 -22.287  35.247  0.00  0.00     0.157 HD
ENDBRANCH  17  22
ENDBRANCH   8  13
ENDBRANCH   4   5
ENDBRANCH   1   4
BRANCH   1  25
ATOM     25  O5'  DA d         -21.530 -19.866  45.300  0.00  0.00    -0.287 OA
BRANCH  25  26
ATOM     26  C5'  DA d         -22.880 -19.399  45.383  0.00  0.00     0.216 C 
BRANCH  26  27
ATOM     27  C4'  DA d         -23.897 -20.534  45.385  0.00  0.00     0.177 C 
ATOM     28  O4'  DA d         -23.875 -21.228  44.107  0.00  0.00    -0.356 OA
ATOM     29  C1'  DA d         -23.681 -22.616  44.316  0.00  0.00     0.233 C 
ATOM     30  C2'  DA d         -22.953 -22.705  45.653  0.00  0.00     0.088 C 
ATOM     31  C3'  DA d         -23.680 -21.619  46.436  0.00  0.00     0.153 C 
BRANCH  29  32
ATOM     32  N9   DA d         -22.975 -23.160  43.156  0.00  0.00    -0.297 N 
ATOM     33  C8   DA d         -21.665 -23.580  43.077  0.00  0.00     0.214 A 
ATOM     34  N7   DA d         -21.329 -24.010  41.891  0.00  0.00    -0.234 NA
ATOM     35  C5   DA d         -22.484 -23.866  41.134  0.00  0.00     0.171 A 
ATOM     36  C6   DA d         -22.728 -24.167  39.770  0.00  0.00     0.292 A 
ATOM     37  C4   DA d         -23.506 -23.342  41.897  0.00  0.00     0.161 A 
ATOM     38  O6   DA d         -21.938 -24.640  38.942  0.00  0.00    -0.265 OA
ATOM     39  N1   DA d         -24.039 -23.870  39.395  0.00  0.00    -0.154 N 
ATOM     40  C2   DA d         -24.995 -23.341  40.235  0.00  0.00     0.680 A 
ATOM     41  H22  DA d         -24.304 -24.054  38.449  0.00  0.00     0.187 HD
ATOM     42  N3   DA d         -24.778 -23.057  41.516  0.00  0.00    -0.174 N 
ATOM     43  H25  DA d         -25.492 -22.666  42.147  0.00  0.00     0.186 HD
BRANCH  40  44
ATOM     44  N2   DA d         -26.202 -23.124  39.696  0.00  0.00    -0.234 N 
ATOM     45  H23  DA d         -26.960 -22.730  40.272  0.00  0.00     0.174 HD
ATOM     46  H24  DA d         -26.372 -23.351  38.706  0.00  0.00     0.174 HD
ENDBRANCH  40  44
ENDBRANCH  29  32
BRANCH  31  47
ATOM     47  O3'  DA d         -24.932 -22.077  46.942  0.00  0.00    -0.393 OA
ATOM     48  H17  DA d         -24.781 -22.751  47.594  0.00  0.00     0.210 HD
ENDBRANCH  31  47
ENDBRANCH  26  27
ENDBRANCH  25  26
ENDBRANCH   1  25
TORSDOF 12
