REMARK  12 active torsions:
REMARK  status: ('A' for Active; 'I' for Inactive)
REMARK    1  A    between atoms: C1_1  and  O1_2 
REMARK    2  A    between atoms: O1_2  and  S1_3 
REMARK    3  A    between atoms: C2_4  and  O12_17 
REMARK    4  A    between atoms: O12_17  and  S2_6 
REMARK    5  A    between atoms: C3_7  and  O13_18 
REMARK    6  A    between atoms: O13_18  and  S3_9 
REMARK    7  A    between atoms: C4_10  and  O14_19 
REMARK    8  A    between atoms: O14_19  and  S4_12 
REMARK    9  A    between atoms: C5_13  and  O15_20 
REMARK   10  A    between atoms: O15_20  and  S5_14 
REMARK   11  A    between atoms: C6_15  and  O16_21 
REMARK   12  A    between atoms: O16_21  and  S6_16 
ROOT
ATOM      1  C1  IHS d          -5.427  11.567  35.395  0.00  0.00     0.211 C 
ATOM      2  C2  IHS d          -6.225  10.500  34.673  0.00  0.00     0.211 C 
ATOM      3  C3  IHS d          -5.241   9.527  34.060  0.00  0.00     0.211 C 
ATOM      4  C4  IHS d          -3.913   9.327  34.757  0.00  0.00     0.211 C 
ATOM      5  C5  IHS d          -3.343  10.637  35.329  0.00  0.00     0.211 C 
ATOM      6  C6  IHS d          -4.347  11.126  36.357  0.00  0.00     0.211 C 
ENDROOT
BRANCH   1   7
ATOM      7  O1  IHS d          -6.286  12.439  35.996  0.00  0.00    -0.246 OA
BRANCH   7   8
ATOM      8  S1  IHS d          -6.346  13.846  35.436  0.00  0.00     0.252 S 
ATOM      9  O2  IHS d          -5.351  14.669  36.136  0.00  0.00    -0.572 OA
ATOM     10  O3  IHS d          -7.732  14.104  35.865  0.00  0.00    -0.572 OA
ATOM     11  O4  IHS d          -6.292  14.040  33.977  0.00  0.00    -0.572 OA
ENDBRANCH   7   8
ENDBRANCH   1   7
BRANCH   2  12
ATOM     12  O12 IHS d          -7.215   9.794  35.399  0.00  0.00    -0.246 OA
BRANCH  12  13
ATOM     13  S2  IHS d          -8.619  10.311  35.688  0.00  0.00     0.252 S 
ATOM     14  O22 IHS d          -8.555  11.022  36.994  0.00  0.00    -0.572 OA
ATOM     15  O32 IHS d          -9.109  11.283  34.716  0.00  0.00    -0.572 OA
ATOM     16  O42 IHS d          -9.447   9.124  35.871  0.00  0.00    -0.572 OA
ENDBRANCH  12  13
ENDBRANCH   2  12
BRANCH   6  17
ATOM     17  O16 IHS d          -3.801  12.271  37.000  0.00  0.00    -0.246 OA
BRANCH  17  18
ATOM     18  S6  IHS d          -3.577  12.448  38.514  0.00  0.00     0.252 S 
ATOM     19  O26 IHS d          -2.666  11.362  38.941  0.00  0.00    -0.572 OA
ATOM     20  O36 IHS d          -4.852  12.410  39.247  0.00  0.00    -0.572 OA
ATOM     21  O46 IHS d          -2.961  13.775  38.662  0.00  0.00    -0.572 OA
ENDBRANCH  17  18
ENDBRANCH   6  17
BRANCH   3  22
ATOM     22  O13 IHS d          -5.890   8.312  33.651  0.00  0.00    -0.246 OA
BRANCH  22  23
ATOM     23  S3  IHS d          -6.323   8.392  32.187  0.00  0.00     0.252 S 
ATOM     24  O23 IHS d          -6.845   7.060  31.827  0.00  0.00    -0.572 OA
ATOM     25  O33 IHS d          -5.122   8.834  31.409  0.00  0.00    -0.572 OA
ATOM     26  O43 IHS d          -7.276   9.462  31.938  0.00  0.00    -0.572 OA
ENDBRANCH  22  23
ENDBRANCH   3  22
BRANCH   5  27
ATOM     27  O15 IHS d          -2.042  10.511  35.882  0.00  0.00    -0.246 OA
BRANCH  27  28
ATOM     28  S5  IHS d          -0.848  11.249  35.276  0.00  0.00     0.252 S 
ATOM     29  O25 IHS d          -0.847  11.076  33.822  0.00  0.00    -0.572 OA
ATOM     30  O35 IHS d          -0.935  12.677  35.606  0.00  0.00    -0.572 OA
ATOM     31  O45 IHS d           0.393  10.675  35.829  0.00  0.00    -0.572 OA
ENDBRANCH  27  28
ENDBRANCH   5  27
BRANCH   4  32
ATOM     32  O14 IHS d          -3.140   8.975  33.645  0.00  0.00    -0.246 OA
BRANCH  32  33
ATOM     33  S4  IHS d          -2.391   7.671  33.689  0.00  0.00     0.252 S 
ATOM     34  O24 IHS d          -2.177   7.067  32.371  0.00  0.00    -0.572 OA
ATOM     35  O34 IHS d          -3.037   6.715  34.583  0.00  0.00    -0.572 OA
ATOM     36  O44 IHS d          -1.074   8.192  34.162  0.00  0.00    -0.572 OA
ENDBRANCH  32  33
ENDBRANCH   4  32
TORSDOF 12
