REMARK  5 active torsions:
REMARK  status: ('A' for Active; 'I' for Inactive)
REMARK    1  A    between atoms: C03_3  and  S11_11 
REMARK    2  A    between atoms: C06_6  and  C07_7 
REMARK       I    between atoms: C07_7  and  N09_9 
REMARK    3  A    between atoms: N09_9  and  C10_10 
REMARK    4  A    between atoms: C10_10  and  C15_15 
REMARK    5  A    between atoms: S11_11  and  NP2_12 
ROOT
ATOM      1  C07 F2B d          -4.203   5.677  13.674  0.00  0.00     0.251 C 
ATOM      2  O08 F2B d          -4.992   6.556  13.347  0.00  0.00    -0.268 OA
ATOM      3  N09 F2B d          -2.876   5.748  13.332  0.00  0.00    -0.353 N 
ATOM      4  H5  F2B d          -2.316   4.979  13.639  0.00  0.00     0.163 HD
ENDROOT
BRANCH   1   5
ATOM      5  C06 F2B d          -4.682   4.490  14.476  0.00  0.00     0.032 A 
ATOM      6  C01 F2B d          -3.776   3.484  14.843  0.00  0.00     0.018 A 
ATOM      7  C02 F2B d          -4.172   2.350  15.591  0.00  0.00     0.026 A 
ATOM      8  C03 F2B d          -5.547   2.244  15.971  0.00  0.00     0.079 A 
ATOM      9  C04 F2B d          -6.440   3.268  15.595  0.00  0.00     0.026 A 
ATOM     10  C05 F2B d          -5.996   4.374  14.856  0.00  0.00     0.018 A 
BRANCH   8  11
ATOM     11  S11 F2B d          -6.079   0.821  16.892  0.00  0.00     0.256 S 
ATOM     12  O14 F2B d          -5.422   1.002  18.193  0.00  0.00    -0.201 OA
ATOM     13  O13 F2B d          -7.513   1.066  17.018  0.00  0.00    -0.201 OA
BRANCH  11  14
ATOM     14  NP2 F2B d          -5.677  -0.587  16.083  0.00  0.00    -0.324 N 
ATOM     15  H8  F2B d          -5.912  -1.475  16.478  0.00  0.00     0.169 HD
ATOM     16  H9  F2B d          -5.202  -0.540  15.204  0.00  0.00     0.169 HD
ENDBRANCH  11  14
ENDBRANCH   8  11
ENDBRANCH   1   5
BRANCH   3  17
ATOM     17  C10 F2B d          -2.159   6.781  12.586  0.00  0.00     0.164 C 
BRANCH  17  18
ATOM     18  C15 F2B d          -1.602   7.857  13.363  0.00  0.00     0.001 A 
ATOM     19  C20 F2B d          -0.725   8.854  12.754  0.00  0.00     0.162 A 
ATOM     20  C19 F2B d          -0.179   9.923  13.556  0.00  0.00     0.155 A 
ATOM     21  F22 F2B d          -0.460   8.814  11.670  0.00  0.00    -0.202 F 
ATOM     22  C18 F2B d          -0.505   9.988  14.934  0.00  0.00     0.045 A 
ATOM     23  F21 F2B d           0.370  10.556  13.196  0.00  0.00    -0.203 F 
ATOM     24  C17 F2B d          -1.371   9.015  15.561  0.00  0.00     0.004 A 
ATOM     25  C16 F2B d          -1.925   7.934  14.760  0.00  0.00     0.012 A 
ENDBRANCH  17  18
ENDBRANCH   3  17
TORSDOF 5
