REMARK  12 active torsions:
REMARK  status: ('A' for Active; 'I' for Inactive)
REMARK    1  A    between atoms: C6_37  and  N6_2 
REMARK    2  A    between atoms: CBG_32  and  N9_4 
REMARK    3  A    between atoms: CAK_15  and  CBH_14 
REMARK    4  A    between atoms: CAI_16  and  CAK_15 
REMARK    5  A    between atoms: CAH_17  and  CAI_16 
REMARK    6  A    between atoms: CAJ_18  and  CAH_17 
REMARK    7  A    between atoms: CAZ_19  and  CAJ_18 
REMARK       I    between atoms: NAV_21  and  CAZ_19 
REMARK    8  A    between atoms: SBK_22  and  NAV_21 
REMARK    9  A    between atoms: NAW_25  and  SBK_22 
REMARK   10  A    between atoms: CAN_26  and  NAW_25 
REMARK   11  A    between atoms: CBE_27  and  CAN_26 
REMARK   12  A    between atoms: CAL_29  and  OAL_30 
ROOT
ATOM      1  NAW MOL d          -4.248  -3.485   7.015  0.00  0.00    -0.300 N 
ATOM      2  H20 MOL d          -5.181  -3.129   7.073  0.00  0.00     0.173 HD
ENDROOT
BRANCH   1   3
ATOM      3  SBK MOL d          -3.971  -4.879   6.276  0.00  0.00     0.321 S 
ATOM      4  OAD MOL d          -5.180  -5.253   5.589  0.00  0.00    -0.182 OA
ATOM      5  OAE MOL d          -2.892  -4.735   5.341  0.00  0.00    -0.182 OA
BRANCH   3   6
ATOM      6  NAV MOL d          -3.561  -5.970   7.387  0.00  0.00    -0.237 N 
ATOM      7  CAZ MOL d          -4.462  -6.397   8.268  0.00  0.00     0.232 C 
ATOM      8  OAB MOL d          -5.532  -5.844   8.394  0.00  0.00    -0.273 OA
ATOM      9  H19 MOL d          -2.627  -6.327   7.415  0.00  0.00     0.183 HD
BRANCH   7  10
ATOM     10  CAJ MOL d          -4.089  -7.586   9.146  0.00  0.00     0.104 C 
BRANCH  10  11
ATOM     11  CAH MOL d          -3.937  -7.137  10.594  0.00  0.00     0.009 C 
BRANCH  11  12
ATOM     12  CAI MOL d          -3.652  -8.293  11.550  0.00  0.00     0.002 C 
BRANCH  12  13
ATOM     13  CAK MOL d          -3.437  -7.809  12.975  0.00  0.00     0.017 C 
BRANCH  13  14
ATOM     14  CBH MOL d          -3.367  -8.992  13.937  0.00  0.00     0.072 C 
ATOM     15  CBI MOL d          -2.154  -9.910  13.748  0.00  0.00     0.123 A 
ATOM     16  NAU MOL d          -0.924  -9.175  13.497  0.00  0.00    -0.335 N 
ATOM     17  CBF MOL d          -1.844 -10.625  15.075  0.00  0.00     0.119 A 
ATOM     18  CBA MOL d          -0.013  -9.375  14.456  0.00  0.00     0.316 A 
ATOM     19  H5  MOL d          -0.777  -8.589  12.700  0.00  0.00     0.164 HD
ATOM     20  OAC MOL d           1.074  -8.802  14.529  0.00  0.00    -0.247 OA
ATOM     21  NAT MOL d          -0.467 -10.265  15.341  0.00  0.00    -0.336 N 
ATOM     22  H6  MOL d           0.076 -10.637  16.094  0.00  0.00     0.164 HD
ATOM     23  CAO MOL d          -2.738 -10.098  16.205  0.00  0.00     0.101 C 
ATOM     24  SAY MOL d          -3.263  -8.516  15.634  0.00  0.00    -0.160 SA
ENDBRANCH  13  14
ENDBRANCH  12  13
ENDBRANCH  11  12
ENDBRANCH  10  11
ENDBRANCH   7  10
ENDBRANCH   3   6
ENDBRANCH   1   3
BRANCH   1  25
ATOM     25  CAN MOL d          -3.150  -2.737   7.601  0.00  0.00     0.168 C 
BRANCH  25  26
ATOM     26  CBE MOL d          -3.569  -1.280   7.748  0.00  0.00     0.174 C 
ATOM     27  OAX MOL d          -4.671  -1.085   8.639  0.00  0.00    -0.354 OA
ATOM     28  CBG MOL d          -4.567   0.192   9.294  0.00  0.00     0.267 C 
ATOM     29  CAM MOL d          -3.247   0.793   8.829  0.00  0.00     0.250 C 
ATOM     30  CAL MOL d          -2.471  -0.398   8.310  0.00  0.00     0.187 C 
ATOM     31  F1  MOL d          -3.562   1.562   7.733  0.00  0.00    -0.242 F 
BRANCH  28  32
ATOM     32  N9  MOL d          -4.604  -0.071  10.740  0.00  0.00    -0.293 N 
ATOM     33  C4  MOL d          -5.738  -0.308  11.399  0.00  0.00     0.167 A 
ATOM     34  C5  MOL d          -5.414  -0.545  12.717  0.00  0.00     0.149 A 
ATOM     35  N3  MOL d          -7.024  -0.310  10.984  0.00  0.00    -0.222 NA
ATOM     36  N7  MOL d          -4.062  -0.471  12.825  0.00  0.00    -0.236 NA
ATOM     37  C6  MOL d          -6.445  -0.809  13.614  0.00  0.00     0.155 A 
ATOM     38  C8  MOL d          -3.568  -0.190  11.594  0.00  0.00     0.214 A 
ATOM     39  N1  MOL d          -7.720  -0.815  13.159  0.00  0.00    -0.222 NA
ATOM     40  C2  MOL d          -8.000  -0.571  11.871  0.00  0.00     0.237 A 
BRANCH  37  41
ATOM     41  N6  MOL d          -6.195  -1.064  14.922  0.00  0.00    -0.382 N 
ATOM     42  H1  MOL d          -6.974  -1.257  15.567  0.00  0.00     0.157 HD
ATOM     43  H2  MOL d          -5.226  -1.065  15.270  0.00  0.00     0.157 HD
ENDBRANCH  37  41
ENDBRANCH  28  32
BRANCH  30  44
ATOM     44  OAL MOL d          -1.541  -0.051   7.274  0.00  0.00    -0.390 OA
ATOM     45  H25 MOL d          -1.997   0.418   6.585  0.00  0.00     0.210 HD
ENDBRANCH  30  44
ENDBRANCH  25  26
ENDBRANCH   1  25
TORSDOF 12
