REMARK  10 active torsions:
REMARK  status: ('A' for Active; 'I' for Inactive)
REMARK    1  A    between atoms: C3_3  and  O3_11 
REMARK    2  A    between atoms: O4_12  and  C4_4 
REMARK    3  A    between atoms: C5_5  and  C6_6 
REMARK    4  A    between atoms: C6_6  and  O6_14 
REMARK    5  A    between atoms: C1_15  and  O4_12 
REMARK    6  A    between atoms: N2_23  and  C2_16 
REMARK    7  A    between atoms: C3_17  and  O3_24 
REMARK    8  A    between atoms: C4_18  and  O4_25 
REMARK    9  A    between atoms: C5_19  and  C6_20 
REMARK   10  A    between atoms: C6_20  and  O6_27 
REMARK       I    between atoms: C7_21  and  N2_23 
ROOT
ATOM      1  C1  NGT d          28.781  73.323  -4.057  0.00  0.00     0.286 C 
ATOM      2  C2  NGT d          28.996  74.174  -5.329  0.00  0.00     0.170 C 
ATOM      3  C3  NGT d          28.951  73.296  -6.597  0.00  0.00     0.177 C 
ATOM      4  C4  NGT d          29.642  71.919  -6.463  0.00  0.00     0.180 C 
ATOM      5  C5  NGT d          29.406  71.272  -5.080  0.00  0.00     0.179 C 
ATOM      6  O5  NGT d          29.674  72.211  -4.050  0.00  0.00    -0.349 OA
ENDROOT
BRANCH   1   7
ATOM      7  O4  NGT d          29.035  74.234  -2.969  0.00  0.00    -0.348 OA
BRANCH   7   8
ATOM      8  C4  NGT d          28.280  73.985  -1.774  0.00  0.00     0.186 C 
ATOM      9  C3  NGT d          28.956  72.930  -0.828  0.00  0.00     0.178 C 
ATOM     10  C2  NGT d          28.397  72.949   0.614  0.00  0.00     0.179 C 
ATOM     11  C1  NGT d          28.289  74.435   1.054  0.00  0.00     0.216 C 
ATOM     12  N2  NGT d          29.489  72.409   1.418  0.00  0.00    -0.276 NA
ATOM     13  S1  NGT d          29.693  74.843   2.074  0.00  0.00    -0.081 SA
ATOM     14  O5  NGT d          27.751  75.424   0.144  0.00  0.00    -0.363 OA
ATOM     15  C7  NGT d          30.139  73.231   2.135  0.00  0.00     0.064 C 
ATOM     16  C8  NGT d          31.291  72.761   2.930  0.00  0.00     0.078 C 
ATOM     17  C5  NGT d          28.289  75.420  -1.174  0.00  0.00     0.178 C 
BRANCH   9  18
ATOM     18  O3  NGT d          29.059  71.587  -1.397  0.00  0.00    -0.391 OA
ATOM     19  H11 NGT d          29.578  71.620  -2.192  0.00  0.00     0.210 HD
ENDBRANCH   9  18
BRANCH  17  20
ATOM     20  C6  NGT d          27.555  76.521  -1.973  0.00  0.00     0.198 C 
BRANCH  20  21
ATOM     21  O6  NGT d          26.142  76.340  -1.865  0.00  0.00    -0.398 OA
ATOM     22  H12 NGT d          25.886  76.392  -0.952  0.00  0.00     0.209 HD
ENDBRANCH  20  21
ENDBRANCH  17  20
ENDBRANCH   7   8
ENDBRANCH   1   7
BRANCH   2  23
ATOM     23  N2  NGT d          28.116  75.369  -5.345  0.00  0.00    -0.349 N 
ATOM     24  C7  NGT d          28.557  76.661  -5.231  0.00  0.00     0.214 C 
ATOM     25  C8  NGT d          27.553  77.784  -5.235  0.00  0.00     0.117 C 
ATOM     26  O7  NGT d          29.722  77.013  -5.131  0.00  0.00    -0.274 OA
ATOM     27  H23 NGT d          27.132  75.221  -5.446  0.00  0.00     0.163 HD
ENDBRANCH   2  23
BRANCH   3  28
ATOM     28  O3  NGT d          29.663  73.968  -7.592  0.00  0.00    -0.391 OA
ATOM     29  H24 NGT d          29.617  73.474  -8.402  0.00  0.00     0.210 HD
ENDBRANCH   3  28
BRANCH   5  30
ATOM     30  C6  NGT d          30.173  69.978  -4.783  0.00  0.00     0.198 C 
BRANCH  30  31
ATOM     31  O6  NGT d          29.760  69.608  -3.487  0.00  0.00    -0.398 OA
ATOM     32  H26 NGT d          29.983  70.300  -2.875  0.00  0.00     0.209 HD
ENDBRANCH  30  31
ENDBRANCH   5  30
BRANCH   4  33
ATOM     33  O4  NGT d          29.154  71.102  -7.504  0.00  0.00    -0.390 OA
ATOM     34  H25 NGT d          29.314  71.526  -8.339  0.00  0.00     0.210 HD
ENDBRANCH   4  33
TORSDOF 10
