REMARK  5 active torsions:
REMARK  status: ('A' for Active; 'I' for Inactive)
REMARK    1  A    between atoms: O5_2  and  C6_3 
REMARK    2  A    between atoms: C6_3  and  C8_5 
REMARK    3  A    between atoms: C29_13  and  O1_14 
REMARK    4  A    between atoms: O1_14  and  C2_15 
REMARK    5  A    between atoms: C2_15  and  C4_17 
ROOT
ATOM      1  C8  COC d          23.938  -1.888  25.224  0.00  0.00     0.146 C 
ATOM      2  C10 COC d          22.522  -1.351  25.638  0.00  0.00     0.204 C 
ATOM      3  N12 COC d          21.538  -2.410  25.355  0.00  0.00    -0.065 N 
ATOM      4  C14 COC d          20.277  -2.252  26.122  0.00  0.00     0.270 C 
ATOM      5  C18 COC d          22.076  -0.098  24.853  0.00  0.00     0.036 C 
ATOM      6  C21 COC d          21.293  -0.693  23.653  0.00  0.00     0.035 C 
ATOM      7  C24 COC d          21.360  -2.218  23.907  0.00  0.00     0.191 C 
ATOM      8  C26 COC d          22.596  -2.868  23.208  0.00  0.00     0.066 C 
ATOM      9  C29 COC d          23.907  -2.218  23.697  0.00  0.00     0.149 C 
ATOM     10  H6  COC d          21.921  -3.321  25.554  0.00  0.00     0.280 HD
ENDROOT
BRANCH   9  11
ATOM     11  O1  COC d          25.057  -3.060  23.351  0.00  0.00    -0.311 OA
BRANCH  11  12
ATOM     12  C2  COC d          26.279  -2.485  23.234  0.00  0.00     0.293 C 
ATOM     13  O3  COC d          26.494  -1.316  23.450  0.00  0.00    -0.259 OA
BRANCH  12  14
ATOM     14  C4  COC d          27.334  -3.475  22.792  0.00  0.00     0.039 A 
ATOM     15  C5  COC d          28.694  -3.100  22.902  0.00  0.00     0.017 A 
ATOM     16  C7  COC d          29.699  -4.010  22.488  0.00  0.00     0.001 A 
ATOM     17  C9  COC d          29.365  -5.245  21.985  0.00  0.00     0.000 A 
ATOM     18  C11 COC d          28.032  -5.615  21.877  0.00  0.00     0.001 A 
ATOM     19  C13 COC d          27.010  -4.728  22.283  0.00  0.00     0.017 A 
ENDBRANCH  12  14
ENDBRANCH  11  12
ENDBRANCH   9  11
BRANCH   1  20
ATOM     20  C6  COC d          24.290  -3.086  26.116  0.00  0.00     0.267 C 
ATOM     21  O7  COC d          23.611  -4.037  26.370  0.00  0.00    -0.265 OA
BRANCH  20  22
ATOM     22  O5  COC d          25.539  -2.911  26.592  0.00  0.00    -0.326 OA
ATOM     23  C1  COC d          26.381  -4.080  26.743  0.00  0.00     0.213 C 
ENDBRANCH  20  22
ENDBRANCH   1  20
TORSDOF 5
