REMARK  9 active torsions:
REMARK  status: ('A' for Active; 'I' for Inactive)
REMARK    1  A    between atoms: C3_5  and  O2_1 
REMARK    2  A    between atoms: C25_27  and  O3_2 
REMARK    3  A    between atoms: C1_3  and  O1_30 
REMARK    4  A    between atoms: C7_9  and  C6_8 
REMARK    5  A    between atoms: C20_22  and  C17_19 
REMARK    6  A    between atoms: C22_24  and  C20_22 
REMARK    7  A    between atoms: C23_25  and  C22_24 
REMARK    8  A    between atoms: C24_26  and  C23_25 
REMARK    9  A    between atoms: C24_26  and  C25_27 
ROOT
ATOM      1  C7  VDX d          14.099  21.638  34.165  0.00  0.00     0.004 C 
ATOM      2  C8  VDX d          13.842  22.860  33.681  0.00  0.00    -0.075 C 
ATOM      3  C9  VDX d          14.192  23.306  32.270  0.00  0.00     0.034 C 
ATOM      4  C11 VDX d          12.874  23.678  31.558  0.00  0.00     0.005 C 
ATOM      5  C12 VDX d          12.028  24.667  32.405  0.00  0.00     0.010 C 
ATOM      6  C13 VDX d          11.740  24.192  33.856  0.00  0.00    -0.033 C 
ATOM      7  C14 VDX d          13.163  23.919  34.480  0.00  0.00     0.023 C 
ATOM      8  C15 VDX d          12.945  23.750  35.973  0.00  0.00     0.010 C 
ATOM      9  C16 VDX d          11.772  24.736  36.194  0.00  0.00     0.006 C 
ATOM     10  C17 VDX d          11.250  25.282  34.834  0.00  0.00    -0.002 C 
ATOM     11  C18 VDX d          10.841  22.917  33.890  0.00  0.00     0.016 C 
ENDROOT
BRANCH   1  12
ATOM     12  C6  VDX d          14.702  20.472  33.495  0.00  0.00     0.008 C 
ATOM     13  C5  VDX d          14.554  19.161  33.787  0.00  0.00    -0.048 C 
ATOM     14  C4  VDX d          15.364  18.164  33.005  0.00  0.00     0.071 C 
ATOM     15  C10 VDX d          13.612  18.575  34.762  0.00  0.00    -0.033 C 
ATOM     16  C3  VDX d          15.977  17.002  33.797  0.00  0.00     0.125 C 
ATOM     17  C2  VDX d          14.885  16.326  34.678  0.00  0.00     0.068 C 
ATOM     18  C1  VDX d          14.190  17.407  35.534  0.00  0.00     0.153 C 
ATOM     19  C19 VDX d          12.296  18.962  34.840  0.00  0.00     0.022 C 
BRANCH  16  20
ATOM     20  O2  VDX d          16.980  17.510  34.653  0.00  0.00    -0.395 OA
ATOM     21  H1  VDX d          17.657  17.927  34.133  0.00  0.00     0.210 HD
ENDBRANCH  16  20
BRANCH  18  22
ATOM     22  O1  VDX d          13.227  16.863  36.406  0.00  0.00    -0.391 OA
ATOM     23  H44 VDX d          13.607  16.133  36.880  0.00  0.00     0.210 HD
ENDBRANCH  18  22
ENDBRANCH   1  12
BRANCH  10  24
ATOM     24  C20 VDX d           9.723  25.538  34.911  0.00  0.00    -0.014 C 
ATOM     25  C21 VDX d           9.428  26.518  36.102  0.00  0.00     0.010 C 
BRANCH  24  26
ATOM     26  C22 VDX d           9.060  25.897  33.616  0.00  0.00     0.005 C 
BRANCH  26  27
ATOM     27  C23 VDX d           7.492  26.095  33.805  0.00  0.00     0.003 C 
BRANCH  27  28
ATOM     28  C24 VDX d           6.573  24.962  34.205  0.00  0.00     0.037 C 
BRANCH  28  29
ATOM     29  C25 VDX d           5.044  25.215  34.062  0.00  0.00     0.051 C 
ATOM     30  C26 VDX d           4.647  25.418  32.628  0.00  0.00     0.045 C 
ATOM     31  C27 VDX d           4.248  24.053  34.666  0.00  0.00     0.045 C 
BRANCH  29  32
ATOM     32  O3  VDX d           4.603  26.309  34.834  0.00  0.00    -0.391 OA
ATOM     33  H2  VDX d           3.667  26.423  34.714  0.00  0.00     0.210 HD
ENDBRANCH  29  32
ENDBRANCH  28  29
ENDBRANCH  27  28
ENDBRANCH  26  27
ENDBRANCH  24  26
ENDBRANCH  10  24
TORSDOF 9
