REMARK  12 active torsions:
REMARK  status: ('A' for Active; 'I' for Inactive)
REMARK    1  A    between atoms: CA_5  and  N_4 
REMARK    2  A    between atoms: C_6  and  CA_5 
REMARK    3  A    between atoms: CA_5  and  CB_8 
REMARK       I    between atoms: N_27  and  C_6 
REMARK    4  A    between atoms: CB_8  and  CG_9 
REMARK    5  A    between atoms: CZ_14  and  OH_15 
REMARK    6  A    between atoms: OH_15  and  P_16 
REMARK    7  A    between atoms: CA_29  and  N_27 
REMARK    8  A    between atoms: C_28  and  CA_29 
REMARK       I    between atoms: C_28  and  N_30 
REMARK    9  A    between atoms: N_30  and  CA_31 
REMARK   10  A    between atoms: CA_31  and  C_32 
REMARK   11  A    between atoms: CA_31  and  CB_34 
REMARK       I    between atoms: C_32  and  N_38 
REMARK   12  A    between atoms: CB_34  and  CG_35 
REMARK       I    between atoms: CG_35  and  ND2_37 
ROOT
ATOM      1  CAO ACT d          -8.211   3.442  -3.248  0.00  0.00     0.000 C 
ATOM      2  CAP ACT d          -7.392   3.414  -1.887  0.00  0.00     0.000 C 
ATOM      3  CAQ ACT d          -9.092   4.673  -3.354  0.00  0.00     0.003 C 
ATOM      4  CAR ACT d          -6.418   4.552  -1.596  0.00  0.00     0.003 C 
ATOM      5  CAS ACT d          -8.403   5.929  -3.925  0.00  0.00     0.041 C 
ATOM      6  CAT ACT d          -6.169   5.618  -2.691  0.00  0.00     0.041 C 
ATOM      7  CA  ACT d          -7.325   6.589  -3.047  0.00  0.00     0.114 C 
ENDROOT
BRANCH   7   8
ATOM      8  N   ACT d          -7.935   7.136  -1.833  0.00  0.00    -0.341 N 
ATOM      9  C   ACT d          -7.232   7.788  -0.892  0.00  0.00     0.241 C 
ATOM     10  O   ACT d          -6.044   8.095  -0.958  0.00  0.00    -0.271 OA
ATOM     11  H24 ACT d          -8.919   7.019  -1.698  0.00  0.00     0.163 HD
BRANCH   9  12
ATOM     12  CA  ACT d          -8.006   8.167   0.351  0.00  0.00     0.179 C 
BRANCH  12  13
ATOM     13  N   ACT d          -7.120   7.936   1.526  0.00  0.00    -0.359 N 
ATOM     14  C   ACT d          -7.582   7.145   2.538  0.00  0.00     0.148 C 
ATOM     15  O   ACT d          -8.773   6.560   2.577  0.00  0.00    -0.178 OA
ATOM     16  CH3 ACT d          -6.772   7.005   3.688  0.00  0.00     0.100 C 
ATOM     17  H4  ACT d          -6.211   8.350   1.572  0.00  0.00     0.162 HD
ENDBRANCH  12  13
BRANCH  12  18
ATOM     18  CB  ACT d          -8.370   9.655   0.257  0.00  0.00     0.073 C 
BRANCH  18  19
ATOM     19  CG  ACT d          -9.121  10.039   1.546  0.00  0.00    -0.056 A 
ATOM     20  CD1 ACT d         -10.519   9.900   1.664  0.00  0.00     0.010 A 
ATOM     21  CE1 ACT d         -11.198  10.202   2.870  0.00  0.00     0.038 A 
ATOM     22  CZ  ACT d         -10.419  10.681   3.939  0.00  0.00     0.082 A 
ATOM     23  CE2 ACT d          -9.039  10.776   3.794  0.00  0.00     0.038 A 
ATOM     24  CD2 ACT d          -8.364  10.492   2.600  0.00  0.00     0.010 A 
BRANCH  22  25
ATOM     25  OH  ACT d         -10.874  11.027   5.218  0.00  0.00    -0.240 OA
BRANCH  25  26
ATOM     26  P   ACT d         -12.352  10.682   5.698  0.00  0.00     0.427 P 
ATOM     27  O1P ACT d         -13.312  11.754   5.128  0.00  0.00    -0.617 OA
ATOM     28  O2P ACT d         -12.670   9.238   5.367  0.00  0.00    -0.617 OA
ATOM     29  O3P ACT d         -12.260  10.872   7.254  0.00  0.00    -0.617 OA
ENDBRANCH  25  26
ENDBRANCH  22  25
ENDBRANCH  18  19
ENDBRANCH  12  18
ENDBRANCH   9  12
ENDBRANCH   7   8
BRANCH   7  30
ATOM     30  C   ACT d          -6.709   7.691  -3.871  0.00  0.00     0.246 C 
ATOM     31  O   ACT d          -5.703   7.487  -4.635  0.00  0.00    -0.271 OA
ATOM     32  N   ACT d          -7.401   8.836  -3.831  0.00  0.00    -0.345 N 
ATOM     33  H25 ACT d          -8.231   8.881  -3.275  0.00  0.00     0.163 HD
BRANCH  32  34
ATOM     34  CA  ACT d          -6.986  10.011  -4.567  0.00  0.00     0.185 C 
BRANCH  34  35
ATOM     35  C   ACT d          -6.266  11.009  -3.672  0.00  0.00     0.238 C 
ATOM     36  O   ACT d          -6.195  12.167  -4.075  0.00  0.00    -0.271 OA
ATOM     37  N   ACT d          -5.732  10.594  -2.483  0.00  0.00    -0.368 N 
ATOM     38  H31 ACT d          -5.258  11.247  -1.893  0.00  0.00     0.159 HD
ATOM     39  H32 ACT d          -5.815   9.637  -2.204  0.00  0.00     0.159 HD
ENDBRANCH  34  35
BRANCH  34  40
ATOM     40  CB  ACT d          -8.200  10.641  -5.325  0.00  0.00     0.137 C 
BRANCH  40  41
ATOM     41  CG  ACT d          -9.247  11.275  -4.360  0.00  0.00     0.217 C 
ATOM     42  OD1 ACT d          -9.313  10.865  -3.178  0.00  0.00    -0.274 OA
ATOM     43  ND2 ACT d         -10.014  12.197  -4.887  0.00  0.00    -0.370 N 
ATOM     44  H29 ACT d         -10.709  12.649  -4.328  0.00  0.00     0.159 HD
ATOM     45  H30 ACT d          -9.904  12.449  -5.848  0.00  0.00     0.159 HD
ENDBRANCH  40  41
ENDBRANCH  34  40
ENDBRANCH  32  34
ENDBRANCH   7  30
TORSDOF 12
