REMARK  11 active torsions:
REMARK  status: ('A' for Active; 'I' for Inactive)
REMARK    1  A    between atoms: N_1  and  CA_2 
REMARK    2  A    between atoms: CA_2  and  C_3 
REMARK    3  A    between atoms: CA_2  and  CB_6 
REMARK    4  A    between atoms: CB_6  and  CG_7 
REMARK    5  A    between atoms: CG_7  and  SD_8 
REMARK    6  A    between atoms: SD_8  and  C5'_10 
REMARK    7  A    between atoms: C5'_10  and  C4'_11 
REMARK    8  A    between atoms: C3'_13  and  O3'_14 
REMARK    9  A    between atoms: C2'_15  and  O2'_16 
REMARK   10  A    between atoms: C1'_17  and  N9_18 
REMARK   11  A    between atoms: C6_22  and  N6_23 
ROOT
ATOM      1  C4' SAM d          -4.455   3.136 -21.382  0.00  0.00     0.164 C 
ATOM      2  O4' SAM d          -3.326   2.309 -21.576  0.00  0.00    -0.355 OA
ATOM      3  C3' SAM d          -5.337   2.962 -22.615  0.00  0.00     0.180 C 
ATOM      4  C2' SAM d          -4.689   1.838 -23.418  0.00  0.00     0.198 C 
ATOM      5  C1' SAM d          -3.257   1.915 -22.936  0.00  0.00     0.262 C 
ENDROOT
BRANCH   1   6
ATOM      6  C5' SAM d          -5.160   2.736 -20.086  0.00  0.00     0.097 C 
BRANCH   6   7
ATOM      7  SD  SAM d          -6.341   3.972 -19.469  0.00  0.00    -0.221 SA
ATOM      8  CE  SAM d          -6.767   3.187 -17.878  0.00  0.00     0.078 C 
BRANCH   7   9
ATOM      9  CG  SAM d          -5.255   5.298 -18.847  0.00  0.00     0.065 C 
BRANCH   9  10
ATOM     10  CB  SAM d          -6.077   6.523 -18.453  0.00  0.00     0.053 C 
BRANCH  10  11
ATOM     11  CA  SAM d          -5.300   7.802 -18.118  0.00  0.00     0.284 C 
BRANCH  11  12
ATOM     12  N   SAM d          -4.018   7.548 -17.464  0.00  0.00    -0.065 N 
ATOM     13  H1  SAM d          -3.459   6.941 -18.044  0.00  0.00     0.275 HD
ATOM     14  H2  SAM d          -4.178   7.107 -16.572  0.00  0.00     0.275 HD
ATOM     15  H3  SAM d          -3.533   8.421 -17.325  0.00  0.00     0.275 HD
ENDBRANCH  11  12
BRANCH  11  16
ATOM     16  C   SAM d          -6.190   8.713 -17.291  0.00  0.00     0.204 C 
ATOM     17  O   SAM d          -7.165   9.271 -17.798  0.00  0.00    -0.646 OA
ATOM     18  OXT SAM d          -5.961   8.905 -16.100  0.00  0.00    -0.646 OA
ENDBRANCH  11  16
ENDBRANCH  10  11
ENDBRANCH   9  10
ENDBRANCH   7   9
ENDBRANCH   6   7
ENDBRANCH   1   6
BRANCH   3  19
ATOM     19  O3' SAM d          -5.306   4.142 -23.384  0.00  0.00    -0.390 OA
ATOM     20  H16 SAM d          -4.413   4.319 -23.655  0.00  0.00     0.210 HD
ENDBRANCH   3  19
BRANCH   5  21
ATOM     21  N9  SAM d          -2.568   0.628 -22.997  0.00  0.00    -0.294 N 
ATOM     22  C8  SAM d          -3.053  -0.612 -22.660  0.00  0.00     0.214 A 
ATOM     23  N7  SAM d          -2.057  -1.510 -22.841  0.00  0.00    -0.236 NA
ATOM     24  C5  SAM d          -0.956  -0.853 -23.278  0.00  0.00     0.149 A 
ATOM     25  C6  SAM d           0.321  -1.268 -23.613  0.00  0.00     0.155 A 
ATOM     26  C4  SAM d          -1.269   0.498 -23.367  0.00  0.00     0.167 A 
ATOM     27  N1  SAM d           1.236  -0.324 -24.028  0.00  0.00    -0.222 NA
ATOM     28  C2  SAM d           0.906   1.015 -24.111  0.00  0.00     0.237 A 
ATOM     29  N3  SAM d          -0.365   1.423 -23.778  0.00  0.00    -0.222 NA
BRANCH  25  30
ATOM     30  N6  SAM d           0.667  -2.555 -23.542  0.00  0.00    -0.382 N 
ATOM     31  H21 SAM d           1.622  -2.846 -23.795  0.00  0.00     0.157 HD
ATOM     32  H22 SAM d          -0.021  -3.257 -23.234  0.00  0.00     0.157 HD
ENDBRANCH  25  30
ENDBRANCH   5  21
BRANCH   4  33
ATOM     33  O2' SAM d          -4.760   2.013 -24.819  0.00  0.00    -0.388 OA
ATOM     34  H18 SAM d          -4.318   2.819 -25.059  0.00  0.00     0.210 HD
ENDBRANCH   4  33
TORSDOF 11
