REMARK  25 active torsions:
REMARK  status: ('A' for Active; 'I' for Inactive)
REMARK    1  A    between atoms: N_1  and  CA_2 
REMARK    2  A    between atoms: CA_2  and  C_3 
REMARK    3  A    between atoms: CA_2  and  CB_5 
REMARK       I    between atoms: C_3  and  N_12 
REMARK    4  A    between atoms: CB_5  and  CG_6 
REMARK    5  A    between atoms: N_12  and  CA_13 
REMARK    6  A    between atoms: CA_13  and  C_14 
REMARK       I    between atoms: C_14  and  N_17 
REMARK    7  A    between atoms: CA_18  and  C_19 
REMARK       I    between atoms: C_19  and  N_24 
REMARK    8  A    between atoms: N_24  and  CA_25 
REMARK    9  A    between atoms: CA_25  and  C_26 
REMARK       I    between atoms: C_26  and  N_28 
REMARK   10  A    between atoms: N_28  and  CA_29 
REMARK   11  A    between atoms: CA_29  and  C_30 
REMARK   12  A    between atoms: CA_29  and  CB_32 
REMARK       I    between atoms: C_30  and  N_36 
REMARK   13  A    between atoms: CB_32  and  CG_33 
REMARK       I    between atoms: CG_33  and  ND2_35 
REMARK   14  A    between atoms: N_36  and  CA_37 
REMARK   15  A    between atoms: CA_37  and  C_38 
REMARK   16  A    between atoms: CA_37  and  CB_40 
REMARK       I    between atoms: C_38  and  N_48 
REMARK   17  A    between atoms: CB_40  and  CG_41 
REMARK   18  A    between atoms: CZ_46  and  OH_47 
REMARK   19  A    between atoms: CA_49  and  C_50 
REMARK       I    between atoms: C_50  and  N_55 
REMARK   20  A    between atoms: N_55  and  CA_56 
REMARK   21  A    between atoms: CA_56  and  C_57 
REMARK       I    between atoms: C_57  and  N_60 
REMARK   22  A    between atoms: N_60  and  CA_61 
REMARK   23  A    between atoms: CA_61  and  C_62 
REMARK   24  A    between atoms: CA_61  and  CB_64 
REMARK   25  A    between atoms: CB_64  and  CG_65 
ROOT
ATOM      1  C   PHE d          60.258  25.689  -5.771  0.00  0.00     0.241 C 
ATOM      2  O   PHE d          60.023  24.539  -6.135  0.00  0.00    -0.271 OA
ATOM      3  N   PHE d          59.569  26.749  -6.184  0.00  0.00    -0.346 N 
ATOM      4  H33 PHE d          59.692  27.618  -5.704  0.00  0.00     0.163 HD
ENDROOT
BRANCH   3   5
ATOM      5  CA  PHE d          58.647  26.696  -7.302  0.00  0.00     0.181 C 
BRANCH   5   6
ATOM      6  C   PHE d          59.298  27.520  -8.424  0.00  0.00     0.243 C 
ATOM      7  O   PHE d          59.430  28.739  -8.295  0.00  0.00    -0.271 OA
ATOM      8  N   PHE d          59.739  26.862  -9.513  0.00  0.00    -0.337 N 
ATOM      9  CA  PHE d          60.458  27.621 -10.548  0.00  0.00     0.179 C 
ATOM     10  CD  PHE d          59.594  25.437  -9.873  0.00  0.00     0.127 C 
ATOM     11  CB  PHE d          60.852  26.550 -11.570  0.00  0.00     0.037 C 
ATOM     12  CG  PHE d          59.908  25.418 -11.336  0.00  0.00     0.022 A 
BRANCH   9  13
ATOM     13  C   PHE d          59.595  28.706 -11.192  0.00  0.00     0.241 C 
ATOM     14  O   PHE d          58.389  28.526 -11.338  0.00  0.00    -0.271 OA
ATOM     15  N   PHE d          60.215  29.832 -11.540  0.00  0.00    -0.346 N 
ATOM     16  H49 PHE d          61.197  29.918 -11.374  0.00  0.00     0.163 HD
BRANCH  15  17
ATOM     17  CA  PHE d          59.501  30.941 -12.155  0.00  0.00     0.172 C 
ATOM     18  CB  PHE d          60.434  32.131 -12.366  0.00  0.00     0.042 C 
BRANCH  17  19
ATOM     19  C   PHE d          58.900  30.509 -13.485  0.00  0.00     0.240 C 
ATOM     20  O   PHE d          59.515  29.745 -14.239  0.00  0.00    -0.271 OA
ATOM     21  N   PHE d          57.700  31.012 -13.770  0.00  0.00    -0.344 N 
ATOM     22  H54 PHE d          57.280  31.654 -13.128  0.00  0.00     0.163 HD
BRANCH  21  23
ATOM     23  CA  PHE d          56.979  30.659 -14.984  0.00  0.00     0.190 C 
BRANCH  23  24
ATOM     24  C   PHE d          57.546  31.426 -16.164  0.00  0.00     0.197 C 
ATOM     25  O   PHE d          58.345  32.354 -15.979  0.00  0.00    -0.646 OA
ATOM     26  OXT PHE d          57.201  31.142 -17.320  0.00  0.00    -0.646 OA
ENDBRANCH  23  24
BRANCH  23  27
ATOM     27  CB  PHE d          55.495  30.995 -14.843  0.00  0.00     0.077 C 
BRANCH  27  28
ATOM     28  CG  PHE d          54.761  30.213 -13.777  0.00  0.00    -0.028 A 
ATOM     29  CD1 PHE d          55.296  29.554 -12.699  0.00  0.00     0.096 A 
ATOM     30  NE1 PHE d          54.294  28.982 -11.949  0.00  0.00    -0.365 N 
ATOM     31  CE2 PHE d          53.088  29.272 -12.530  0.00  0.00     0.042 A 
ATOM     32  H59 PHE d          54.429  28.427 -11.092  0.00  0.00     0.165 HD
ATOM     33  CD2 PHE d          53.346  30.050 -13.679  0.00  0.00    -0.002 A 
ATOM     34  CZ2 PHE d          51.796  28.914 -12.150  0.00  0.00     0.030 A 
ATOM     35  CE3 PHE d          52.269  30.482 -14.456  0.00  0.00     0.014 A 
ATOM     36  CZ3 PHE d          50.987  30.124 -14.075  0.00  0.00     0.001 A 
ATOM     37  CH2 PHE d          50.762  29.350 -12.931  0.00  0.00     0.002 A 
ENDBRANCH  27  28
ENDBRANCH  23  27
ENDBRANCH  21  23
ENDBRANCH  17  19
ENDBRANCH  15  17
ENDBRANCH   9  13
ENDBRANCH   5   6
BRANCH   5  38
ATOM     38  CB  PHE d          57.301  27.298  -6.905  0.00  0.00     0.073 C 
BRANCH  38  39
ATOM     39  CG  PHE d          56.531  26.516  -5.866  0.00  0.00    -0.056 A 
ATOM     40  CD1 PHE d          55.722  25.446  -6.231  0.00  0.00     0.010 A 
ATOM     41  CE1 PHE d          55.003  24.733  -5.288  0.00  0.00     0.037 A 
ATOM     42  CZ  PHE d          55.089  25.079  -3.955  0.00  0.00     0.065 A 
ATOM     43  CE2 PHE d          55.884  26.143  -3.563  0.00  0.00     0.037 A 
ATOM     44  CD2 PHE d          56.595  26.854  -4.518  0.00  0.00     0.010 A 
BRANCH  42  45
ATOM     45  OH  PHE d          54.375  24.359  -3.022  0.00  0.00    -0.361 OA
ATOM     46  H41 PHE d          53.888  23.671  -3.460  0.00  0.00     0.217 HD
ENDBRANCH  42  45
ENDBRANCH  38  39
ENDBRANCH   5  38
ENDBRANCH   3   5
BRANCH   1  47
ATOM     47  CA  PHE d          61.367  25.964  -4.775  0.00  0.00     0.185 C 
BRANCH  47  48
ATOM     48  N   PHE d          61.100  25.253  -3.536  0.00  0.00    -0.346 N 
ATOM     49  C   PHE d          61.457  25.753  -2.360  0.00  0.00     0.236 C 
ATOM     50  O   PHE d          62.116  26.784  -2.248  0.00  0.00    -0.272 OA
ATOM     51  H27 PHE d          60.637  24.367  -3.571  0.00  0.00     0.163 HD
BRANCH  49  52
ATOM     52  CA  PHE d          61.019  24.987  -1.131  0.00  0.00     0.225 C 
BRANCH  52  53
ATOM     53  N   PHE d          60.238  23.785  -1.421  0.00  0.00    -0.351 N 
ATOM     54  C   PHE d          58.919  23.719  -1.252  0.00  0.00     0.241 C 
ATOM     55  O   PHE d          58.220  24.674  -0.878  0.00  0.00    -0.271 OA
ATOM     56  H24 PHE d          60.717  22.976  -1.762  0.00  0.00     0.163 HD
BRANCH  54  57
ATOM     57  CA  PHE d          58.272  22.357  -1.516  0.00  0.00     0.179 C 
ATOM     58  N   PHE d          57.374  22.003  -0.422  0.00  0.00    -0.337 N 
ATOM     59  C   PHE d          57.841  21.972   0.841  0.00  0.00     0.243 C 
ATOM     60  CD  PHE d          56.018  21.666  -0.897  0.00  0.00     0.127 C 
ATOM     61  O   PHE d          59.040  22.019   1.113  0.00  0.00    -0.271 OA
ATOM     62  CG  PHE d          56.186  21.566  -2.388  0.00  0.00     0.022 A 
ATOM     63  CB  PHE d          57.343  22.434  -2.729  0.00  0.00     0.037 C 
BRANCH  59  64
ATOM     64  CA  PHE d          56.810  21.873   1.950  0.00  0.00     0.172 C 
ATOM     65  CB  PHE d          56.264  23.259   2.278  0.00  0.00     0.042 C 
BRANCH  64  66
ATOM     66  N   PHE d          57.358  21.243   3.146  0.00  0.00    -0.346 N 
ATOM     67  C   PHE d          57.614  19.937   3.201  0.00  0.00     0.249 C 
ATOM     68  O   PHE d          57.574  19.194   2.217  0.00  0.00    -0.271 OA
ATOM     69  H12 PHE d          57.547  21.808   3.949  0.00  0.00     0.163 HD
BRANCH  67  70
ATOM     70  CA  PHE d          57.922  19.381   4.581  0.00  0.00     0.278 C 
BRANCH  70  71
ATOM     71  N   PHE d          56.718  18.619   5.008  0.00  0.00    -0.066 N 
ATOM     72  H1  PHE d          56.875  18.228   5.924  0.00  0.00     0.275 HD
ATOM     73  H2  PHE d          56.541  17.875   4.351  0.00  0.00     0.275 HD
ATOM     74  H3  PHE d          55.922  19.237   5.038  0.00  0.00     0.275 HD
ENDBRANCH  70  71
BRANCH  70  75
ATOM     75  CB  PHE d          59.134  18.447   4.575  0.00  0.00     0.081 C 
BRANCH  75  76
ATOM     76  CG  PHE d          60.467  19.144   4.521  0.00  0.00    -0.056 A 
ATOM     77  CD1 PHE d          61.068  19.616   5.680  0.00  0.00     0.007 A 
ATOM     78  CE1 PHE d          62.313  20.230   5.638  0.00  0.00     0.001 A 
ATOM     79  CZ  PHE d          62.979  20.362   4.432  0.00  0.00     0.000 A 
ATOM     80  CE2 PHE d          62.400  19.883   3.270  0.00  0.00     0.001 A 
ATOM     81  CD2 PHE d          61.152  19.273   3.320  0.00  0.00     0.007 A 
ENDBRANCH  75  76
ENDBRANCH  70  75
ENDBRANCH  67  70
ENDBRANCH  64  66
ENDBRANCH  59  64
ENDBRANCH  54  57
ENDBRANCH  52  53
ENDBRANCH  49  52
ENDBRANCH  47  48
BRANCH  47  82
ATOM     82  CB  PHE d          62.707  25.538  -5.378  0.00  0.00     0.137 C 
BRANCH  82  83
ATOM     83  CG  PHE d          62.899  26.059  -6.793  0.00  0.00     0.217 A 
ATOM     84  OD1 PHE d          62.732  27.250  -7.057  0.00  0.00    -0.274 OA
ATOM     85  ND2 PHE d          63.240  25.165  -7.714  0.00  0.00    -0.370 N 
ATOM     86  H31 PHE d          63.380  25.452  -8.662  0.00  0.00     0.159 HD
ATOM     87  H32 PHE d          63.357  24.205  -7.460  0.00  0.00     0.159 HD
ENDBRANCH  82  83
ENDBRANCH  47  82
ENDBRANCH   1  47
TORSDOF 25
