4pge_ligand

Created by X-TOOL on Sun Nov 13 14:27:45 2016
137142  0  0  0  0  0  0  0  0999 V2000
   56.7180   18.6190    5.0080  N 0  3  0  4  0  4
   57.9220   19.3810    4.5810  C 0  0  0  2  0  4
   57.6140   19.9370    3.2010  C 0  0  0  1  0  3
   57.5740   19.1940    2.2170  O 0  0  0  1  0  1
   59.1340   18.4470    4.5750  C 0  0  0  3  0  4
   60.4670   19.1440    4.5210  C 0  0  0  1  0  3
   61.0680   19.6160    5.6800  C 0  0  0  2  0  3
   61.1520   19.2730    3.3200  C 0  0  0  2  0  3
   62.3130   20.2300    5.6380  C 0  0  0  2  0  3
   62.4000   19.8830    3.2700  C 0  0  0  2  0  3
   62.9790   20.3620    4.4320  C 0  0  0  2  0  3
   57.3580   21.2430    3.1460  N 0  0  0  2  0  3
   56.8100   21.8730    1.9500  C 0  0  0  2  0  4
   57.8410   21.9720    0.8410  C 0  0  0  1  0  3
   59.0400   22.0190    1.1130  O 0  0  0  1  0  1
   56.2640   23.2590    2.2780  C 0  0  0  4  0  4
   57.3740   22.0030   -0.4220  N 0  0  0  1  0  3
   58.2720   22.3570   -1.5160  C 0  0  0  2  0  4
   58.9190   23.7190   -1.2520  C 0  0  0  1  0  3
   58.2200   24.6740   -0.8780  O 0  0  0  1  0  1
   57.3430   22.4340   -2.7290  C 0  0  0  3  0  4
   56.1860   21.5660   -2.3880  C 0  0  0  3  0  4
   56.0180   21.6660   -0.8970  C 0  0  0  3  0  4
   60.2380   23.7850   -1.4210  N 0  0  0  2  0  3
   61.0190   24.9870   -1.1310  C 0  0  0  3  0  4
   61.4570   25.7530   -2.3600  C 0  0  0  1  0  3
   62.1160   26.7840   -2.2480  O 0  0  0  1  0  1
   61.1000   25.2530   -3.5360  N 0  0  0  2  0  3
   61.3670   25.9640   -4.7750  C 0  0  0  2  0  4
   60.2580   25.6890   -5.7710  C 0  0  0  1  0  3
   60.0230   24.5390   -6.1350  O 0  0  0  1  0  1
   62.7070   25.5380   -5.3780  C 0  0  0  3  0  4
   62.8990   26.0590   -6.7930  C 0  0  0  1  0  3
   62.7320   27.2500   -7.0570  O 0  0  0  1  0  1
   63.2400   25.1650   -7.7140  N 0  0  0  3  0  3
   59.5690   26.7490   -6.1840  N 0  0  0  2  0  3
   58.6470   26.6960   -7.3020  C 0  0  0  2  0  4
   59.2980   27.5200   -8.4240  C 0  0  0  1  0  3
   59.4300   28.7390   -8.2950  O 0  0  0  1  0  1
   57.3010   27.2980   -6.9050  C 0  0  0  3  0  4
   56.5310   26.5160   -5.8660  C 0  0  0  1  0  3
   55.7220   25.4460   -6.2310  C 0  0  0  2  0  3
   56.5950   26.8540   -4.5180  C 0  0  0  2  0  3
   55.0030   24.7330   -5.2880  C 0  0  0  2  0  3
   55.8840   26.1430   -3.5630  C 0  0  0  2  0  3
   55.0890   25.0790   -3.9550  C 0  0  0  1  0  3
   54.3750   24.3590   -3.0220  O 0  0  0  2  0  2
   59.7390   26.8620   -9.5130  N 0  0  0  1  0  3
   60.4580   27.6210  -10.5480  C 0  0  0  2  0  4
   59.5950   28.7060  -11.1920  C 0  0  0  1  0  3
   58.3890   28.5260  -11.3380  O 0  0  0  1  0  1
   60.8520   26.5500  -11.5700  C 0  0  0  3  0  4
   59.9080   25.4180  -11.3360  C 0  0  0  3  0  4
   59.5940   25.4370   -9.8730  C 0  0  0  3  0  4
   60.2150   29.8320  -11.5400  N 0  0  0  2  0  3
   59.5010   30.9410  -12.1550  C 0  0  0  2  0  4
   58.9000   30.5090  -13.4850  C 0  0  0  1  0  3
   59.5150   29.7450  -14.2390  O 0  0  0  1  0  1
   60.4340   32.1310  -12.3660  C 0  0  0  4  0  4
   57.7000   31.0120  -13.7700  N 0  0  0  2  0  3
   56.9790   30.6590  -14.9840  C 0  0  0  2  0  4
   57.5460   31.4260  -16.1640  C 0  5  0  1  0  3
   58.3450   32.3540  -15.9790  O 0  0  0  1  0  1
   55.4950   30.9950  -14.8430  C 0  0  0  3  0  4
   54.7610   30.2130  -13.7770  C 0  0  0  1  0  3
   55.2960   29.5540  -12.6990  C 0  0  0  2  0  3
   53.3460   30.0500  -13.6790  C 0  0  0  1  0  3
   54.2940   28.9820  -11.9490  N 0  0  0  2  0  3
   53.0880   29.2720  -12.5300  C 0  0  0  1  0  3
   52.2690   30.4820  -14.4560  C 0  0  0  2  0  3
   51.7960   28.9140  -12.1500  C 0  0  0  2  0  3
   50.9870   30.1240  -14.0750  C 0  0  0  2  0  3
   50.7620   29.3500  -12.9310  C 0  0  0  2  0  3
   57.2010   31.1420  -17.3200  O 0  0  0  1  0  1
   56.8749   18.2284    5.9239  H 0  0  0  1  0  1
   56.5408   17.8750    4.3514  H 0  0  0  1  0  1
   55.9224   19.2371    5.0382  H 0  0  0  1  0  1
   58.1127   20.2106    5.2777  H 0  0  0  1  0  1
   59.0555   17.7899    3.6963  H 0  0  0  1  0  1
   59.1024   17.8393    5.4913  H 0  0  0  1  0  1
   60.5588   19.5038    6.6304  H 0  0  0  1  0  1
   60.7068   18.8923    2.4079  H 0  0  0  1  0  1
   62.7631   20.6058    6.5497  H 0  0  0  1  0  1
   62.9183   19.9832    2.3232  H 0  0  0  1  0  1
   63.9516   20.8394    4.3977  H 0  0  0  1  0  1
   57.5472   21.8085    3.9487  H 0  0  0  1  0  1
   55.9786   21.2499    1.5887  H 0  0  0  1  0  1
   55.8557   23.7176    1.3653  H 0  0  0  1  0  1
   57.0748   23.8884    2.6734  H 0  0  0  1  0  1
   55.4677   23.1705    3.0317  H 0  0  0  1  0  1
   59.0506   21.5930   -1.6573  H 0  0  0  1  0  1
   57.8527   22.0614   -3.6298  H 0  0  0  1  0  1
   57.0123   23.4696   -2.8967  H 0  0  0  1  0  1
   56.3895   20.5254   -2.6807  H 0  0  0  1  0  1
   55.2787   21.9200   -2.8994  H 0  0  0  1  0  1
   55.3007   22.4574   -0.6339  H 0  0  0  1  0  1
   55.6793   20.7087   -0.4740  H 0  0  0  1  0  1
   60.7165   22.9757   -1.7618  H 0  0  0  1  0  1
   61.9181   24.6879   -0.5723  H 0  0  0  1  0  1
   60.4058   25.6551   -0.5084  H 0  0  0  1  0  1
   60.6370   24.3673   -3.5705  H 0  0  0  1  0  1
   61.4007   27.0428   -4.5630  H 0  0  0  1  0  1
   62.7520   24.4391   -5.3974  H 0  0  0  1  0  1
   63.5184   25.9272   -4.7455  H 0  0  0  1  0  1
   63.3795   25.4518   -8.6618  H 0  0  0  1  0  1
   63.3573   24.2050   -7.4597  H 0  0  0  1  0  1
   59.6917   27.6177   -5.7041  H 0  0  0  1  0  1
   58.5006   25.6558   -7.6285  H 0  0  0  1  0  1
   56.6787   27.3678   -7.8094  H 0  0  0  1  0  1
   57.4831   28.3069   -6.5064  H 0  0  0  1  0  1
   55.6531   25.1645   -7.2756  H 0  0  0  1  0  1
   57.2126   27.6893   -4.2082  H 0  0  0  1  0  1
   54.3742   23.9053   -5.5954  H 0  0  0  1  0  1
   55.9501   26.4182   -2.5166  H 0  0  0  1  0  1
   53.8879   23.6708   -3.4598  H 0  0  0  1  0  1
   61.3545   28.0922  -10.1187  H 0  0  0  1  0  1
   61.8905   26.2257  -11.4077  H 0  0  0  1  0  1
   60.7443   26.9363  -12.5943  H 0  0  0  1  0  1
   60.3797   24.4637  -11.6130  H 0  0  0  1  0  1
   58.9900   25.5580  -11.9255  H 0  0  0  1  0  1
   58.5687   25.0855   -9.6855  H 0  0  0  1  0  1
   60.3041   24.8139   -9.3095  H 0  0  0  1  0  1
   61.1974   29.9178  -11.3743  H 0  0  0  1  0  1
   58.6861   31.2485  -11.4832  H 0  0  0  1  0  1
   59.8756   32.9568  -12.8310  H 0  0  0  1  0  1
   61.2643   31.8339  -13.0235  H 0  0  0  1  0  1
   60.8342   32.4598  -11.3956  H 0  0  0  1  0  1
   57.2803   31.6538  -13.1282  H 0  0  0  1  0  1
   57.0896   29.5796  -15.1647  H 0  0  0  1  0  1
   55.0070   30.7965  -15.8086  H 0  0  0  1  0  1
   55.4088   32.0647  -14.6016  H 0  0  0  1  0  1
   56.3589   29.4926  -12.4702  H 0  0  0  1  0  1
   54.4287   28.4271  -11.0918  H 0  0  0  1  0  1
   52.4337   31.0863  -15.3408  H 0  0  0  1  0  1
   51.6172   28.3114  -11.2668  H 0  0  0  1  0  1
   50.1432   30.4488  -14.6730  H 0  0  0  1  0  1
   49.7455   29.0904  -12.6581  H 0  0  0  1  0  1
  1  2  1  0  0  2
  2  3  1  0  0  2
  2  5  1  0  0  2
  3  4  2  0  0  2
  3 12  1  0  0  2
  5  6  1  0  0  2
  6  7  4  0  0  1
  6  8  4  0  0  1
  7  9  4  0  0  1
  8 10  4  0  0  1
  9 11  4  0  0  1
 10 11  4  0  0  1
 12 13  1  0  0  2
 13 14  1  0  0  2
 13 16  1  0  0  2
 14 15  2  0  0  2
 14 17  1  0  0  2
 17 18  1  0  0  1
 17 23  1  0  0  1
 18 19  1  0  0  2
 18 21  1  0  0  1
 19 20  2  0  0  2
 19 24  1  0  0  2
 21 22  1  0  0  1
 22 23  1  0  0  1
 24 25  1  0  0  2
 25 26  1  0  0  2
 26 27  2  0  0  2
 26 28  1  0  0  2
 28 29  1  0  0  2
 29 30  1  0  0  2
 29 32  1  0  0  2
 30 31  2  0  0  2
 30 36  1  0  0  2
 32 33  1  0  0  2
 33 34  2  0  0  2
 33 35  1  0  0  2
 36 37  1  0  0  2
 37 38  1  0  0  2
 37 40  1  0  0  2
 38 39  2  0  0  2
 38 48  1  0  0  2
 40 41  1  0  0  2
 41 42  4  0  0  1
 41 43  4  0  0  1
 42 44  4  0  0  1
 43 45  4  0  0  1
 44 46  4  0  0  1
 45 46  4  0  0  1
 46 47  1  0  0  2
 48 49  1  0  0  1
 48 54  1  0  0  1
 49 50  1  0  0  2
 49 52  1  0  0  1
 50 51  2  0  0  2
 50 55  1  0  0  2
 52 53  1  0  0  1
 53 54  1  0  0  1
 55 56  1  0  0  2
 56 57  1  0  0  2
 56 59  1  0  0  2
 57 58  2  0  0  2
 57 60  1  0  0  2
 60 61  1  0  0  2
 61 62  1  0  0  2
 61 64  1  0  0  2
 62 63  2  0  0  2
 62 74  2  0  0  2
 64 65  1  0  0  2
 65 66  2  0  0  1
 65 67  1  0  0  1
 66 68  1  0  0  1
 67 69  4  0  0  1
 67 70  4  0  0  1
 68 69  1  0  0  1
 69 71  4  0  0  1
 70 72  4  0  0  1
 71 73  4  0  0  1
 72 73  4  0  0  1
  1 75  1  0  0  2
  1 76  1  0  0  2
  1 77  1  0  0  2
  2 78  1  0  0  2
  5 79  1  0  0  2
  5 80  1  0  0  2
  7 81  1  0  0  2
  8 82  1  0  0  2
  9 83  1  0  0  2
 10 84  1  0  0  2
 11 85  1  0  0  2
 12 86  1  0  0  2
 13 87  1  0  0  2
 16 88  1  0  0  2
 16 89  1  0  0  2
 16 90  1  0  0  2
 18 91  1  0  0  2
 21 92  1  0  0  2
 21 93  1  0  0  2
 22 94  1  0  0  2
 22 95  1  0  0  2
 23 96  1  0  0  2
 23 97  1  0  0  2
 24 98  1  0  0  2
 25 99  1  0  0  2
 25100  1  0  0  2
 28101  1  0  0  2
 29102  1  0  0  2
 32103  1  0  0  2
 32104  1  0  0  2
 35105  1  0  0  2
 35106  1  0  0  2
 36107  1  0  0  2
 37108  1  0  0  2
 40109  1  0  0  2
 40110  1  0  0  2
 42111  1  0  0  2
 43112  1  0  0  2
 44113  1  0  0  2
 45114  1  0  0  2
 47115  1  0  0  2
 49116  1  0  0  2
 52117  1  0  0  2
 52118  1  0  0  2
 53119  1  0  0  2
 53120  1  0  0  2
 54121  1  0  0  2
 54122  1  0  0  2
 55123  1  0  0  2
 56124  1  0  0  2
 59125  1  0  0  2
 59126  1  0  0  2
 59127  1  0  0  2
 60128  1  0  0  2
 61129  1  0  0  2
 64130  1  0  0  2
 64131  1  0  0  2
 66132  1  0  0  2
 68133  1  0  0  2
 70134  1  0  0  2
 71135  1  0  0  2
 72136  1  0  0  2
 73137  1  0  0  2
M  END
> <MOLECULAR_FORMULA>
C51H63N11O12

> <MOLECULAR_WEIGHT>
1021.6

> <NUM_HB_ATOMS>
21 

> <NUM_ROTOR>
22 

> <XLOGP2>
-0.91

$$$$
