REMARK  8 active torsions:
REMARK  status: ('A' for Active; 'I' for Inactive)
REMARK       I    between atoms: N1_3  and  C20_36 
REMARK    1  A    between atoms: C28_44  and  N1_3 
REMARK    2  A    between atoms: O1_4  and  C9_24 
REMARK    3  A    between atoms: C20_36  and  O1_4 
REMARK    4  A    between atoms: N3_10  and  S1_5 
REMARK    5  A    between atoms: S1_5  and  C23_39 
REMARK    6  A    between atoms: C2_6  and  C4_12 
REMARK       I    between atoms: C4_12  and  N3_10 
REMARK       I    between atoms: C35_51  and  N4_13 
REMARK    7  A    between atoms: C30_46  and  O8_23 
REMARK    8  A    between atoms: O8_23  and  C35_51 
ROOT
ATOM      1  C1  TSV d         -12.550  -6.133  17.114  0.00  0.00     0.053 A 
ATOM      2  C2  TSV d         -12.172  -6.575  15.702  0.00  0.00     0.122 A 
ATOM      3  N2  TSV d         -12.447  -7.954  15.384  0.00  0.00    -0.341 N 
ATOM      4  C3  TSV d         -13.460  -5.763  15.959  0.00  0.00     0.048 A 
ATOM      5  O3  TSV d         -15.566  -8.330  15.253  0.00  0.00    -0.271 OA
ATOM      6  C5  TSV d         -13.529  -4.312  15.576  0.00  0.00    -0.023 C 
ATOM      7  N5  TSV d         -14.911  -9.728  13.655  0.00  0.00    -0.334 N 
ATOM      8  O7  TSV d         -13.177  -7.478  13.305  0.00  0.00    -0.271 OA
ATOM      9  C10 TSV d         -14.458  -3.824  14.736  0.00  0.00    -0.030 C 
ATOM     10  C11 TSV d         -13.001  -8.285  14.225  0.00  0.00     0.241 C 
ATOM     11  C13 TSV d         -15.543  -4.656  14.082  0.00  0.00     0.027 C 
ATOM     12  C15 TSV d         -13.510  -9.691  14.112  0.00  0.00     0.181 C 
ATOM     13  C18 TSV d         -15.429  -4.661  12.567  0.00  0.00     0.004 C 
ATOM     14  C19 TSV d         -16.566  -5.461  11.905  0.00  0.00     0.000 C 
ATOM     15  C22 TSV d         -16.469  -6.971  12.144  0.00  0.00     0.002 C 
ATOM     16  C25 TSV d         -17.472  -7.444  13.199  0.00  0.00     0.035 C 
ATOM     17  C27 TSV d         -12.790 -10.465  13.026  0.00  0.00     0.069 C 
ATOM     18  C28 TSV d         -17.209  -8.875  13.644  0.00  0.00     0.179 C 
ATOM     19  C30 TSV d         -13.810 -11.443  12.521  0.00  0.00     0.154 C 
ATOM     20  C33 TSV d         -15.826  -8.967  14.249  0.00  0.00     0.243 C 
ATOM     21  C34 TSV d         -15.099 -10.668  12.528  0.00  0.00     0.159 C 
ATOM     22  H4  TSV d         -12.218  -8.669  16.044  0.00  0.00     0.163 HD
ENDROOT
BRANCH  19  23
ATOM     23  O8  TSV d         -13.971 -12.493  13.461  0.00  0.00    -0.296 OA
BRANCH  23  24
ATOM     24  C35 TSV d         -13.081 -13.604  13.313  0.00  0.00     0.371 C 
ATOM     25  N4  TSV d         -13.128 -14.444  14.297  0.00  0.00    -0.278 N 
ATOM     26  C12 TSV d         -12.428 -15.737  14.269  0.00  0.00     0.114 A 
ATOM     27  C31 TSV d         -13.906 -14.225  15.517  0.00  0.00     0.117 A 
ATOM     28  C24 TSV d         -12.867 -16.342  15.548  0.00  0.00    -0.005 A 
ATOM     29  C16 TSV d         -12.526 -17.603  16.030  0.00  0.00     0.014 A 
ATOM     30  C26 TSV d         -13.690 -15.520  16.247  0.00  0.00     0.030 A 
ATOM     31  C14 TSV d         -13.048 -17.987  17.248  0.00  0.00     0.004 A 
ATOM     32  C17 TSV d         -13.896 -17.142  17.968  0.00  0.00     0.043 A 
ATOM     33  C21 TSV d         -14.218 -15.877  17.456  0.00  0.00     0.128 A 
ATOM     34  F1  TSV d         -15.024 -15.031  18.130  0.00  0.00    -0.205 F 
ATOM     35  O5  TSV d         -12.353 -13.719  12.332  0.00  0.00    -0.238 OA
ENDBRANCH  23  24
ENDBRANCH  19  23
BRANCH  18  36
ATOM     36  N1  TSV d         -18.188  -9.259  14.625  0.00  0.00    -0.324 N 
ATOM     37  C20 TSV d         -18.510 -10.526  14.846  0.00  0.00     0.362 C 
ATOM     38  O2  TSV d         -18.059 -11.496  14.233  0.00  0.00    -0.238 OA
ATOM     39  H3  TSV d         -18.642  -8.546  15.159  0.00  0.00     0.165 HD
BRANCH  37  40
ATOM     40  O1  TSV d         -19.459 -10.701  15.915  0.00  0.00    -0.294 OA
BRANCH  40  41
ATOM     41  C9  TSV d         -20.029 -11.955  16.301  0.00  0.00     0.061 C 
ATOM     42  C6  TSV d         -18.933 -12.926  16.720  0.00  0.00     0.046 C 
ATOM     43  C7  TSV d         -20.965 -11.653  17.468  0.00  0.00     0.046 C 
ATOM     44  C8  TSV d         -20.811 -12.524  15.121  0.00  0.00     0.046 C 
ENDBRANCH  40  41
ENDBRANCH  37  40
ENDBRANCH  18  36
BRANCH   2  45
ATOM     45  C4  TSV d         -10.951  -5.924  15.134  0.00  0.00     0.260 C 
ATOM     46  N3  TSV d         -10.168  -6.684  14.374  0.00  0.00    -0.252 N 
ATOM     47  H6  TSV d         -10.373  -7.653  14.234  0.00  0.00     0.181 HD
ATOM     48  O9  TSV d         -10.715  -4.761  15.362  0.00  0.00    -0.270 OA
BRANCH  46  49
ATOM     49  S1  TSV d          -8.906  -6.018  13.698  0.00  0.00     0.237 S 
ATOM     50  O4  TSV d          -7.975  -5.538  14.678  0.00  0.00    -0.205 OA
ATOM     51  O6  TSV d          -9.334  -4.984  12.775  0.00  0.00    -0.205 OA
BRANCH  49  52
ATOM     52  C23 TSV d          -8.226  -7.228  12.773  0.00  0.00     0.130 A 
ATOM     53  C29 TSV d          -6.795  -6.993  12.300  0.00  0.00     0.023 A 
ATOM     54  C32 TSV d          -7.063  -8.017  13.381  0.00  0.00     0.023 A 
ENDBRANCH  49  52
ENDBRANCH  46  49
ENDBRANCH   2  45
TORSDOF 8
