REMARK  5 active torsions:
REMARK  status: ('A' for Active; 'I' for Inactive)
REMARK    1  A    between atoms: C2_2  and  O2_3 
REMARK    2  A    between atoms: C3_4  and  O3_5 
REMARK    3  A    between atoms: C4_6  and  O4_7 
REMARK    4  A    between atoms: C5_8  and  C6_10 
REMARK    5  A    between atoms: C6_10  and  O6_11 
ROOT
ATOM      1  C1  NOJ d          10.835  43.917  82.576  0.00  0.00     0.267 C 
ATOM      2  C2  NOJ d          11.362  44.972  83.559  0.00  0.00     0.175 C 
ATOM      3  C3  NOJ d          12.283  44.390  84.669  0.00  0.00     0.179 C 
ATOM      4  C4  NOJ d          11.685  43.141  85.343  0.00  0.00     0.182 C 
ATOM      5  C5  NOJ d          11.280  42.095  84.297  0.00  0.00     0.240 C 
ATOM      6  N5  NOJ d          10.375  42.738  83.333  0.00  0.00    -0.064 N 
ATOM      7  H10 NOJ d          10.122  42.036  82.656  0.00  0.00     0.277 HD
ATOM      8  H11 NOJ d           9.555  43.021  83.846  0.00  0.00     0.277 HD
ENDROOT
BRANCH   5   9
ATOM      9  C6  NOJ d          10.743  40.768  84.818  0.00  0.00     0.199 C 
BRANCH   9  10
ATOM     10  O6  NOJ d           9.419  40.933  85.315  0.00  0.00    -0.399 OA
ATOM     11  H14 NOJ d           9.096  40.099  85.636  0.00  0.00     0.209 HD
ENDBRANCH   9  10
ENDBRANCH   5   9
BRANCH   4  12
ATOM     12  O4  NOJ d          12.726  42.681  86.196  0.00  0.00    -0.391 OA
ATOM     13  H8  NOJ d          12.942  43.360  86.825  0.00  0.00     0.210 HD
ENDBRANCH   4  12
BRANCH   3  14
ATOM     14  O3  NOJ d          12.571  45.387  85.688  0.00  0.00    -0.390 OA
ATOM     15  H6  NOJ d          13.134  45.006  86.352  0.00  0.00     0.210 HD
ENDBRANCH   3  14
BRANCH   2  16
ATOM     16  O2  NOJ d          11.969  46.044  82.808  0.00  0.00    -0.391 OA
ATOM     17  H4  NOJ d          12.299  46.703  83.408  0.00  0.00     0.210 HD
ENDBRANCH   2  16
TORSDOF 5
