REMARK  5 active torsions:
REMARK  status: ('A' for Active; 'I' for Inactive)
REMARK    1  A    between atoms: C9_2  and  C8_4 
REMARK    2  A    between atoms: C8_4  and  C7_5 
REMARK    3  A    between atoms: C7_5  and  C5_6 
REMARK    4  A    between atoms: C6_7  and  O2_8 
REMARK    5  A    between atoms: C1_16  and  N5_17 
ROOT
ATOM      1  C5  Z25 d         -12.950  25.792   7.156  0.00  0.00     0.091 A 
ATOM      2  C6  Z25 d         -13.496  26.618   6.135  0.00  0.00     0.110 A 
ATOM      3  C3  Z25 d         -14.371  25.990   5.153  0.00  0.00     0.104 A 
ATOM      4  C4  Z25 d         -14.993  26.673   4.093  0.00  0.00     0.210 A 
ATOM      5  O1  Z25 d         -14.748  28.010   3.919  0.00  0.00    -0.171 OA
ATOM      6  N4  Z25 d         -13.285  24.497   7.156  0.00  0.00    -0.150 NA
ATOM      7  N3  Z25 d         -14.105  23.917   6.266  0.00  0.00    -0.128 NA
ATOM      8  C2  Z25 d         -14.683  24.607   5.279  0.00  0.00     0.207 A 
ATOM      9  N2  Z25 d         -15.497  23.978   4.380  0.00  0.00    -0.042 NA
ATOM     10  C1  Z25 d         -16.020  24.675   3.355  0.00  0.00     0.702 A 
ATOM     11  N1  Z25 d         -15.827  26.016   3.233  0.00  0.00    -0.165 N 
ATOM     12  H8  Z25 d         -16.297  26.523   2.511  0.00  0.00     0.186 HD
ENDROOT
BRANCH   1  13
ATOM     13  C7  Z25 d         -12.080  26.306   8.293  0.00  0.00     0.074 C 
BRANCH  13  14
ATOM     14  C8  Z25 d         -12.759  26.687   9.581  0.00  0.00     0.119 C 
BRANCH  14  15
ATOM     15  C9  Z25 d         -13.109  28.159   9.735  0.00  0.00     0.172 C 
ATOM     16  O3  Z25 d         -14.274  28.595   9.407  0.00  0.00    -0.648 OA
ATOM     17  O4  Z25 d         -12.165  29.021   9.845  0.00  0.00    -0.648 OA
ENDBRANCH  14  15
ENDBRANCH  13  14
ENDBRANCH   1  13
BRANCH   2  18
ATOM     18  O2  Z25 d         -13.226  27.972   6.120  0.00  0.00    -0.357 OA
ATOM     19  H5  Z25 d         -13.664  28.373   5.378  0.00  0.00     0.217 HD
ENDBRANCH   2  18
BRANCH  10  20
ATOM     20  N5  Z25 d         -16.877  23.990   2.451  0.00  0.00    -0.233 N 
ATOM     21  H6  Z25 d         -17.021  22.975   2.547  0.00  0.00     0.174 HD
ATOM     22  H7  Z25 d         -17.354  24.509   1.700  0.00  0.00     0.174 HD
ENDBRANCH  10  20
TORSDOF 5
