REMARK  6 active torsions:
REMARK  status: ('A' for Active; 'I' for Inactive)
REMARK    1  A    between atoms: C6_3  and  NAT_15 
REMARK    2  A    between atoms: CAQ_10  and  CBG_7 
REMARK    3  A    between atoms: CAY_11  and  CAQ_10 
REMARK    4  A    between atoms: NAT_15  and  CBE_16 
REMARK    5  A    between atoms: NBF_21  and  CAP_22 
REMARK    6  A    between atoms: CAP_22  and  CAW_23 
ROOT
ATOM      1  CAW 3XY d          10.153  17.126  11.206  0.00  0.00    -0.032 A 
ATOM      2  CAI 3XY d           9.020  17.666  11.862  0.00  0.00     0.022 A 
ATOM      3  CBA 3XY d           9.107  18.834  12.568  0.00  0.00    -0.006 A 
ATOM      4  CAJ 3XY d           8.180  19.528  13.289  0.00  0.00     0.054 A 
ATOM      5  CAX 3XY d           8.807  20.595  13.818  0.00  0.00     0.115 A 
ATOM      6  CAE 3XY d           8.330  21.640  14.632  0.00  0.00     0.117 C 
ATOM      7  NAA 3XY d           7.923  22.452  15.280  0.00  0.00    -0.190 NA
ATOM      8  NAU 3XY d          10.068  20.572  13.484  0.00  0.00    -0.347 N 
ATOM      9  CBB 3XY d          10.264  19.493  12.705  0.00  0.00     0.043 A 
ATOM     10  CAH 3XY d          11.399  19.025  12.103  0.00  0.00     0.031 A 
ATOM     11  CAG 3XY d          11.361  17.867  11.319  0.00  0.00     0.011 A 
ATOM     12  H20 3XY d          10.784  21.256  13.766  0.00  0.00     0.167 HD
ENDROOT
BRANCH   1  13
ATOM     13  CAP 3XY d          10.069  15.907  10.381  0.00  0.00     0.273 C 
BRANCH  13  14
ATOM     14  NBF 3XY d          11.047  14.848  10.798  0.00  0.00    -0.067 N 
ATOM     15  CAO 3XY d          10.761  14.358  12.179  0.00  0.00     0.237 C 
ATOM     16  CAM 3XY d          11.809  13.280  12.499  0.00  0.00     0.053 C 
ATOM     17  CBE 3XY d          11.716  12.102  11.545  0.00  0.00     0.086 C 
ATOM     18  CAL 3XY d          11.825  12.526  10.059  0.00  0.00     0.053 C 
ATOM     19  CAN 3XY d          10.931  13.723   9.793  0.00  0.00     0.237 C 
ATOM     20  H15 3XY d          11.981  15.226  10.776  0.00  0.00     0.280 HD
BRANCH  17  21
ATOM     21  NAT 3XY d          12.846  11.207  11.920  0.00  0.00    -0.369 N 
ATOM     22  H5  3XY d          13.785  11.605  12.064  0.00  0.00     0.161 HD
BRANCH  21  23
ATOM     23  C6  3XY d          12.651   9.868  12.075  0.00  0.00     0.138 A 
ATOM     24  C5  3XY d          13.690   9.009  12.422  0.00  0.00     0.046 A 
ATOM     25  C4  3XY d          13.392   7.675  12.558  0.00  0.00     0.113 A 
ATOM     26  CAK 3XY d          14.999   9.264  12.695  0.00  0.00     0.033 A 
ATOM     27  N3  3XY d          12.149   7.161  12.330  0.00  0.00    -0.234 NA
ATOM     28  SAV 3XY d          14.787   6.771  13.074  0.00  0.00    -0.074 SA
ATOM     29  C2  3XY d          11.123   8.026  11.983  0.00  0.00     0.236 A 
ATOM     30  N1  3XY d          11.401   9.371  11.803  0.00  0.00    -0.224 NA
ATOM     31  CAY 3XY d          15.747   8.162  13.027  0.00  0.00    -0.006 A 
BRANCH  31  32
ATOM     32  CAQ 3XY d          17.225   8.203  13.370  0.00  0.00     0.163 C 
BRANCH  32  33
ATOM     33  CBG 3XY d          18.045   7.685  12.191  0.00  0.00     0.392 C 
ATOM     34  FAB 3XY d          19.338   7.706  12.458  0.00  0.00    -0.171 F 
ATOM     35  FAC 3XY d          17.697   6.422  11.929  0.00  0.00    -0.171 F 
ATOM     36  FAD 3XY d          17.825   8.417  11.128  0.00  0.00    -0.171 F 
ENDBRANCH  32  33
ENDBRANCH  31  32
ENDBRANCH  21  23
ENDBRANCH  17  21
ENDBRANCH  13  14
ENDBRANCH   1  13
TORSDOF 6
