REMARK  9 active torsions:
REMARK  status: ('A' for Active; 'I' for Inactive)
REMARK    1  A    between atoms: PA_1  and  O3A_4 
REMARK    2  A    between atoms: PA_1  and  O5'_5 
REMARK    3  A    between atoms: O3A_4  and  PB_6 
REMARK    4  A    between atoms: O5'_5  and  C5'_10 
REMARK    5  A    between atoms: C5'_10  and  C4'_11 
REMARK    6  A    between atoms: C3'_13  and  O3'_14 
REMARK    7  A    between atoms: C2'_15  and  O2'_16 
REMARK    8  A    between atoms: C1'_17  and  N9_18 
REMARK    9  A    between atoms: C2_26  and  N2_27 
ROOT
ATOM      1  C4' M7G d          -4.514 -21.283 -18.186  0.00  0.00     0.180 C 
ATOM      2  O4' M7G d          -5.748 -21.604 -17.559  0.00  0.00    -0.353 OA
ATOM      3  C3' M7G d          -3.814 -22.612 -18.478  0.00  0.00     0.182 C 
ATOM      4  C2' M7G d          -4.995 -23.468 -18.829  0.00  0.00     0.198 C 
ATOM      5  C1' M7G d          -6.045 -22.956 -17.874  0.00  0.00     0.262 C 
ENDROOT
BRANCH   5   6
ATOM      6  N9  M7G d          -7.415 -22.946 -18.365  0.00  0.00    -0.296 N 
ATOM      7  C8  M7G d          -7.689 -23.562 -19.661  0.00  0.00     0.190 A 
ATOM      8  N7  M7G d          -9.123 -23.265 -19.619  0.00  0.00    -0.340 N 
ATOM      9  CM7 M7G d          -9.819 -23.767 -20.840  0.00  0.00     0.157 C 
ATOM     10  C5  M7G d          -9.553 -22.614 -18.518  0.00  0.00     0.149 A 
ATOM     11  C6  M7G d         -10.840 -22.125 -18.016  0.00  0.00     0.290 A 
ATOM     12  C4  M7G d          -8.386 -22.393 -17.679  0.00  0.00     0.159 A 
ATOM     13  O6  M7G d         -11.875 -22.295 -18.694  0.00  0.00    -0.265 OA
ATOM     14  N1  M7G d         -10.817 -21.519 -16.801  0.00  0.00    -0.154 N 
ATOM     15  C2  M7G d          -9.680 -21.338 -16.071  0.00  0.00     0.680 A 
ATOM     16  H13 M7G d         -11.681 -21.188 -16.421  0.00  0.00     0.187 HD
ATOM     17  N3  M7G d          -8.493 -21.786 -16.478  0.00  0.00    -0.174 N 
ATOM     18  H16 M7G d          -7.662 -21.670 -15.880  0.00  0.00     0.186 HD
BRANCH  15  19
ATOM     19  N2  M7G d          -9.665 -20.740 -14.862  0.00  0.00    -0.234 N 
ATOM     20  H14 M7G d          -8.776 -20.629 -14.353  0.00  0.00     0.174 HD
ATOM     21  H15 M7G d         -10.542 -20.394 -14.448  0.00  0.00     0.174 HD
ENDBRANCH  15  19
ENDBRANCH   5   6
BRANCH   4  22
ATOM     22  O2' M7G d          -4.693 -24.811 -18.482  0.00  0.00    -0.388 OA
ATOM     23  H7  M7G d          -4.518 -24.864 -17.550  0.00  0.00     0.210 HD
ENDBRANCH   4  22
BRANCH   1  24
ATOM     24  C5' M7G d          -4.852 -20.528 -19.461  0.00  0.00     0.216 C 
BRANCH  24  25
ATOM     25  O5' M7G d          -6.028 -21.019 -20.108  0.00  0.00    -0.287 OA
BRANCH  25  26
ATOM     26  PA  M7G d          -6.082 -21.332 -21.696  0.00  0.00     0.418 P 
ATOM     27  O1A M7G d          -7.379 -22.097 -21.902  0.00  0.00    -0.624 OA
ATOM     28  O2A M7G d          -5.733 -20.201 -22.581  0.00  0.00    -0.624 OA
BRANCH  26  29
ATOM     29  O3A M7G d          -4.880 -22.419 -21.668  0.00  0.00    -0.173 OA
BRANCH  29  30
ATOM     30  PB  M7G d          -4.133 -23.260 -22.824  0.00  0.00     0.431 P 
ATOM     31  O1B M7G d          -4.432 -22.663 -24.184  0.00  0.00    -0.616 OA
ATOM     32  O2B M7G d          -2.689 -23.120 -22.491  0.00  0.00    -0.616 OA
ATOM     33  O3B M7G d          -4.672 -24.659 -22.653  0.00  0.00    -0.616 OA
ENDBRANCH  29  30
ENDBRANCH  26  29
ENDBRANCH  25  26
ENDBRANCH  24  25
ENDBRANCH   1  24
BRANCH   3  34
ATOM     34  O3' M7G d          -3.196 -23.163 -17.283  0.00  0.00    -0.390 OA
ATOM     35  H5  M7G d          -2.771 -23.985 -17.498  0.00  0.00     0.210 HD
ENDBRANCH   3  34
TORSDOF 9
