REMARK  7 active torsions:
REMARK  status: ('A' for Active; 'I' for Inactive)
REMARK    1  A    between atoms: PA_1  and  O3A_4 
REMARK    2  A    between atoms: PA_1  and  O5'_9 
REMARK    3  A    between atoms: O3A_4  and  PB_5 
REMARK    4  A    between atoms: O5'_9  and  C5'_10 
REMARK    5  A    between atoms: C5'_10  and  C4'_11 
REMARK    6  A    between atoms: C3'_13  and  O3'_14 
REMARK    7  A    between atoms: C1'_16  and  N1_17 
ROOT
ATOM      1  C4' TYD d          10.412  23.968   1.073  0.00  0.00     0.177 C 
ATOM      2  O4' TYD d           9.641  23.732  -0.119  0.00  0.00    -0.356 OA
ATOM      3  C3' TYD d           9.410  24.110   2.224  0.00  0.00     0.153 C 
ATOM      4  C2' TYD d           8.158  23.473   1.624  0.00  0.00     0.088 C 
ATOM      5  C1' TYD d           8.271  24.023   0.202  0.00  0.00     0.235 C 
ENDROOT
BRANCH   1   6
ATOM      6  C5' TYD d          11.340  22.774   1.305  0.00  0.00     0.216 C 
BRANCH   6   7
ATOM      7  O5' TYD d          10.608  21.571   1.552  0.00  0.00    -0.287 OA
BRANCH   7   8
ATOM      8  PA  TYD d          11.386  20.280   2.118  0.00  0.00     0.418 P 
ATOM      9  O1A TYD d          12.333  19.782   1.096  0.00  0.00    -0.624 OA
ATOM     10  O2A TYD d          10.409  19.329   2.692  0.00  0.00    -0.624 OA
BRANCH   8  11
ATOM     11  O3A TYD d          12.266  20.918   3.305  0.00  0.00    -0.173 OA
BRANCH  11  12
ATOM     12  PB  TYD d          11.660  21.197   4.769  0.00  0.00     0.431 P 
ATOM     13  O1B TYD d          12.310  20.371   5.812  0.00  0.00    -0.616 OA
ATOM     14  O2B TYD d          11.843  22.777   5.019  0.00  0.00    -0.616 OA
ATOM     15  O3B TYD d          10.072  20.955   4.682  0.00  0.00    -0.616 OA
ENDBRANCH  11  12
ENDBRANCH   8  11
ENDBRANCH   7   8
ENDBRANCH   6   7
ENDBRANCH   1   6
BRANCH   3  16
ATOM     16  O3' TYD d           9.185  25.496   2.498  0.00  0.00    -0.393 OA
ATOM     17  H5  TYD d           8.564  25.580   3.212  0.00  0.00     0.210 HD
ENDBRANCH   3  16
BRANCH   5  18
ATOM     18  N1  TYD d           7.397  23.319  -0.765  0.00  0.00    -0.282 N 
ATOM     19  C2  TYD d           6.470  24.016  -1.549  0.00  0.00     0.331 A 
ATOM     20  O2  TYD d           6.350  25.234  -1.438  0.00  0.00    -0.246 OA
ATOM     21  N3  TYD d           5.705  23.326  -2.500  0.00  0.00    -0.275 N 
ATOM     22  C4  TYD d           5.875  21.950  -2.671  0.00  0.00     0.256 A 
ATOM     23  H9  TYD d           5.037  23.820  -3.057  0.00  0.00     0.173 HD
ATOM     24  O4  TYD d           5.234  21.353  -3.539  0.00  0.00    -0.267 OA
ATOM     25  C5  TYD d           6.796  21.258  -1.890  0.00  0.00     0.022 A 
ATOM     26  C5M TYD d           6.979  19.748  -2.065  0.00  0.00     0.056 C 
ATOM     27  C6  TYD d           7.550  21.936  -0.944  0.00  0.00     0.110 A 
ENDBRANCH   5  18
TORSDOF 7
