REMARK  5 active torsions:
REMARK  status: ('A' for Active; 'I' for Inactive)
REMARK    1  A    between atoms: N1_1  and  C1'_8 
REMARK    2  A    between atoms: C2'_9  and  O2'_10 
REMARK    3  A    between atoms: C3'_11  and  O3'_12 
REMARK    4  A    between atoms: C4'_13  and  C5'_15 
REMARK    5  A    between atoms: C5'_15  and  O5'_16 
ROOT
ATOM      1  C1' DHZ d          35.886  50.309   9.632  0.00  0.00     0.263 C 
ATOM      2  C2' DHZ d          35.829  51.729   9.230  0.00  0.00     0.198 C 
ATOM      3  C3' DHZ d          36.052  52.533  10.468  0.00  0.00     0.182 C 
ATOM      4  C4' DHZ d          35.479  51.522  11.605  0.00  0.00     0.179 C 
ATOM      5  O4' DHZ d          35.615  50.169  11.025  0.00  0.00    -0.353 OA
ENDROOT
BRANCH   1   6
ATOM      6  N1  DHZ d          35.303  48.928   9.009  0.00  0.00    -0.280 N 
ATOM      7  C2  DHZ d          36.215  48.043   8.440  0.00  0.00     0.324 C 
ATOM      8  O2  DHZ d          37.377  48.361   8.186  0.00  0.00    -0.247 OA
ATOM      9  N3  DHZ d          35.726  46.783   8.107  0.00  0.00    -0.339 N 
ATOM     10  C4  DHZ d          34.352  46.246   8.584  0.00  0.00     0.153 C 
ATOM     11  H1  DHZ d          36.291  46.193   7.530  0.00  0.00     0.164 HD
ATOM     12  C5  DHZ d          33.473  47.416   9.032  0.00  0.00     0.010 C 
ATOM     13  C6  DHZ d          33.994  48.644   9.256  0.00  0.00     0.096 C 
ENDBRANCH   1   6
BRANCH   2  14
ATOM     14  O2' DHZ d          36.694  51.952   8.085  0.00  0.00    -0.388 OA
ATOM     15  H8  DHZ d          37.587  51.726   8.316  0.00  0.00     0.210 HD
ENDBRANCH   2  14
BRANCH   3  16
ATOM     16  O3' DHZ d          37.451  52.654  10.553  0.00  0.00    -0.390 OA
ATOM     17  H10 DHZ d          37.777  53.095   9.777  0.00  0.00     0.210 HD
ENDBRANCH   3  16
BRANCH   4  18
ATOM     18  C5' DHZ d          34.069  51.592  11.988  0.00  0.00     0.198 C 
BRANCH  18  19
ATOM     19  O5' DHZ d          33.357  51.939  10.765  0.00  0.00    -0.398 OA
ATOM     20  H14 DHZ d          33.508  51.267  10.110  0.00  0.00     0.209 HD
ENDBRANCH  18  19
ENDBRANCH   4  18
TORSDOF 5
