REMARK  8 active torsions:
REMARK  status: ('A' for Active; 'I' for Inactive)
REMARK    1  A    between atoms: C1_1  and  N1_2 
REMARK    2  A    between atoms: C4_7  and  O3P_10 
REMARK    3  A    between atoms: O3P_10  and  P_11 
REMARK    4  A    between atoms: P_11  and  C7_14 
REMARK    5  A    between atoms: C7_14  and  C8_15 
REMARK    6  A    between atoms: C8_15  and  C9_16 
REMARK    7  A    between atoms: C9_16  and  C10_17 
REMARK    8  A    between atoms: C10_17  and  C11_18 
ROOT
ATOM      1  O3P NPE d          58.999  -8.568  11.452  0.00  0.00    -0.270 OA
ENDROOT
BRANCH   1   2
ATOM      2  C4  NPE d          58.220  -8.622  12.623  0.00  0.00     0.079 A 
ATOM      3  C3  NPE d          58.561  -9.575  13.602  0.00  0.00     0.040 A 
ATOM      4  C2  NPE d          57.769  -9.705  14.761  0.00  0.00     0.039 A 
ATOM      5  C1  NPE d          56.627  -8.876  14.951  0.00  0.00     0.103 A 
ATOM      6  C6  NPE d          56.294  -7.911  13.950  0.00  0.00     0.039 A 
ATOM      7  C5  NPE d          57.088  -7.790  12.792  0.00  0.00     0.040 A 
BRANCH   5   8
ATOM      8  N1  NPE d          55.822  -9.034  16.133  0.00  0.00    -0.116 N 
ATOM      9  O2N NPE d          56.228 -10.026  17.034  0.00  0.00    -0.532 OA
ATOM     10  O1N NPE d          54.728  -8.171  16.252  0.00  0.00    -0.532 OA
ENDBRANCH   5   8
ENDBRANCH   1   2
BRANCH   1  11
ATOM     11  P   NPE d          60.121  -7.601  11.120  0.00  0.00     0.254 P 
ATOM     12  O2P NPE d          59.922  -6.384  11.845  0.00  0.00    -0.646 OA
ATOM     13  O1P NPE d          60.015  -7.319   9.728  0.00  0.00    -0.646 OA
BRANCH  11  14
ATOM     14  C7  NPE d          61.685  -8.303  11.603  0.00  0.00     0.136 C 
BRANCH  14  15
ATOM     15  C8  NPE d          61.818  -9.705  11.030  0.00  0.00     0.013 C 
BRANCH  15  16
ATOM     16  C9  NPE d          63.258 -10.196  11.201  0.00  0.00     0.011 C 
BRANCH  16  17
ATOM     17  C10 NPE d          63.259 -11.666  11.624  0.00  0.00     0.113 C 
BRANCH  17  18
ATOM     18  C11 NPE d          64.700 -12.087  11.902  0.00  0.00     0.172 C 
ATOM     19  O2  NPE d          65.334 -12.273  10.720  0.00  0.00    -0.648 OA
ATOM     20  O1  NPE d          65.166 -12.223  12.996  0.00  0.00    -0.648 OA
ENDBRANCH  17  18
ENDBRANCH  16  17
ENDBRANCH  15  16
ENDBRANCH  14  15
ENDBRANCH  11  14
ENDBRANCH   1  11
TORSDOF 8
