REMARK  7 active torsions:
REMARK  status: ('A' for Active; 'I' for Inactive)
REMARK    1  A    between atoms: C9_4  and  N1_5 
REMARK    2  A    between atoms: C16_14  and  N15_15 
REMARK       I    between atoms: N15_15  and  C14_16 
REMARK    3  A    between atoms: C14_16  and  C22_18 
REMARK    4  A    between atoms: C22_18  and  N4_19 
REMARK    5  A    between atoms: C34_21  and  O33_22 
REMARK    6  A    between atoms: C6_24  and  N7_25 
REMARK       I    between atoms: N7_25  and  C5_26 
REMARK    7  A    between atoms: C5_26  and  C2_28 
ROOT
ATOM      1  C22 H25 d           8.545  66.084   2.228  0.00  0.00     0.337 C 
ENDROOT
BRANCH   1   2
ATOM      2  C14 H25 d           8.186  64.622   2.322  0.00  0.00     0.248 C 
ATOM      3  N15 H25 d           8.604  63.885   3.395  0.00  0.00    -0.323 N 
ATOM      4  H8  H25 d           9.170  64.287   4.114  0.00  0.00     0.169 HD
ATOM      5  O27 H25 d           7.499  64.137   1.405  0.00  0.00    -0.271 OA
BRANCH   3   6
ATOM      6  C16 H25 d           8.204  62.539   3.444  0.00  0.00     0.073 A 
ATOM      7  C17 H25 d           8.629  61.683   2.462  0.00  0.00     0.145 A 
ATOM      8  F3  H25 d           9.466  62.156   1.543  0.00  0.00    -0.204 F 
ATOM      9  C11 H25 d           8.222  60.356   2.423  0.00  0.00     0.074 A 
ATOM     10  C9  H25 d           7.374  59.827   3.400  0.00  0.00     0.045 A 
ATOM     11  C26 H25 d           6.928  60.693   4.408  0.00  0.00     0.032 A 
ATOM     12  C28 H25 d           7.358  62.029   4.431  0.00  0.00     0.035 A 
BRANCH  10  13
ATOM     13  N1  H25 d           6.912  58.507   3.349  0.00  0.00    -0.290 N 
ATOM     14  C21 H25 d           7.380  57.542   4.175  0.00  0.00     0.100 A 
ATOM     15  C29 H25 d           6.899  56.255   4.118  0.00  0.00     0.018 A 
ATOM     16  C30 H25 d           5.912  55.917   3.205  0.00  0.00     0.007 A 
ATOM     17  C23 H25 d           5.441  56.915   2.361  0.00  0.00     0.075 A 
ATOM     18  C8  H25 d           5.961  58.202   2.436  0.00  0.00     0.252 A 
ATOM     19  O25 H25 d           5.527  59.122   1.669  0.00  0.00    -0.268 OA
ENDBRANCH  10  13
ENDBRANCH   3   6
ENDBRANCH   1   2
BRANCH   1  20
ATOM     20  N4  H25 d           9.490  66.422   3.286  0.00  0.00    -0.058 N 
ATOM     21  C31 H25 d           9.578  67.877   3.558  0.00  0.00     0.269 C 
ATOM     22  C34 H25 d          10.937  67.987   4.249  0.00  0.00     0.168 C 
ATOM     23  C6  H25 d          11.781  66.870   3.642  0.00  0.00     0.141 C 
ATOM     24  C20 H25 d          10.825  65.964   2.895  0.00  0.00     0.263 C 
ATOM     25  H11 H25 d           9.205  65.952   4.131  0.00  0.00     0.280 HD
BRANCH  22  26
ATOM     26  O33 H25 d          11.586  69.228   3.932  0.00  0.00    -0.392 OA
ATOM     27  H15 H25 d          12.426  69.267   4.375  0.00  0.00     0.210 HD
ENDBRANCH  22  26
BRANCH  23  28
ATOM     28  N7  H25 d          12.490  66.169   4.727  0.00  0.00    -0.348 N 
ATOM     29  C5  H25 d          13.472  65.316   4.451  0.00  0.00     0.259 C 
ATOM     30  O24 H25 d          13.801  65.036   3.291  0.00  0.00    -0.267 OA
ATOM     31  H19 H25 d          12.231  66.336   5.678  0.00  0.00     0.163 HD
BRANCH  29  32
ATOM     32  C2  H25 d          14.207  64.685   5.592  0.00  0.00     0.074 A 
ATOM     33  C12 H25 d          14.163  64.964   6.975  0.00  0.00     0.027 A 
ATOM     34  C19 H25 d          15.034  64.124   7.674  0.00  0.00     0.033 A 
ATOM     35  C10 H25 d          15.694  63.296   6.800  0.00  0.00     0.075 A 
ATOM     36  S3  H25 d          15.307  63.428   5.133  0.00  0.00    -0.072 SA
ATOM     37 CL1  H25 d          16.901  62.040   7.264  0.00  0.00    -0.076 Cl
ENDBRANCH  29  32
ENDBRANCH  23  28
ENDBRANCH   1  20
TORSDOF 7
