REMARK  5 active torsions:
REMARK  status: ('A' for Active; 'I' for Inactive)
REMARK    1  A    between atoms: C1_1  and  O27_24 
REMARK    2  A    between atoms: C3_3  and  C24_21 
REMARK    3  A    between atoms: C6_6  and  C17_14 
REMARK    4  A    between atoms: C20_17  and  O21_18 
REMARK    5  A    between atoms: C24_21  and  O25_22 
ROOT
ATOM      1  C1  JJ3 d          -6.462   8.436  26.626  0.00  0.00     0.067 A 
ATOM      2  C2  JJ3 d          -5.723   8.309  25.419  0.00  0.00     0.048 A 
ATOM      3  C3  JJ3 d          -5.847   7.160  24.624  0.00  0.00     0.002 A 
ATOM      4  C4  JJ3 d          -6.734   6.098  25.024  0.00  0.00     0.085 A 
ATOM      5  O5  JJ3 d          -6.822   4.966  24.196  0.00  0.00    -0.340 OA
ATOM      6  C6  JJ3 d          -8.064   4.246  24.375  0.00  0.00     0.166 C 
ATOM      7  C8  JJ3 d          -8.313   3.866  25.876  0.00  0.00     0.028 C 
ATOM      8  C10 JJ3 d          -7.139   3.030  26.496  0.00  0.00     0.008 C 
ATOM      9  C11 JJ3 d          -7.082   3.456  27.987  0.00  0.00     0.001 C 
ATOM     10  C12 JJ3 d          -8.028   4.652  28.162  0.00  0.00     0.010 C 
ATOM     11  C13 JJ3 d          -8.440   5.143  26.740  0.00  0.00     0.028 C 
ATOM     12  C15 JJ3 d          -7.474   6.235  26.247  0.00  0.00    -0.017 A 
ATOM     13  C16 JJ3 d          -7.331   7.407  27.032  0.00  0.00     0.047 A 
ENDROOT
BRANCH   6  14
ATOM     14  C17 JJ3 d          -8.119   2.981  23.513  0.00  0.00    -0.028 A 
ATOM     15  C18 JJ3 d          -7.015   2.560  22.732  0.00  0.00     0.012 A 
ATOM     16  C19 JJ3 d          -7.112   1.384  21.955  0.00  0.00     0.037 A 
ATOM     17  C20 JJ3 d          -8.314   0.629  21.965  0.00  0.00     0.065 A 
ATOM     18  C22 JJ3 d          -9.402   1.051  22.738  0.00  0.00     0.037 A 
ATOM     19  C23 JJ3 d          -9.307   2.215  23.505  0.00  0.00     0.012 A 
BRANCH  17  20
ATOM     20  O21 JJ3 d          -8.426  -0.505  21.231  0.00  0.00    -0.361 OA
ATOM     21  H14 JJ3 d          -9.291  -0.878  21.356  0.00  0.00     0.217 HD
ENDBRANCH  17  20
ENDBRANCH   6  14
BRANCH   3  22
ATOM     22  C24 JJ3 d          -5.039   7.070  23.336  0.00  0.00     0.208 C 
BRANCH  22  23
ATOM     23  O25 JJ3 d          -5.912   6.801  22.224  0.00  0.00    -0.391 OA
ATOM     24  C26 JJ3 d          -6.014   8.004  21.460  0.00  0.00     0.201 C 
ENDBRANCH  22  23
ENDBRANCH   3  22
BRANCH   1  25
ATOM     25  O27 JJ3 d          -6.333   9.552  27.389  0.00  0.00    -0.361 OA
ATOM     26  H22 JJ3 d          -5.714  10.145  26.979  0.00  0.00     0.217 HD
ENDBRANCH   1  25
TORSDOF 5
