REMARK  4 active torsions:
REMARK  status: ('A' for Active; 'I' for Inactive)
REMARK    1  A    between atoms: C4_1  and  C7_4 
REMARK    2  A    between atoms: C1_9  and  C4_1 
REMARK    3  A    between atoms: C7_4  and  N9_10 
REMARK    4  A    between atoms: C8_5  and  O10_6 
ROOT
ATOM      1  C5  AEF d         -21.812  41.598  93.279  0.00  0.00     0.037 A 
ATOM      2  C6  AEF d         -21.914  39.319  94.116  0.00  0.00     0.037 A 
ATOM      3  C8  AEF d         -22.515  40.560  93.894  0.00  0.00     0.065 A 
ATOM      4  C3  AEF d         -20.595  39.118  93.717  0.00  0.00     0.010 A 
ATOM      5  C2  AEF d         -20.489  41.379  92.882  0.00  0.00     0.010 A 
ATOM      6  C1  AEF d         -19.875  40.140  93.103  0.00  0.00    -0.056 A 
ENDROOT
BRANCH   6   7
ATOM      7  C4  AEF d         -18.444  39.895  92.682  0.00  0.00     0.065 C 
BRANCH   7   8
ATOM      8  C7  AEF d         -17.616  39.377  93.871  0.00  0.00     0.234 C 
BRANCH   8   9
ATOM      9  N9  AEF d         -16.170  39.289  93.549  0.00  0.00    -0.079 N 
ATOM     10  H10 AEF d         -15.667  38.947  94.353  0.00  0.00     0.274 HD
ATOM     11  H11 AEF d         -15.825  40.203  93.301  0.00  0.00     0.274 HD
ATOM     12  H12 AEF d         -16.036  38.658  92.775  0.00  0.00     0.274 HD
ENDBRANCH   8   9
ENDBRANCH   7   8
ENDBRANCH   6   7
BRANCH   3  13
ATOM     13  O10 AEF d         -23.817  40.752  94.294  0.00  0.00    -0.361 OA
ATOM     14  H7  AEF d         -24.086  41.637  94.078  0.00  0.00     0.217 HD
ENDBRANCH   3  13
TORSDOF 4
