REMARK  1 active torsions:
REMARK  status: ('A' for Active; 'I' for Inactive)
REMARK    1  A    between atoms: C13_8  and  N15_10 
ROOT
ATOM      1  C2  K25 d          21.523   8.754  19.104  0.00  0.00     0.049 A 
ATOM      2  C3  K25 d          21.285   8.259  20.405  0.00  0.00     0.049 A 
ATOM      3  C4  K25 d          21.977   7.127  20.856  0.00  0.00     0.059 A 
ATOM      4  C5  K25 d          22.415   8.109  18.235  0.00  0.00     0.061 A 
ATOM      5  N6  K25 d          23.704   5.413  20.185  0.00  0.00    -0.186 N 
ATOM      6  C7  K25 d          23.151   6.984  18.700  0.00  0.00     0.123 A 
ATOM      7  C8  K25 d          22.890   6.518  19.986  0.00  0.00     0.099 A 
ATOM      8  C13 K25 d          24.347   5.196  19.014  0.00  0.00     0.703 C 
ATOM      9  N14 K25 d          24.109   6.216  18.167  0.00  0.00    -0.061 NA
ATOM     10 BR1  K25 d          20.467  10.203  18.473  0.00  0.00    -0.048 Br
ATOM     11 BR9  K25 d          19.981   9.058  21.558  0.00  0.00    -0.048 Br
ATOM     12 BR10 K25 d          21.852   6.412  22.621  0.00  0.00    -0.047 Br
ATOM     13 BR11 K25 d          22.925   8.869  16.574  0.00  0.00    -0.047 Br
ATOM     14  H1  K25 d          23.800   4.866  21.052  0.00  0.00     0.184 HD
ENDROOT
BRANCH   8  15
ATOM     15  N15 K25 d          25.279   4.162  18.904  0.00  0.00    -0.225 N 
ATOM     16  C16 K25 d          25.488   3.267  20.007  0.00  0.00     0.168 C 
ATOM     17  C17 K25 d          25.989   3.959  17.671  0.00  0.00     0.168 C 
ENDBRANCH   8  15
TORSDOF 1
