REMARK  16 active torsions:
REMARK  status: ('A' for Active; 'I' for Inactive)
REMARK       I    between atoms: C20_2  and  N4_3 
REMARK    1  A    between atoms: C20_2  and  C17_14 
REMARK    2  A    between atoms: N4_3  and  C31_4 
REMARK    3  A    between atoms: C35_12  and  O7_13 
REMARK       I    between atoms: N3_20  and  C16_21 
REMARK    4  A    between atoms: C16_21  and  C14_23 
REMARK    5  A    between atoms: C14_23  and  O1_24 
REMARK    6  A    between atoms: C14_23  and  C13_25 
REMARK    7  A    between atoms: C13_25  and  C15_26 
REMARK    8  A    between atoms: C13_25  and  N2_33 
REMARK    9  A    between atoms: C15_26  and  C22_27 
REMARK       I    between atoms: N2_33  and  C12_34 
REMARK   10  A    between atoms: C12_34  and  C21_36 
REMARK   11  A    between atoms: C21_36  and  C11_37 
REMARK   12  A    between atoms: C21_36  and  N1_42 
REMARK   13  A    between atoms: C11_37  and  S_38 
REMARK       I    between atoms: N1_42  and  C10_43 
REMARK   14  A    between atoms: C10_43  and  C9_45 
REMARK   15  A    between atoms: C9_45  and  O_46 
REMARK   16  A    between atoms: O_46  and  C5_47 
ROOT
ATOM      1  C13 MOL d          14.516 -20.585 -17.256  0.00  0.00     0.126 C 
ENDROOT
BRANCH   1   2
ATOM      2  C14 MOL d          14.383 -19.682 -18.476  0.00  0.00     0.233 C 
BRANCH   2   3
ATOM      3  C16 MOL d          13.095 -18.908 -18.415  0.00  0.00     0.252 C 
ATOM      4  N3  MOL d          12.051 -19.431 -19.076  0.00  0.00    -0.326 N 
ATOM      5  C17 MOL d          10.788 -18.690 -19.153  0.00  0.00     0.198 C 
ATOM      6  C19 MOL d          12.015 -20.725 -19.781  0.00  0.00     0.201 C 
ATOM      7  C18 MOL d           9.926 -19.240 -20.301  0.00  0.00     0.032 C 
ATOM      8  C29 MOL d          10.310 -18.552 -21.592  0.00  0.00     0.029 C 
ATOM      9  C30 MOL d           8.411 -19.110 -20.145  0.00  0.00     0.029 C 
ATOM     10  S1  MOL d          10.364 -20.929 -20.342  0.00  0.00    -0.137 SA
ATOM     11  O3  MOL d          13.046 -17.859 -17.783  0.00  0.00    -0.270 OA
BRANCH   5  12
ATOM     12  C20 MOL d          10.027 -18.722 -17.854  0.00  0.00     0.242 C 
ATOM     13  O4  MOL d          10.034 -19.724 -17.120  0.00  0.00    -0.271 OA
ATOM     14  N4  MOL d           9.372 -17.585 -17.596  0.00  0.00    -0.348 N 
ATOM     15  H1  MOL d           9.467 -16.814 -18.226  0.00  0.00     0.163 HD
BRANCH  14  16
ATOM     16  C31 MOL d           8.526 -17.441 -16.425  0.00  0.00     0.147 C 
ATOM     17  C32 MOL d           9.153 -16.835 -15.246  0.00  0.00    -0.027 A 
ATOM     18  C33 MOL d          10.416 -17.118 -14.736  0.00  0.00     0.010 A 
ATOM     19  C36 MOL d           8.295 -15.926 -14.678  0.00  0.00    -0.047 A 
ATOM     20  C34 MOL d          10.814 -16.418 -13.592  0.00  0.00     0.001 A 
ATOM     21  C38 MOL d           9.945 -15.473 -13.028  0.00  0.00     0.001 A 
ATOM     22  C37 MOL d           8.671 -15.212 -13.551  0.00  0.00     0.008 A 
ATOM     23  C39 MOL d           6.988 -15.810 -15.440  0.00  0.00     0.073 C 
ATOM     24  C35 MOL d           7.406 -16.444 -16.767  0.00  0.00     0.149 C 
BRANCH  24  25
ATOM     25  O7  MOL d           7.891 -15.388 -17.625  0.00  0.00    -0.393 OA
ATOM     26  H10 MOL d           8.158 -15.757 -18.459  0.00  0.00     0.210 HD
ENDBRANCH  24  25
ENDBRANCH  14  16
ENDBRANCH   5  12
ENDBRANCH   2   3
BRANCH   2  27
ATOM     27  O1  MOL d          15.498 -18.789 -18.570  0.00  0.00    -0.384 OA
ATOM     28  H21 MOL d          15.513 -18.222 -17.808  0.00  0.00     0.210 HD
ENDBRANCH   2  27
ENDBRANCH   1   2
BRANCH   1  29
ATOM     29  C15 MOL d          15.067 -19.819 -16.053  0.00  0.00     0.066 C 
BRANCH  29  30
ATOM     30  C22 MOL d          15.333 -20.810 -14.963  0.00  0.00    -0.056 A 
ATOM     31  C23 MOL d          16.658 -21.060 -14.597  0.00  0.00     0.007 A 
ATOM     32  C24 MOL d          16.931 -21.987 -13.594  0.00  0.00     0.001 A 
ATOM     33  C25 MOL d          15.877 -22.642 -12.957  0.00  0.00     0.000 A 
ATOM     34  C26 MOL d          14.553 -22.388 -13.325  0.00  0.00     0.001 A 
ATOM     35  C27 MOL d          14.267 -21.472 -14.337  0.00  0.00     0.007 A 
ENDBRANCH  29  30
ENDBRANCH   1  29
BRANCH   1  36
ATOM     36  N2  MOL d          15.501 -21.597 -17.644  0.00  0.00    -0.351 N 
ATOM     37  C12 MOL d          15.157 -22.816 -18.088  0.00  0.00     0.241 C 
ATOM     38  O5  MOL d          13.992 -23.192 -18.193  0.00  0.00    -0.271 OA
ATOM     39  H30 MOL d          16.472 -21.370 -17.575  0.00  0.00     0.163 HD
BRANCH  37  40
ATOM     40  C21 MOL d          16.324 -23.710 -18.445  0.00  0.00     0.190 C 
BRANCH  40  41
ATOM     41  C11 MOL d          15.944 -24.976 -19.237  0.00  0.00     0.174 C 
BRANCH  41  42
ATOM     42  S   MOL d          17.191 -25.679 -20.117  0.00  0.00     0.143 S 
ATOM     43  O8  MOL d          17.975 -24.680 -20.793  0.00  0.00    -0.228 OA
ATOM     44  C28 MOL d          18.146 -26.596 -19.098  0.00  0.00     0.161 C 
ATOM     45  O6  MOL d          16.647 -26.534 -21.119  0.00  0.00    -0.228 OA
ENDBRANCH  41  42
ENDBRANCH  40  41
BRANCH  40  46
ATOM     46  N1  MOL d          16.977 -24.151 -17.221  0.00  0.00    -0.345 N 
ATOM     47  C10 MOL d          18.254 -23.869 -16.985  0.00  0.00     0.242 C 
ATOM     48  O2  MOL d          18.952 -23.253 -17.765  0.00  0.00    -0.271 OA
ATOM     49  H37 MOL d          16.456 -24.675 -16.547  0.00  0.00     0.163 HD
BRANCH  47  50
ATOM     50  C9  MOL d          18.885 -24.362 -15.697  0.00  0.00     0.278 C 
BRANCH  50  51
ATOM     51  O   MOL d          17.929 -24.777 -14.725  0.00  0.00    -0.341 OA
BRANCH  51  52
ATOM     52  C5  MOL d          18.343 -25.160 -13.473  0.00  0.00     0.080 A 
ATOM     53  C2  MOL d          17.472 -25.834 -12.625  0.00  0.00     0.010 A 
ATOM     54  C1  MOL d          16.168 -26.138 -13.006  0.00  0.00     0.034 A 
ATOM     55  C3  MOL d          17.896 -26.219 -11.352  0.00  0.00    -0.006 A 
ATOM     56  C   MOL d          15.320 -26.824 -12.137  0.00  0.00     0.117 A 
ATOM     57  N   MOL d          15.764 -27.194 -10.923  0.00  0.00    -0.272 NA
ATOM     58  C4  MOL d          17.011 -26.907 -10.515  0.00  0.00     0.128 A 
ATOM     59  C8  MOL d          19.193 -25.925 -10.927  0.00  0.00     0.014 A 
ATOM     60  C7  MOL d          20.070 -25.234 -11.763  0.00  0.00     0.004 A 
ATOM     61  C6  MOL d          19.640 -24.856 -13.041  0.00  0.00     0.038 A 
ENDBRANCH  51  52
ENDBRANCH  50  51
ENDBRANCH  47  50
ENDBRANCH  40  46
ENDBRANCH  37  40
ENDBRANCH   1  36
TORSDOF 16
