REMARK  7 active torsions:
REMARK  status: ('A' for Active; 'I' for Inactive)
REMARK    1  A    between atoms: N2_2  and  C13_9 
REMARK    2  A    between atoms: C5_5  and  C8_6 
REMARK       I    between atoms: C8_6  and  N10_8 
REMARK    3  A    between atoms: C13_9  and  C14_10 
REMARK    4  A    between atoms: C13_9  and  C18_12 
REMARK    5  A    between atoms: C14_10  and  O15_11 
REMARK    6  A    between atoms: C18_12  and  C19_13 
REMARK    7  A    between atoms: C19_13  and  C22_14 
ROOT
ATOM      1  C13 FR2 d          50.566  56.543  21.829  0.00  0.00     0.114 C 
ENDROOT
BRANCH   1   2
ATOM      2  N2  FR2 d          50.603  55.079  22.027  0.00  0.00    -0.342 N 
ATOM      3  C1  FR2 d          50.434  54.083  20.994  0.00  0.00     0.129 A 
ATOM      4  C5  FR2 d          50.337  52.929  21.647  0.00  0.00     0.141 A 
ATOM      5  N4  FR2 d          50.469  53.194  23.056  0.00  0.00    -0.237 NA
ATOM      6  C3  FR2 d          50.622  54.461  23.189  0.00  0.00     0.210 A 
BRANCH   4   7
ATOM      7  C8  FR2 d          50.210  51.616  21.013  0.00  0.00     0.269 C 
ATOM      8  O9  FR2 d          50.087  51.486  19.781  0.00  0.00    -0.266 OA
ATOM      9  N10 FR2 d          50.123  50.541  21.781  0.00  0.00    -0.365 N 
ATOM     10  H3  FR2 d          50.036  49.636  21.366  0.00  0.00     0.159 HD
ATOM     11  H4  FR2 d          50.145  50.635  22.776  0.00  0.00     0.159 HD
ENDBRANCH   4   7
ENDBRANCH   1   2
BRANCH   1  12
ATOM     12  C14 FR2 d          51.981  57.074  21.457  0.00  0.00     0.189 C 
BRANCH  12  13
ATOM     13  O15 FR2 d          52.753  56.419  22.518  0.00  0.00    -0.399 OA
ATOM     14  H8  FR2 d          52.654  55.477  22.445  0.00  0.00     0.209 HD
ENDBRANCH  12  13
ENDBRANCH   1  12
BRANCH   1  15
ATOM     15  C18 FR2 d          49.541  57.063  20.824  0.00  0.00     0.032 C 
BRANCH  15  16
ATOM     16  C19 FR2 d          48.112  56.517  21.127  0.00  0.00     0.041 C 
BRANCH  16  17
ATOM     17  C22 FR2 d          47.020  57.154  20.277  0.00  0.00    -0.058 A 
ATOM     18  C25 FR2 d          45.719  56.714  20.433  0.00  0.00     0.007 A 
ATOM     19  C26 FR2 d          44.677  57.258  19.693  0.00  0.00     0.001 A 
ATOM     20  C27 FR2 d          44.951  58.231  18.720  0.00  0.00     0.000 A 
ATOM     21  C28 FR2 d          46.264  58.689  18.516  0.00  0.00     0.001 A 
ATOM     22  C29 FR2 d          47.269  58.139  19.339  0.00  0.00     0.007 A 
ENDBRANCH  16  17
ENDBRANCH  15  16
ENDBRANCH   1  15
TORSDOF 7
