REMARK  16 active torsions:
REMARK  status: ('A' for Active; 'I' for Inactive)
REMARK    1  A    between atoms: C5_7  and  N_1 
REMARK    2  A    between atoms: P_2  and  O3P_22 
REMARK    3  A    between atoms: O4P_23  and  P_2 
REMARK    4  A    between atoms: C1_3  and  C2_4 
REMARK    5  A    between atoms: O3P_22  and  C1_3 
REMARK    6  A    between atoms: C2_4  and  C3_5 
REMARK    7  A    between atoms: C3_5  and  C15_11 
REMARK    8  A    between atoms: C4_6  and  C5_7 
REMARK    9  A    between atoms: C4_6  and  O4P_23 
REMARK   10  A    between atoms: C15_11  and  C16_12 
REMARK   11  A    between atoms: C16_12  and  C17_13 
REMARK   12  A    between atoms: C17_13  and  C18_14 
REMARK   13  A    between atoms: C18_14  and  C19_15 
REMARK   14  A    between atoms: C19_15  and  C20_17 
REMARK   15  A    between atoms: C20_17  and  C21_18 
REMARK   16  A    between atoms: C21_18  and  C22_19 
ROOT
ATOM      1  C1  DPV d           4.588  18.067  11.520  0.00  0.00     0.181 C 
ENDROOT
BRANCH   1   2
ATOM      2  C2  DPV d           3.423  19.063  11.448  0.00  0.00     0.027 C 
BRANCH   2   3
ATOM      3  C3  DPV d           2.162  18.477  12.092  0.00  0.00     0.002 C 
BRANCH   3   4
ATOM      4  C15 DPV d           1.361  17.659  11.077  0.00  0.00     0.000 C 
BRANCH   4   5
ATOM      5  C16 DPV d           0.020  17.225  11.656  0.00  0.00     0.000 C 
BRANCH   5   6
ATOM      6  C17 DPV d          -0.350  15.837  11.146  0.00  0.00     0.000 C 
BRANCH   6   7
ATOM      7  C18 DPV d          -1.609  15.329  11.844  0.00  0.00     0.000 C 
BRANCH   7   8
ATOM      8  C19 DPV d          -2.317  14.288  10.973  0.00  0.00     0.000 C 
BRANCH   8   9
ATOM      9  C20 DPV d          -3.552  13.746  11.689  0.00  0.00     0.000 C 
BRANCH   9  10
ATOM     10  C21 DPV d          -4.173  12.592  10.908  0.00  0.00    -0.000 C 
BRANCH  10  11
ATOM     11  C22 DPV d          -5.309  13.092  10.019  0.00  0.00    -0.005 C 
ATOM     12  C23 DPV d          -5.434  12.218   8.775  0.00  0.00     0.005 C 
ENDBRANCH  10  11
ENDBRANCH   9  10
ENDBRANCH   8   9
ENDBRANCH   7   8
ENDBRANCH   6   7
ENDBRANCH   5   6
ENDBRANCH   4   5
ENDBRANCH   3   4
ENDBRANCH   2   3
ENDBRANCH   1   2
BRANCH   1  13
ATOM     13  O3P DPV d           5.043  17.789  10.176  0.00  0.00    -0.290 OA
BRANCH  13  14
ATOM     14  P   DPV d           5.403  16.262   9.716  0.00  0.00     0.408 P 
ATOM     15  O1P DPV d           4.129  15.498   9.524  0.00  0.00    -0.624 OA
ATOM     16  O2P DPV d           6.387  16.342   8.597  0.00  0.00    -0.624 OA
BRANCH  14  17
ATOM     17  O4P DPV d           6.196  15.659  11.005  0.00  0.00    -0.288 OA
BRANCH  17  18
ATOM     18  C4  DPV d           5.772  14.429  11.604  0.00  0.00     0.209 C 
BRANCH  18  19
ATOM     19  C5  DPV d           6.812  13.322  11.361  0.00  0.00     0.262 C 
BRANCH  19  20
ATOM     20  N   DPV d           6.472  12.072  12.075  0.00  0.00    -0.077 N 
ATOM     21  C6  DPV d           6.125  12.338  13.479  0.00  0.00     0.271 C 
ATOM     22  C7  DPV d           7.642  11.181  12.053  0.00  0.00     0.271 C 
ATOM     23  C8  DPV d           5.352  11.378  11.412  0.00  0.00     0.271 C 
ENDBRANCH  19  20
ENDBRANCH  18  19
ENDBRANCH  17  18
ENDBRANCH  14  17
ENDBRANCH  13  14
ENDBRANCH   1  13
TORSDOF 16
