REMARK  5 active torsions:
REMARK  status: ('A' for Active; 'I' for Inactive)
REMARK    1  A    between atoms: C1_3  and  C2_4 
REMARK    2  A    between atoms: C2_4  and  O2_5 
REMARK    3  A    between atoms: C2_4  and  C3_6 
REMARK    4  A    between atoms: C3_6  and  O3_7 
REMARK    5  A    between atoms: C3_6  and  C4_8 
ROOT
ATOM      1  C2  SRT d         -34.898 -24.511  -8.629  0.00  0.00     0.258 C 
ENDROOT
BRANCH   1   2
ATOM      2  C1  SRT d         -35.992 -23.495  -8.974  0.00  0.00     0.206 C 
ATOM      3  O1  SRT d         -35.597 -22.523  -9.573  0.00  0.00    -0.646 OA
ATOM      4  O11 SRT d         -37.168 -23.664  -8.705  0.00  0.00    -0.646 OA
ENDBRANCH   1   2
BRANCH   1   5
ATOM      5  O2  SRT d         -33.888 -23.969  -7.829  0.00  0.00    -0.382 OA
ATOM      6  H2  SRT d         -33.478 -23.244  -8.286  0.00  0.00     0.210 HD
ENDBRANCH   1   5
BRANCH   1   7
ATOM      7  C3  SRT d         -35.473 -25.843  -8.285  0.00  0.00     0.258 C 
BRANCH   7   8
ATOM      8  O3  SRT d         -35.634 -26.400  -9.548  0.00  0.00    -0.382 OA
ATOM      9  H4  SRT d         -34.789 -26.452  -9.980  0.00  0.00     0.210 HD
ENDBRANCH   7   8
BRANCH   7  10
ATOM     10  C4  SRT d         -34.591 -26.746  -7.463  0.00  0.00     0.206 C 
ATOM     11  O4  SRT d         -33.940 -27.602  -8.025  0.00  0.00    -0.646 OA
ATOM     12  O41 SRT d         -34.554 -26.584  -6.251  0.00  0.00    -0.646 OA
ENDBRANCH   7  10
ENDBRANCH   1   7
TORSDOF 5
