REMARK  7 active torsions:
REMARK  status: ('A' for Active; 'I' for Inactive)
REMARK       I    between atoms: N1_1  and  C12_25 
REMARK    1  A    between atoms: C2_2  and  C1_32 
REMARK       I    between atoms: C18_11  and  N3_3 
REMARK    2  A    between atoms: N3_3  and  C19_19 
REMARK    3  A    between atoms: N_30  and  C5_5 
REMARK    4  A    between atoms: C16_9  and  C18_11 
REMARK    5  A    between atoms: C22_16  and  O3_17 
REMARK    6  A    between atoms: C13_24  and  N2_23 
REMARK    7  A    between atoms: C12_25  and  C13_24 
ROOT
ATOM      1  C16 MOL d          48.563  15.886  10.189  0.00  0.00     0.105 C 
ATOM      2  C17 MOL d          49.155  17.266  10.524  0.00  0.00     0.249 C 
ATOM      3  C15 MOL d          47.423  16.277   9.210  0.00  0.00     0.043 C 
ATOM      4  C14 MOL d          47.421  17.786   9.061  0.00  0.00     0.236 C 
ATOM      5  N2  MOL d          48.834  18.148   9.343  0.00  0.00    -0.062 N 
ATOM      6  H   MOL d          49.403  17.910   8.546  0.00  0.00     0.280 HD
ENDROOT
BRANCH   5   7
ATOM      7  C13 MOL d          49.130  19.566   9.715  0.00  0.00     0.337 C 
BRANCH   7   8
ATOM      8  C12 MOL d          49.165  20.425   8.457  0.00  0.00     0.245 C 
ATOM      9  N1  MOL d          49.216  21.758   8.640  0.00  0.00    -0.348 N 
ATOM     10  C10 MOL d          49.098  22.711   7.545  0.00  0.00     0.145 C 
ATOM     11  C9  MOL d          49.034  22.506   9.880  0.00  0.00     0.145 C 
ATOM     12  C11 MOL d          47.683  23.208   7.487  0.00  0.00     0.143 C 
ATOM     13  N   MOL d          47.233  23.775   8.772  0.00  0.00    -0.378 N 
ATOM     14  C8  MOL d          47.599  22.977   9.955  0.00  0.00     0.143 C 
ATOM     15  O1  MOL d          49.096  19.921   7.339  0.00  0.00    -0.272 OA
BRANCH  13  16
ATOM     16  C5  MOL d          45.908  24.338   8.708  0.00  0.00     0.030 A 
ATOM     17  C4  MOL d          45.068  24.365   9.829  0.00  0.00     0.030 A 
ATOM     18  C3  MOL d          43.755  24.792   9.719  0.00  0.00     0.017 A 
ATOM     19  C2  MOL d          43.227  25.188   8.488  0.00  0.00     0.009 A 
ATOM     20  C7  MOL d          44.069  25.210   7.384  0.00  0.00     0.017 A 
ATOM     21  C6  MOL d          45.391  24.817   7.493  0.00  0.00     0.030 A 
BRANCH  19  22
ATOM     22  C1  MOL d          41.785  25.549   8.346  0.00  0.00     0.155 C 
ATOM     23  O   MOL d          41.316  25.818   7.238  0.00  0.00    -0.293 OA
ATOM     24  C   MOL d          40.906  25.547   9.551  0.00  0.00     0.096 C 
ENDBRANCH  19  22
ENDBRANCH  13  16
ENDBRANCH   7   8
ENDBRANCH   5   7
BRANCH   1  25
ATOM     25  C18 MOL d          49.530  14.968   9.488  0.00  0.00     0.228 C 
ATOM     26  N3  MOL d          49.029  13.750   9.204  0.00  0.00    -0.327 N 
ATOM     27  H   MOL d          48.064  13.618   9.432  0.00  0.00     0.169 HD
ATOM     28  O2  MOL d          50.676  15.322   9.212  0.00  0.00    -0.273 OA
BRANCH  26  29
ATOM     29  C19 MOL d          49.677  12.629   8.627  0.00  0.00     0.036 A 
ATOM     30  C20 MOL d          50.924  12.676   8.016  0.00  0.00     0.032 A 
ATOM     31  C21 MOL d          51.495  11.521   7.502  0.00  0.00     0.040 A 
ATOM     32  C22 MOL d          50.834  10.299   7.606  0.00  0.00     0.087 A 
ATOM     33  C23 MOL d          49.585  10.268   8.214  0.00  0.00     0.069 A 
ATOM     34 CL   MOL d          48.719   8.767   8.298  0.00  0.00    -0.081 Cl
ATOM     35  C24 MOL d          49.000  11.413   8.718  0.00  0.00     0.056 A 
BRANCH  32  36
ATOM     36  O3  MOL d          51.366   9.136   7.156  0.00  0.00    -0.359 OA
ATOM     37  H   MOL d          52.216   9.307   6.767  0.00  0.00     0.217 HD
ENDBRANCH  32  36
ENDBRANCH  26  29
ENDBRANCH   1  25
TORSDOF 7
