REMARK  5 active torsions:
REMARK  status: ('A' for Active; 'I' for Inactive)
REMARK    1  A    between atoms: N_1  and  CA_2 
REMARK    2  A    between atoms: CA_2  and  C_3 
REMARK    3  A    between atoms: CA_2  and  CB_5 
REMARK    4  A    between atoms: CB_5  and  CG_6 
REMARK    5  A    between atoms: CG_6  and  CD_7 
ROOT
ATOM      1  CA  GLU d           3.377  50.566  -7.690  0.00  0.00     0.283 C 
ENDROOT
BRANCH   1   2
ATOM      2  N   GLU d           3.667  49.132  -7.602  0.00  0.00    -0.065 N 
ATOM      3  H1  GLU d           4.604  48.958  -7.931  0.00  0.00     0.275 HD
ATOM      4  H2  GLU d           3.010  48.621  -8.171  0.00  0.00     0.275 HD
ATOM      5  H3  GLU d           3.587  48.831  -6.643  0.00  0.00     0.275 HD
ENDBRANCH   1   2
BRANCH   1   6
ATOM      6  C   GLU d           1.961  50.849  -7.195  0.00  0.00     0.204 C 
ATOM      7  O   GLU d           1.166  49.886  -7.041  0.00  0.00    -0.646 OA
ATOM      8  OXT GLU d           1.640  52.034  -6.943  0.00  0.00    -0.646 OA
ENDBRANCH   1   6
BRANCH   1   9
ATOM      9  CB  GLU d           3.530  51.111  -9.113  0.00  0.00     0.054 C 
BRANCH   9  10
ATOM     10  CG  GLU d           4.901  50.914  -9.770  0.00  0.00     0.116 C 
BRANCH  10  11
ATOM     11  CD  GLU d           6.041  51.747  -9.185  0.00  0.00     0.172 C 
ATOM     12  OE1 GLU d           5.773  52.601  -8.342  0.00  0.00    -0.648 OA
ATOM     13  OE2 GLU d           7.201  51.580  -9.646  0.00  0.00    -0.648 OA
ENDBRANCH  10  11
ENDBRANCH   9  10
ENDBRANCH   1   9
TORSDOF 5
