REMARK  10 active torsions:
REMARK  status: ('A' for Active; 'I' for Inactive)
REMARK    1  A    between atoms: C10_10  and  C19_19 
REMARK    2  A    between atoms: C11_11  and  C20_20 
REMARK    3  A    between atoms: C25_25  and  C12_12 
REMARK    4  A    between atoms: C26_26  and  C13_13 
REMARK    5  A    between atoms: C27_27  and  C14_14 
REMARK    6  A    between atoms: C17_17  and  O35_35 
REMARK    7  A    between atoms: C18_18  and  O36_36 
REMARK       I    between atoms: C19_19  and  N28_28 
REMARK    8  A    between atoms: N28_28  and  C25_25 
REMARK    9  A    between atoms: N29_29  and  C26_26 
REMARK   10  A    between atoms: C27_27  and  N29_29 
ROOT
ATOM      1  C8  FYM d          10.990  36.045  -4.015  0.00  0.00     0.057 A 
ATOM      2  C9  FYM d          13.163  35.109  -2.492  0.00  0.00     0.049 A 
ATOM      3  C10 FYM d          11.065  36.247  -2.650  0.00  0.00     0.042 A 
ATOM      4  C14 FYM d          12.127  35.793  -1.890  0.00  0.00    -0.014 A 
ATOM      5  C15 FYM d          12.035  35.361  -4.588  0.00  0.00     0.106 A 
ATOM      6  C16 FYM d          13.084  34.910  -3.851  0.00  0.00     0.105 A 
ATOM      7  C21 FYM d          13.374  34.305  -5.893  0.00  0.00     0.352 A 
ATOM      8  O33 FYM d          12.154  35.055  -5.922  0.00  0.00    -0.323 OA
ATOM      9  O34 FYM d          14.014  34.252  -4.611  0.00  0.00    -0.323 OA
ENDROOT
BRANCH   4  10
ATOM     10  C27 FYM d          12.166  36.038  -0.419  0.00  0.00     0.274 C 
BRANCH  10  11
ATOM     11  N29 FYM d          11.872  34.846   0.418  0.00  0.00    -0.067 N 
ATOM     12  C22 FYM d          12.495  35.040   1.753  0.00  0.00     0.270 C 
ATOM     13  H   FYM d          12.362  34.076  -0.011  0.00  0.00     0.280 HD
BRANCH  11  14
ATOM     14  C26 FYM d          10.434  34.419   0.446  0.00  0.00     0.274 C 
BRANCH  14  15
ATOM     15  C13 FYM d          10.254  33.348   1.476  0.00  0.00    -0.013 A 
ATOM     16  C2  FYM d           9.632  33.694   2.661  0.00  0.00     0.010 A 
ATOM     17  C1  FYM d           9.442  32.765   3.659  0.00  0.00     0.003 A 
ATOM     18  C5  FYM d           9.884  31.474   3.479  0.00  0.00     0.038 A 
ATOM     19  C18 FYM d          10.509  31.127   2.298  0.00  0.00     0.085 A 
ATOM     20  C11 FYM d          10.703  32.049   1.284  0.00  0.00     0.082 A 
BRANCH  19  21
ATOM     21  O36 FYM d          10.969  29.838   2.110  0.00  0.00    -0.355 OA
ATOM     22  C24 FYM d          10.918  29.130   3.341  0.00  0.00     0.210 C 
ENDBRANCH  19  21
BRANCH  20  23
ATOM     23  C20 FYM d          11.371  31.633   0.016  0.00  0.00     0.212 C 
ATOM     24  O30 FYM d          11.080  30.473  -0.423  0.00  0.00    -0.644 OA
ATOM     25  O32 FYM d          12.134  32.463  -0.558  0.00  0.00    -0.644 OA
ENDBRANCH  20  23
ENDBRANCH  14  15
ENDBRANCH  11  14
ENDBRANCH  10  11
ENDBRANCH   4  10
BRANCH   3  26
ATOM     26  C19 FYM d           9.972  36.973  -2.001  0.00  0.00     0.252 C 
ATOM     27  N28 FYM d           8.737  36.473  -2.303  0.00  0.00    -0.353 N 
ATOM     28  H   FYM d           8.656  35.740  -2.979  0.00  0.00     0.163 HD
ATOM     29  O31 FYM d          10.207  37.925  -1.270  0.00  0.00    -0.268 OA
BRANCH  27  30
ATOM     30  C25 FYM d           7.555  36.980  -1.668  0.00  0.00     0.161 C 
BRANCH  30  31
ATOM     31  C12 FYM d           7.177  36.139  -0.493  0.00  0.00    -0.040 A 
ATOM     32  C3  FYM d           6.826  36.758   0.686  0.00  0.00     0.011 A 
ATOM     33  C6  FYM d           6.470  36.003   1.781  0.00  0.00     0.037 A 
ATOM     34  C17 FYM d           6.461  34.627   1.701  0.00  0.00     0.068 A 
ATOM     35  C7  FYM d           6.817  33.995   0.524  0.00  0.00     0.037 A 
ATOM     36  C4  FYM d           7.173  34.759  -0.570  0.00  0.00     0.011 A 
BRANCH  34  37
ATOM     37  O35 FYM d           6.090  33.930   2.846  0.00  0.00    -0.356 OA
ATOM     38  C23 FYM d           5.977  32.544   2.530  0.00  0.00     0.210 C 
ENDBRANCH  34  37
ENDBRANCH  30  31
ENDBRANCH  27  30
ENDBRANCH   3  26
TORSDOF 10
