REMARK  7 active torsions:
REMARK  status: ('A' for Active; 'I' for Inactive)
REMARK    1  A    between atoms: C6_7  and  N3_8 
REMARK    2  A    between atoms: N1_9  and  C1'_10 
REMARK    3  A    between atoms: C2'_12  and  O2'_13 
REMARK    4  A    between atoms: C3'_14  and  O3'_15 
REMARK    5  A    between atoms: C4'_16  and  C5'_17 
REMARK    6  A    between atoms: C5'_17  and  O5'_18 
REMARK    7  A    between atoms: O5'_18  and  P_19 
ROOT
ATOM      1  C1' NUP d           8.449 -25.826 -24.284  0.00  0.00     0.266 C 
ATOM      2  O4' NUP d           7.755 -26.391 -25.404  0.00  0.00    -0.353 OA
ATOM      3  C2' NUP d           9.207 -26.993 -23.636  0.00  0.00     0.198 C 
ATOM      4  C3' NUP d           9.486 -27.855 -24.867  0.00  0.00     0.182 C 
ATOM      5  C4' NUP d           8.233 -27.686 -25.724  0.00  0.00     0.180 C 
ENDROOT
BRANCH   1   6
ATOM      6  N1  NUP d           7.559 -25.165 -23.312  0.00  0.00    -0.257 N 
ATOM      7  C2  NUP d           6.589 -25.866 -22.573  0.00  0.00     0.332 A 
ATOM      8  N2  NUP d           5.817 -25.196 -21.687  0.00  0.00    -0.278 N 
ATOM      9  O2  NUP d           6.430 -27.096 -22.729  0.00  0.00    -0.246 OA
ATOM     10  C4  NUP d           5.962 -23.877 -21.496  0.00  0.00     0.232 A 
ATOM     11  H1  NUP d           5.125 -25.694 -21.165  0.00  0.00     0.173 HD
ATOM     12  O4  NUP d           5.227 -23.330 -20.672  0.00  0.00    -0.273 OA
ATOM     13  C5  NUP d           6.873 -23.095 -22.207  0.00  0.00     0.181 A 
ATOM     14  C6  NUP d           7.672 -23.765 -23.112  0.00  0.00     0.113 A 
BRANCH  14  15
ATOM     15  N3  NUP d           8.570 -23.061 -23.829  0.00  0.00    -0.287 NA
ATOM     16  H4  NUP d           9.163 -23.531 -24.495  0.00  0.00     0.188 HD
ENDBRANCH  14  15
ENDBRANCH   1   6
BRANCH   3  17
ATOM     17  O2' NUP d          10.412 -26.670 -22.917  0.00  0.00    -0.388 OA
ATOM     18  H7  NUP d          11.032 -26.259 -23.508  0.00  0.00     0.210 HD
ENDBRANCH   3  17
BRANCH   5  19
ATOM     19  C5' NUP d           7.134 -28.707 -25.448  0.00  0.00     0.217 C 
BRANCH  19  20
ATOM     20  O5' NUP d           7.492 -29.898 -26.122  0.00  0.00    -0.280 OA
BRANCH  20  21
ATOM     21  P   NUP d           6.605 -31.248 -26.085  0.00  0.00     0.422 P 
ATOM     22  O1P NUP d           5.515 -31.204 -27.151  0.00  0.00    -0.617 OA
ATOM     23  O2P NUP d           7.642 -32.315 -26.327  0.00  0.00    -0.617 OA
ATOM     24  O3P NUP d           6.003 -31.275 -24.699  0.00  0.00    -0.617 OA
ENDBRANCH  20  21
ENDBRANCH  19  20
ENDBRANCH   5  19
BRANCH   4  25
ATOM     25  O3' NUP d          10.604 -27.284 -25.558  0.00  0.00    -0.390 OA
ATOM     26  H9  NUP d          11.360 -27.276 -24.983  0.00  0.00     0.210 HD
ENDBRANCH   4  25
TORSDOF 7
