REMARK  19 active torsions:
REMARK  status: ('A' for Active; 'I' for Inactive)
REMARK    1  A    between atoms: C2_4  and  C1_2 
REMARK    2  A    between atoms: O2_17  and  C2_4 
REMARK    3  A    between atoms: C6_6  and  C7_7 
REMARK    4  A    between atoms: C7_7  and  C8_8 
REMARK    5  A    between atoms: C7_7  and  O7_10 
REMARK    6  A    between atoms: C8_8  and  O8_9 
REMARK    7  A    between atoms: C5_11  and  O5_12 
REMARK    8  A    between atoms: C4_13  and  O4_14 
REMARK    9  A    between atoms: C3_15  and  O3_16 
REMARK   10  A    between atoms: C4_23  and  O2_17 
REMARK   11  A    between atoms: C2_21  and  C1_18 
REMARK   12  A    between atoms: C2_21  and  O2_32 
REMARK   13  A    between atoms: C5_24  and  O5_25 
REMARK   14  A    between atoms: C6_26  and  C7_28 
REMARK   15  A    between atoms: C7_28  and  O7_29 
REMARK   16  A    between atoms: C7_28  and  C8_30 
REMARK   17  A    between atoms: C8_30  and  O8_31 
REMARK   18  A    between atoms: O2_32  and  C9_33 
REMARK   19  A    between atoms: C9_33  and  C10_34 
ROOT
ATOM      1  O2  KO1 d          -7.193   0.893  67.099  0.00  0.00    -0.336 OA
ENDROOT
BRANCH   1   2
ATOM      2  C2  KO1 d          -8.161   1.282  66.063  0.00  0.00     0.286 C 
ATOM      3  O6  KO1 d          -8.635   2.732  66.373  0.00  0.00    -0.334 OA
ATOM      4  C6  KO1 d          -7.432   3.630  66.543  0.00  0.00     0.188 C 
ATOM      5  C5  KO1 d          -6.696   3.730  65.205  0.00  0.00     0.181 C 
ATOM      6  C4  KO1 d          -6.204   2.315  64.799  0.00  0.00     0.184 C 
ATOM      7  C3  KO1 d          -7.336   1.244  64.735  0.00  0.00     0.223 C 
BRANCH   2   8
ATOM      8  C1  KO1 d          -9.427   0.411  65.899  0.00  0.00     0.241 C 
ATOM      9  OA1 KO1 d         -10.560   0.960  65.832  0.00  0.00    -0.644 OA
ATOM     10  O1B KO1 d          -9.298  -0.812  65.823  0.00  0.00    -0.644 OA
ENDBRANCH   2   8
BRANCH   4  11
ATOM     11  C7  KO1 d          -8.047   4.954  67.087  0.00  0.00     0.173 C 
BRANCH  11  12
ATOM     12  C8  KO1 d          -8.762   4.780  68.443  0.00  0.00     0.198 C 
BRANCH  12  13
ATOM     13  O8  KO1 d          -7.625   4.707  69.332  0.00  0.00    -0.398 OA
ATOM     14  H5  KO1 d          -7.120   5.509  69.265  0.00  0.00     0.209 HD
ENDBRANCH  12  13
ENDBRANCH  11  12
BRANCH  11  15
ATOM     15  O7  KO1 d          -6.959   5.866  67.079  0.00  0.00    -0.391 OA
ATOM     16  H6  KO1 d          -6.297   5.573  67.695  0.00  0.00     0.210 HD
ENDBRANCH  11  15
ENDBRANCH   4  11
BRANCH   5  17
ATOM     17  O5  KO1 d          -7.597   4.225  64.198  0.00  0.00    -0.390 OA
ATOM     18  H8  KO1 d          -8.332   3.629  64.112  0.00  0.00     0.210 HD
ENDBRANCH   5  17
BRANCH   6  19
ATOM     19  O4  KO1 d          -5.567   2.404  63.546  0.00  0.00    -0.390 OA
ATOM     20  H10 KO1 d          -6.184   2.730  62.901  0.00  0.00     0.210 HD
ENDBRANCH   6  19
BRANCH   7  21
ATOM     21  O3  KO1 d          -8.321   1.495  63.753  0.00  0.00    -0.387 OA
ATOM     22  H12 KO1 d          -8.738   2.330  63.931  0.00  0.00     0.210 HD
ENDBRANCH   7  21
ENDBRANCH   1   2
BRANCH   1  23
ATOM     23  C4  KO1 d          -7.661   0.307  68.355  0.00  0.00     0.163 C 
ATOM     24  C3  KO1 d          -8.400   1.320  69.266  0.00  0.00     0.115 C 
ATOM     25  C2  KO1 d          -8.656   0.849  70.732  0.00  0.00     0.259 C 
ATOM     26  O6  KO1 d          -7.502   0.082  71.184  0.00  0.00    -0.336 OA
ATOM     27  C6  KO1 d          -6.765  -0.911  70.358  0.00  0.00     0.187 C 
ATOM     28  C5  KO1 d          -6.384  -0.331  68.961  0.00  0.00     0.179 C 
BRANCH  25  29
ATOM     29  C1  KO1 d          -8.812   2.159  71.569  0.00  0.00     0.239 C 
ATOM     30  O1A KO1 d          -9.939   2.719  71.483  0.00  0.00    -0.644 OA
ATOM     31  O1B KO1 d          -7.831   2.599  72.257  0.00  0.00    -0.644 OA
ENDBRANCH  25  29
BRANCH  25  32
ATOM     32  O2  KO1 d          -9.782  -0.045  70.893  0.00  0.00    -0.343 OA
BRANCH  32  33
ATOM     33  C9  KO1 d         -10.326  -1.325  70.928  0.00  0.00     0.198 C 
BRANCH  33  34
ATOM     34  C10 KO1 d         -10.730  -2.086  69.807  0.00  0.00    -0.011 C 
ATOM     35  C11 KO1 d         -11.275  -3.377  69.899  0.00  0.00     0.009 C 
ENDBRANCH  33  34
ENDBRANCH  32  33
ENDBRANCH  25  32
BRANCH  27  36
ATOM     36  C7  KO1 d          -5.548  -1.534  71.095  0.00  0.00     0.173 C 
BRANCH  36  37
ATOM     37  O7  KO1 d          -5.034  -2.677  70.375  0.00  0.00    -0.391 OA
ATOM     38  H20 KO1 d          -5.715  -3.335  70.301  0.00  0.00     0.210 HD
ENDBRANCH  36  37
BRANCH  36  39
ATOM     39  C8  KO1 d          -5.832  -1.925  72.576  0.00  0.00     0.198 C 
BRANCH  39  40
ATOM     40  O8  KO1 d          -5.872  -3.363  72.765  0.00  0.00    -0.398 OA
ATOM     41  H23 KO1 d          -5.035  -3.737  72.516  0.00  0.00     0.209 HD
ENDBRANCH  39  40
ENDBRANCH  36  39
ENDBRANCH  27  36
BRANCH  28  42
ATOM     42  O5  KO1 d          -5.280   0.623  69.005  0.00  0.00    -0.390 OA
ATOM     43  H17 KO1 d          -5.081   0.917  68.124  0.00  0.00     0.210 HD
ENDBRANCH  28  42
ENDBRANCH   1  23
TORSDOF 19
