REMARK  13 active torsions:
REMARK  status: ('A' for Active; 'I' for Inactive)
REMARK    1  A    between atoms: PA_1  and  O1_4 
REMARK    2  A    between atoms: O3A_11  and  PA_1 
REMARK    3  A    between atoms: PB_2  and  O3A_11 
REMARK    4  A    between atoms: O1_4  and  C1_3 
REMARK    5  A    between atoms: C1_3  and  C2_7 
REMARK    6  A    between atoms: C3_10  and  C5_14 
REMARK    7  A    between atoms: C5_14  and  C6_15 
REMARK    8  A    between atoms: C6_15  and  C7_16 
REMARK    9  A    between atoms: C8_17  and  C9_18 
REMARK   10  A    between atoms: C9_18  and  C11_20 
REMARK   11  A    between atoms: C11_20  and  C12_21 
REMARK   12  A    between atoms: C12_21  and  C13_22 
REMARK   13  A    between atoms: C13_22  and  C14_23 
ROOT
ATOM      1  C2  FDF d          -0.917 -35.009  20.338  0.00  0.00     0.002 C 
ATOM      2  C3  FDF d           0.005 -34.281  21.029  0.00  0.00    -0.085 C 
ATOM      3  C4  FDF d           1.104 -34.945  21.881  0.00  0.00     0.043 C 
ENDROOT
BRANCH   2   4
ATOM      4  C5  FDF d          -0.021 -32.767  20.962  0.00  0.00     0.037 C 
BRANCH   4   5
ATOM      5  C6  FDF d           1.291 -32.301  20.270  0.00  0.00     0.031 C 
BRANCH   5   6
ATOM      6  C7  FDF d           0.957 -31.803  18.880  0.00  0.00    -0.024 C 
ATOM      7  C8  FDF d           1.588 -32.208  17.784  0.00  0.00    -0.087 C 
ATOM      8  C10 FDF d           2.742 -33.239  17.807  0.00  0.00     0.043 C 
BRANCH   7   9
ATOM      9  C9  FDF d           1.152 -31.631  16.480  0.00  0.00     0.037 C 
BRANCH   9  10
ATOM     10  C11 FDF d           0.610 -32.771  15.623  0.00  0.00     0.032 C 
BRANCH  10  11
ATOM     11  C12 FDF d          -0.875 -32.582  15.388  0.00  0.00    -0.019 C 
BRANCH  11  12
ATOM     12  C13 FDF d          -1.801 -33.545  15.713  0.00  0.00    -0.027 C 
ATOM     13  C15 FDF d          -1.393 -34.789  16.288  0.00  0.00     0.258 C 
ATOM     14  F1  FDF d          -1.794 -35.255  17.481  0.00  0.00    -0.251 F 
BRANCH  12  15
ATOM     15  C14 FDF d          -3.133 -33.295  15.428  0.00  0.00     0.258 C 
ATOM     16  F2  FDF d          -3.806 -34.265  14.903  0.00  0.00    -0.251 F 
ENDBRANCH  12  15
ENDBRANCH  11  12
ENDBRANCH  10  11
ENDBRANCH   9  10
ENDBRANCH   7   9
ENDBRANCH   5   6
ENDBRANCH   4   5
ENDBRANCH   2   4
BRANCH   1  17
ATOM     17  C1  FDF d          -0.880 -36.520  20.334  0.00  0.00     0.209 C 
BRANCH  17  18
ATOM     18  O1  FDF d          -2.115 -37.225  19.934  0.00  0.00    -0.286 OA
BRANCH  18  19
ATOM     19  PA  FDF d          -1.845 -38.698  19.916  0.00  0.00     0.418 P 
ATOM     20  O1A FDF d          -0.325 -39.074  20.056  0.00  0.00    -0.624 OA
ATOM     21  O2A FDF d          -2.581 -39.257  21.243  0.00  0.00    -0.624 OA
BRANCH  19  22
ATOM     22  O3A FDF d          -2.620 -39.439  18.738  0.00  0.00    -0.173 OA
BRANCH  22  23
ATOM     23  PB  FDF d          -1.760 -39.107  17.341  0.00  0.00     0.431 P 
ATOM     24  O1B FDF d          -0.559 -38.205  17.665  0.00  0.00    -0.616 OA
ATOM     25  O2B FDF d          -1.135 -40.415  16.605  0.00  0.00    -0.616 OA
ATOM     26  O3B FDF d          -2.841 -38.416  16.301  0.00  0.00    -0.616 OA
ENDBRANCH  22  23
ENDBRANCH  19  22
ENDBRANCH  18  19
ENDBRANCH  17  18
ENDBRANCH   1  17
TORSDOF 13
