REMARK  3 active torsions:
REMARK  status: ('A' for Active; 'I' for Inactive)
REMARK    1  A    between atoms: C1_2  and  C6_3 
REMARK    2  A    between atoms: C6_3  and  C7_4 
REMARK    3  A    between atoms: C7_4  and  C8_5 
ROOT
ATOM      1  N1  BDI d          15.326  16.816  20.586  0.00  0.00    -0.338 N 
ATOM      2  C1  BDI d          16.492  17.080  19.953  0.00  0.00     0.105 A 
ATOM      3  N2  BDI d          17.482  17.389  20.774  0.00  0.00    -0.227 NA
ATOM      4  C2  BDI d          16.988  17.338  22.008  0.00  0.00     0.160 A 
ATOM      5  C4  BDI d          17.607  17.583  23.351  0.00  0.00     0.291 A 
ATOM      6  N5  BDI d          16.774  17.432  24.399  0.00  0.00    -0.262 N 
ATOM      7  N4  BDI d          15.409  17.072  24.303  0.00  0.00    -0.262 N 
ATOM      8  C5  BDI d          14.768  16.829  23.114  0.00  0.00     0.289 A 
ATOM      9  O1  BDI d          13.602  16.522  23.062  0.00  0.00    -0.264 OA
ATOM     10  C3  BDI d          15.574  16.962  21.889  0.00  0.00     0.138 A 
ATOM     11  O3  BDI d          18.801  17.898  23.415  0.00  0.00    -0.264 OA
ATOM     12  H1  BDI d          14.430  16.555  20.151  0.00  0.00     0.167 HD
ATOM     13  H11 BDI d          17.148  17.586  25.313  0.00  0.00     0.190 HD
ATOM     14  H12 BDI d          14.882  16.990  25.149  0.00  0.00     0.190 HD
ENDROOT
BRANCH   2  15
ATOM     15  C6  BDI d          16.678  17.077  18.464  0.00  0.00     0.078 C 
BRANCH  15  16
ATOM     16  C7  BDI d          16.444  18.462  17.873  0.00  0.00     0.007 C 
BRANCH  16  17
ATOM     17  C8  BDI d          16.617  18.376  16.340  0.00  0.00    -0.004 C 
ATOM     18  C9  BDI d          16.299  19.714  15.730  0.00  0.00     0.005 C 
ENDBRANCH  16  17
ENDBRANCH  15  16
ENDBRANCH   2  15
TORSDOF 3
