REMARK  13 active torsions:
REMARK  status: ('A' for Active; 'I' for Inactive)
REMARK    1  A    between atoms: S8_10  and  C5_7 
REMARK    2  A    between atoms: N11_13  and  S8_10 
REMARK    3  A    between atoms: N11_13  and  C12_14 
REMARK    4  A    between atoms: C16_18  and  N11_13 
REMARK    5  A    between atoms: C12_14  and  C13_15 
REMARK    6  A    between atoms: C17_19  and  C16_18 
REMARK    7  A    between atoms: C17_19  and  O18_20 
REMARK    8  A    between atoms: C19_21  and  C17_19 
REMARK    9  A    between atoms: C19_21  and  N20_22 
REMARK   10  A    between atoms: C32_34  and  C19_21 
REMARK       I    between atoms: N20_22  and  C21_23 
REMARK   11  A    between atoms: C21_23  and  O23_25 
REMARK   12  A    between atoms: O23_25  and  C24_26 
REMARK   13  A    between atoms: C38_40  and  C32_34 
ROOT
ATOM      1  C17 MOL d          15.358  24.198  17.977  0.00  0.00     0.160 C 
ENDROOT
BRANCH   1   2
ATOM      2  C16 MOL d          16.479  25.053  17.394  0.00  0.00     0.169 C 
BRANCH   2   3
ATOM      3  N11 MOL d          17.737  24.331  17.322  0.00  0.00    -0.304 N 
BRANCH   3   4
ATOM      4  S8  MOL d          18.343  24.120  15.812  0.00  0.00     0.261 S 
ATOM      5  O9  MOL d          17.229  23.941  14.876  0.00  0.00    -0.200 OA
ATOM      6  O10 MOL d          19.285  22.947  15.884  0.00  0.00    -0.200 OA
BRANCH   4   7
ATOM      7  C5  MOL d          19.291  25.510  15.350  0.00  0.00     0.082 A 
ATOM      8  C4  MOL d          20.647  25.558  15.651  0.00  0.00     0.065 A 
ATOM      9  C3  MOL d          21.341  26.717  15.379  0.00  0.00     0.106 A 
ATOM     10  C2  MOL d          20.704  27.815  14.819  0.00  0.00     0.105 A 
ATOM     11  O41 MOL d          22.647  27.041  15.602  0.00  0.00    -0.323 OA
ATOM     12  O39 MOL d          21.571  28.884  14.805  0.00  0.00    -0.323 OA
ATOM     13  C7  MOL d          19.364  27.748  14.468  0.00  0.00     0.041 A 
ATOM     14  C40 MOL d          22.763  28.360  15.225  0.00  0.00     0.352 A 
ATOM     15  C6  MOL d          18.664  26.580  14.741  0.00  0.00     0.028 A 
ENDBRANCH   4   7
ENDBRANCH   3   4
BRANCH   3  16
ATOM     16  C12 MOL d          18.672  24.669  18.386  0.00  0.00     0.139 C 
BRANCH  16  17
ATOM     17  C13 MOL d          18.359  24.014  19.737  0.00  0.00    -0.004 C 
ATOM     18  C14 MOL d          18.361  22.487  19.652  0.00  0.00     0.011 C 
ATOM     19  C15 MOL d          19.411  24.458  20.768  0.00  0.00     0.011 C 
ENDBRANCH  16  17
ENDBRANCH   3  16
ENDBRANCH   2   3
ENDBRANCH   1   2
BRANCH   1  20
ATOM     20  O18 MOL d          14.193  24.963  18.296  0.00  0.00    -0.392 OA
ATOM     21  H18 MOL d          13.527  24.389  18.654  0.00  0.00     0.210 HD
ENDBRANCH   1  20
BRANCH   1  22
ATOM     22  C19 MOL d          14.906  23.075  17.033  0.00  0.00     0.121 C 
BRANCH  22  23
ATOM     23  N20 MOL d          14.035  22.156  17.760  0.00  0.00    -0.329 N 
ATOM     24  C21 MOL d          14.347  20.906  18.110  0.00  0.00     0.361 C 
ATOM     25  O22 MOL d          15.385  20.330  17.766  0.00  0.00    -0.238 OA
ATOM     26  H20 MOL d          13.129  22.491  18.017  0.00  0.00     0.165 HD
BRANCH  24  27
ATOM     27  O23 MOL d          13.365  20.348  18.865  0.00  0.00    -0.296 OA
BRANCH  27  28
ATOM     28  C24 MOL d          13.494  18.940  19.100  0.00  0.00     0.166 C 
ATOM     29  C25 MOL d          12.865  18.697  20.476  0.00  0.00     0.204 C 
ATOM     30  O26 MOL d          11.457  18.683  20.247  0.00  0.00    -0.358 OA
ATOM     31  C27 MOL d          11.213  18.178  18.950  0.00  0.00     0.266 C 
ATOM     32  O28 MOL d          10.305  19.036  18.246  0.00  0.00    -0.361 OA
ATOM     33  C31 MOL d          12.537  18.160  18.202  0.00  0.00     0.075 C 
ATOM     34  C29 MOL d          11.006  19.683  17.185  0.00  0.00     0.171 C 
ATOM     35  C30 MOL d          12.180  18.766  16.849  0.00  0.00     0.038 C 
ENDBRANCH  27  28
ENDBRANCH  24  27
ENDBRANCH  22  23
BRANCH  22  36
ATOM     36  C32 MOL d          14.145  23.566  15.796  0.00  0.00     0.066 C 
BRANCH  36  37
ATOM     37  C38 MOL d          13.742  22.396  14.885  0.00  0.00    -0.056 A 
ATOM     38  C33 MOL d          12.421  21.960  14.735  0.00  0.00     0.007 A 
ATOM     39  C34 MOL d          12.088  20.869  13.924  0.00  0.00     0.001 A 
ATOM     40  C35 MOL d          13.088  20.166  13.260  0.00  0.00     0.000 A 
ATOM     41  C36 MOL d          14.397  20.596  13.414  0.00  0.00     0.001 A 
ATOM     42  C37 MOL d          14.719  21.707  14.188  0.00  0.00     0.007 A 
ENDBRANCH  36  37
ENDBRANCH  22  36
ENDBRANCH   1  22
TORSDOF 13
