REMARK  5 active torsions:
REMARK  status: ('A' for Active; 'I' for Inactive)
REMARK    1  A    between atoms: C6_6  and  C7_7 
REMARK    2  A    between atoms: C8_8  and  C9_9 
REMARK    3  A    between atoms: C10_10  and  C11_11 
REMARK    4  A    between atoms: C12_12  and  C13_13 
REMARK    5  A    between atoms: C14_14  and  C15_15 
ROOT
ATOM      1  C7  RET d           5.648   5.287  11.992  0.00  0.00     0.009 C 
ATOM      2  C8  RET d           4.762   4.711  12.801  0.00  0.00     0.007 C 
ENDROOT
BRANCH   2   3
ATOM      3  C9  RET d           4.414   3.271  12.744  0.00  0.00    -0.062 C 
ATOM      4  C10 RET d           3.277   2.824  13.308  0.00  0.00     0.007 C 
ATOM      5  C19 RET d           5.322   2.270  12.084  0.00  0.00     0.048 C 
BRANCH   4   6
ATOM      6  C11 RET d           2.984   1.396  13.236  0.00  0.00     0.001 C 
ATOM      7  C12 RET d           1.898   0.825  13.765  0.00  0.00     0.007 C 
BRANCH   7   8
ATOM      8  C13 RET d           0.832   1.581  14.448  0.00  0.00    -0.059 C 
ATOM      9  C14 RET d           1.134   2.439  15.427  0.00  0.00     0.048 C 
ATOM     10  C20 RET d          -0.601   1.344  14.075  0.00  0.00     0.048 C 
BRANCH   9  11
ATOM     11  C15 RET d           0.076   3.175  16.114  0.00  0.00     0.259 C 
ATOM     12  O1  RET d           0.387   4.061  16.896  0.00  0.00    -0.302 OA
ENDBRANCH   9  11
ENDBRANCH   7   8
ENDBRANCH   4   6
ENDBRANCH   2   3
BRANCH   1  13
ATOM     13  C6  RET d           6.009   6.731  12.061  0.00  0.00    -0.048 C 
ATOM     14  C1  RET d           5.055   7.880  12.263  0.00  0.00    -0.020 C 
ATOM     15  C2  RET d           5.386   9.132  11.485  0.00  0.00     0.014 C 
ATOM     16  C16 RET d           3.859   7.786  13.205  0.00  0.00     0.020 C 
ATOM     17  C17 RET d           4.154   7.426  11.114  0.00  0.00     0.020 C 
ATOM     18  C3  RET d           6.659   9.615  12.162  0.00  0.00     0.005 C 
ATOM     19  C4  RET d           7.756   8.546  12.104  0.00  0.00     0.034 C 
ATOM     20  C5  RET d           7.298   7.092  12.019  0.00  0.00    -0.077 C 
ATOM     21  C18 RET d           8.341   6.029  11.846  0.00  0.00     0.044 C 
ENDBRANCH   1  13
TORSDOF 5
