3gus_ligand

Created by X-TOOL on Fri Sep 26 17:34:43 2014
 35 36  0  0  0  0  0  0  0  0999 V2000
    1.9180    6.1580   32.8910  O 0  0  0  2  0  2
    2.4840    5.1660   32.0260  C 0  0  0  3  0  4
    3.9230    5.5470   31.6970  C 0  0  0  3  0  4
    4.5510    4.5520   30.7290  C 0  0  0  3  0  4
    5.5370    3.6440   31.4530  C 0  0  0  3  0  4
    6.5650    3.0720   30.4850  C 0  0  0  3  0  4
    6.3030    1.5950   30.2080  C 0  0  0  3  0  4
    7.5060    0.9370   29.0960  S 0  0  0  1  0  2
    7.6960    1.8900   27.7030  C 0  0  0  1  0  3
    6.5560    2.6660   27.1260  C 0  0  0  1  0  3
    5.2580    2.8150   27.4830  N 0  0  0  1  0  2
    4.7190    3.7060   26.5020  O 0  0  0  1  0  2
    5.6770    4.1200   25.5270  N 0  0  0  1  0  2
    6.8150    3.4890   25.9030  C 0  0  0  1  0  3
    8.9470    1.9380   27.0910  C 0  0  0  2  0  3
    9.1770    2.6950   25.9390  C 0  0  0  2  0  3
    8.1850    3.4670   25.3270  C 0  0  0  1  0  3
    8.4670    4.2280   24.1820  N 0  0  0  1  0  3
    7.4850    5.0590   23.6390  O 0  0  0  1  0  1
    9.7300    4.1720   23.5950  O 0  0  0  1  0  1
    1.0211    5.9222   33.0972  H 0  0  0  1  0  1
    1.8971    5.1101   31.0973  H 0  0  0  1  0  1
    2.4686    4.1878   32.5289  H 0  0  0  1  0  1
    4.5111    5.5627   32.6265  H 0  0  0  1  0  1
    3.9333    6.5473   31.2396  H 0  0  0  1  0  1
    5.0814    5.1031   29.9385  H 0  0  0  1  0  1
    3.7580    3.9371   30.2785  H 0  0  0  1  0  1
    4.9856    2.8161   31.9226  H 0  0  0  1  0  1
    6.0576    4.2245   32.2289  H 0  0  0  1  0  1
    7.5686    3.1822   30.9216  H 0  0  0  1  0  1
    6.5140    3.6288   29.5377  H 0  0  0  1  0  1
    5.3032    1.4842   29.7630  H 0  0  0  1  0  1
    6.3464    1.0380   31.1556  H 0  0  0  1  0  1
    9.7654    1.3718   27.5209  H 0  0  0  1  0  1
   10.1683    2.6831   25.5006  H 0  0  0  1  0  1
  1  2  1  0  0  2
  2  3  1  0  0  2
  3  4  1  0  0  2
  4  5  1  0  0  2
  5  6  1  0  0  2
  6  7  1  0  0  2
  7  8  1  0  0  2
  8  9  1  0  0  2
  9 10  4  0  0  1
  9 15  4  0  0  1
 10 11  2  0  0  1
 10 14  4  0  0  1
 11 12  1  0  0  1
 12 13  1  0  0  1
 13 14  2  0  0  1
 14 17  4  0  0  1
 15 16  4  0  0  1
 16 17  4  0  0  1
 17 18  1  0  0  2
 18 19  2  0  0  2
 18 20  2  0  0  2
  1 21  1  0  0  2
  2 22  1  0  0  2
  2 23  1  0  0  2
  3 24  1  0  0  2
  3 25  1  0  0  2
  4 26  1  0  0  2
  4 27  1  0  0  2
  5 28  1  0  0  2
  5 29  1  0  0  2
  6 30  1  0  0  2
  6 31  1  0  0  2
  7 32  1  0  0  2
  7 33  1  0  0  2
 15 34  1  0  0  2
 16 35  1  0  0  2
M  END
> <MOLECULAR_FORMULA>
C12H15N3O4S

> <MOLECULAR_WEIGHT>
297.2

> <NUM_HB_ATOMS>
6  

> <NUM_ROTOR>
7  

> <XLOGP2>
2.29 

$$$$
