REMARK  4 active torsions:
REMARK  status: ('A' for Active; 'I' for Inactive)
REMARK    1  A    between atoms: C8_5  and  C4_1 
REMARK    2  A    between atoms: N10_13  and  C11_4 
REMARK       I    between atoms: C8_5  and  N10_13 
REMARK    3  A    between atoms: C15_15  and  N17_17 
REMARK       I    between atoms: N17_17  and  C18_18 
REMARK    4  A    between atoms: C18_18  and  C20_20 
ROOT
ATOM      1  C11 0X5 d          -8.762  -9.186 -16.028  0.00  0.00     0.040 A 
ATOM      2  C12 0X5 d          -9.576  -9.514 -14.923  0.00  0.00     0.049 A 
ATOM      3  C13 0X5 d         -10.448 -10.596 -15.033  0.00  0.00     0.121 A 
ATOM      4  N14 0X5 d         -10.484 -11.323 -16.149  0.00  0.00    -0.243 NA
ATOM      5  C15 0X5 d          -9.728 -11.061 -17.216  0.00  0.00     0.131 A 
ATOM      6  C16 0X5 d          -8.864  -9.963 -17.181  0.00  0.00     0.080 A 
ENDROOT
BRANCH   1   7
ATOM      7  N10 0X5 d          -7.915  -8.078 -16.116  0.00  0.00    -0.323 N 
ATOM      8  C8  0X5 d          -7.648  -7.169 -15.163  0.00  0.00     0.259 C 
ATOM      9  O9  0X5 d          -8.140  -7.216 -14.031  0.00  0.00    -0.267 OA
ATOM     10  H6  0X5 d          -7.452  -7.946 -16.993  0.00  0.00     0.169 HD
BRANCH   8  11
ATOM     11  C4  0X5 d          -6.768  -6.029 -15.496  0.00  0.00     0.075 A 
ATOM     12  C5  0X5 d          -7.363  -4.756 -15.587  0.00  0.00     0.051 A 
ATOM     13  C6  0X5 d          -6.592  -3.626 -15.825  0.00  0.00     0.025 A 
ATOM     14 CL1  0X5 d          -9.078  -4.602 -15.447  0.00  0.00    -0.083 Cl
ATOM     15  C1  0X5 d          -5.225  -3.757 -16.003  0.00  0.00     0.003 A 
ATOM     16  C2  0X5 d          -4.622  -5.012 -15.935  0.00  0.00     0.025 A 
ATOM     17  C3  0X5 d          -5.379  -6.153 -15.688  0.00  0.00     0.051 A 
ATOM     18 CL2  0X5 d          -4.581  -7.696 -15.677  0.00  0.00    -0.083 Cl
ENDBRANCH   8  11
ENDBRANCH   1   7
BRANCH   5  19
ATOM     19  N17 0X5 d          -9.832 -11.877 -18.364  0.00  0.00    -0.311 N 
ATOM     20  C18 0X5 d          -8.875 -11.980 -19.336  0.00  0.00     0.227 C 
ATOM     21  O19 0X5 d          -7.842 -11.339 -19.271  0.00  0.00    -0.273 OA
ATOM     22  H8  0X5 d         -10.665 -12.419 -18.474  0.00  0.00     0.170 HD
BRANCH  20  23
ATOM     23  C20 0X5 d          -9.094 -12.903 -20.528  0.00  0.00     0.078 A 
ATOM     24  C21 0X5 d          -8.448 -12.543 -21.873  0.00  0.00     0.015 A 
ATOM     25  C22 0X5 d          -7.900 -13.709 -21.055  0.00  0.00     0.015 A 
ENDBRANCH  20  23
ENDBRANCH   5  19
TORSDOF 4
