REMARK  8 active torsions:
REMARK  status: ('A' for Active; 'I' for Inactive)
REMARK    1  A    between atoms: PB_1  and  O3A_5 
REMARK    2  A    between atoms: O3A_5  and  PA_6 
REMARK    3  A    between atoms: PA_6  and  O5_9 
REMARK    4  A    between atoms: O5_9  and  C5_10 
REMARK    5  A    between atoms: C5_10  and  C4_11 
REMARK    6  A    between atoms: C3_13  and  O3_14 
REMARK    7  A    between atoms: C2_15  and  O2_16 
REMARK    8  A    between atoms: C1_17  and  N9_18 
ROOT
ATOM      1  C4  GDP d          12.784  25.058  41.968  0.00  0.00     0.180 C 
ATOM      2  O4  GDP d          13.504  23.818  42.330  0.00  0.00    -0.353 OA
ATOM      3  C3  GDP d          13.991  26.046  41.771  0.00  0.00     0.182 C 
ATOM      4  C2  GDP d          15.178  25.168  41.344  0.00  0.00     0.198 C 
ATOM      5  C1  GDP d          14.883  23.849  42.002  0.00  0.00     0.262 C 
ENDROOT
BRANCH   5   6
ATOM      6  N9  GDP d          15.174  22.637  41.152  0.00  0.00    -0.293 N 
ATOM      7  C8  GDP d          14.832  22.281  39.868  0.00  0.00     0.214 A 
ATOM      8  N7  GDP d          15.299  21.118  39.511  0.00  0.00    -0.234 NA
ATOM      9  C5  GDP d          15.999  20.652  40.610  0.00  0.00     0.173 A 
ATOM     10  C6  GDP d          16.747  19.430  40.859  0.00  0.00     0.292 A 
ATOM     11  C4  GDP d          15.941  21.584  41.658  0.00  0.00     0.186 A 
ATOM     12  O6  GDP d          16.920  18.484  40.075  0.00  0.00    -0.265 OA
ATOM     13  N1  GDP d          17.325  19.371  42.179  0.00  0.00    -0.152 N 
ATOM     14  C2  GDP d          17.201  20.369  43.152  0.00  0.00     0.703 A 
ATOM     15  H10 GDP d          17.854  18.556  42.417  0.00  0.00     0.187 HD
ATOM     16  N2  GDP d          17.805  20.140  44.317  0.00  0.00    -0.233 N 
ATOM     17  N3  GDP d          16.494  21.532  42.931  0.00  0.00    -0.044 NA
ATOM     18  H11 GDP d          17.749  20.838  45.072  0.00  0.00     0.174 HD
ATOM     19  H12 GDP d          18.328  19.265  44.463  0.00  0.00     0.174 HD
ENDBRANCH   5   6
BRANCH   4  20
ATOM     20  O2  GDP d          16.462  25.689  41.673  0.00  0.00    -0.388 OA
ATOM     21  H7  GDP d          16.527  25.796  42.615  0.00  0.00     0.210 HD
ENDBRANCH   4  20
BRANCH   1  22
ATOM     22  C5  GDP d          11.759  24.946  40.810  0.00  0.00     0.216 C 
BRANCH  22  23
ATOM     23  O5  GDP d          12.483  24.783  39.599  0.00  0.00    -0.287 OA
BRANCH  23  24
ATOM     24  PA  GDP d          12.203  25.523  38.222  0.00  0.00     0.418 P 
ATOM     25  O1A GDP d          13.238  25.021  37.279  0.00  0.00    -0.624 OA
ATOM     26  O2A GDP d          12.056  26.993  38.179  0.00  0.00    -0.624 OA
BRANCH  24  27
ATOM     27  O3A GDP d          11.039  24.587  37.581  0.00  0.00    -0.173 OA
BRANCH  27  28
ATOM     28  PB  GDP d           9.681  25.245  36.822  0.00  0.00     0.431 P 
ATOM     29  O1B GDP d           8.971  26.103  37.758  0.00  0.00    -0.616 OA
ATOM     30  O2B GDP d           8.976  23.991  36.410  0.00  0.00    -0.616 OA
ATOM     31  O3B GDP d          10.017  25.868  35.448  0.00  0.00    -0.616 OA
ENDBRANCH  27  28
ENDBRANCH  24  27
ENDBRANCH  23  24
ENDBRANCH  22  23
ENDBRANCH   1  22
BRANCH   3  32
ATOM     32  O3  GDP d          14.188  26.639  43.092  0.00  0.00    -0.390 OA
ATOM     33  H5  GDP d          14.909  27.256  43.056  0.00  0.00     0.210 HD
ENDBRANCH   3  32
TORSDOF 8
