3jzg_ligand

Created by X-TOOL on Fri Sep 26 17:34:43 2014
 79 78  0  0  0  0  0  0  0  0999 V2000
  -21.2400   36.2310  -26.1160  N 0  3  0  4  0  4
  -19.8770   35.6570  -26.2660  C 0  0  0  2  0  4
  -19.9800   34.2120  -26.7680  C 0  0  0  1  0  3
  -20.5700   33.3660  -26.0840  O 0  0  0  1  0  1
  -19.1170   35.6950  -24.9340  C 0  0  0  4  0  4
  -19.3950   33.9080  -27.9320  N 0  0  0  2  0  3
  -19.4240   32.5270  -28.4270  C 0  0  0  2  0  4
  -18.1530   31.7680  -28.0420  C 0  0  0  1  0  3
  -17.0690   32.3710  -27.9240  O 0  0  0  1  0  1
  -19.7650   32.3920  -29.9380  C 0  0  0  3  0  4
  -18.8480   33.1910  -30.9920  C 0  0  0  3  0  4
  -18.9620   32.6910  -32.5060  C 0  0  0  3  0  4
  -20.1200   31.8190  -32.7020  N 0  0  0  2  0  3
  -21.3780   32.2600  -32.8060  C 0  3  0  1  0  3
  -21.6460   33.5710  -32.7680  N 0  0  0  3  0  3
  -22.3800   31.3980  -32.9420  N 0  0  0  3  0  3
  -18.3440   30.4560  -27.8270  N 0  0  0  2  0  3
  -17.2870   29.4840  -27.5180  C 0  0  0  2  0  4
  -17.8310   28.1860  -26.8670  C 0  0  0  3  0  4
  -16.7790   27.4960  -25.9920  C 0  0  0  3  0  4
  -17.1180   26.0490  -25.6340  C 0  0  0  3  0  4
  -16.1070   25.3950  -24.6450  C 0  0  0  3  0  4
  -16.5280   24.1140  -23.9770  N 0  3  0  1  0  4
  -16.3470   29.1670  -28.6700  C 0  0  0  1  0  3
  -15.1720   28.8160  -28.3980  O 0  0  0  1  0  1
  -17.3190   24.2860  -22.7490  C 0  0  0  4  0  4
  -15.3020   23.4170  -23.5350  C 0  0  0  4  0  4
  -17.3120   23.2570  -24.9200  C 0  0  0  4  0  4
  -16.8250   29.2750  -29.9410  N 0  0  0  2  0  3
  -15.9250   29.1730  -31.1770  C 0  0  0  2  0  4
  -16.0410   30.2100  -32.3350  C 0  5  0  1  0  3
  -17.1170   30.7140  -32.6440  O 0  0  0  1  0  1
  -15.9620   27.7630  -31.7710  C 0  0  0  3  0  4
  -17.3000   27.3250  -31.8430  O 0  0  0  2  0  2
  -15.0039   30.5394  -32.9702  O 0  0  0  1  0  1
  -21.1701   37.1809  -25.7859  H 0  0  0  1  0  1
  -21.7644   35.6825  -25.4525  H 0  0  0  1  0  1
  -21.7097   36.2189  -27.0078  H 0  0  0  1  0  1
  -19.3219   36.2530  -27.0053  H 0  0  0  1  0  1
  -18.1137   35.2655  -25.0719  H 0  0  0  1  0  1
  -19.6661   35.1097  -24.1817  H 0  0  0  1  0  1
  -19.0261   36.7369  -24.5933  H 0  0  0  1  0  1
  -18.9385   34.6211  -28.4641  H 0  0  0  1  0  1
  -20.2493   32.0341  -27.8924  H 0  0  0  1  0  1
  -20.7992   32.7416  -30.0728  H 0  0  0  1  0  1
  -19.7027   31.3239  -30.1936  H 0  0  0  1  0  1
  -17.7990   33.0884  -30.6774  H 0  0  0  1  0  1
  -19.1381   34.2516  -30.9607  H 0  0  0  1  0  1
  -18.0493   32.1357  -32.7677  H 0  0  0  1  0  1
  -19.0598   33.5668  -33.1643  H 0  0  0  1  0  1
  -19.9564   30.8039  -32.7636  H 0  0  0  1  0  1
  -22.6185   33.9004  -32.8490  H 0  0  0  1  0  1
  -20.8797   34.2503  -32.6578  H 0  0  0  1  0  1
  -22.1885   30.3864  -32.9728  H 0  0  0  1  0  1
  -23.3482   31.7414  -33.0167  H 0  0  0  1  0  1
  -19.2818   30.1132  -27.8817  H 0  0  0  1  0  1
  -16.6633   29.9688  -26.7525  H 0  0  0  1  0  1
  -18.1405   27.4927  -27.6629  H 0  0  0  1  0  1
  -18.7006   28.4396  -26.2429  H 0  0  0  1  0  1
  -16.6769   28.0682  -25.0581  H 0  0  0  1  0  1
  -15.8212   27.5029  -26.5328  H 0  0  0  1  0  1
  -17.1306   25.4559  -26.5603  H 0  0  0  1  0  1
  -18.1165   26.0301  -25.1728  H 0  0  0  1  0  1
  -15.8984   26.1284  -23.8521  H 0  0  0  1  0  1
  -15.1833   25.1878  -25.2051  H 0  0  0  1  0  1
  -17.5769   23.2989  -22.3377  H 0  0  0  1  0  1
  -18.2412   24.8387  -22.9813  H 0  0  0  1  0  1
  -16.7305   24.8489  -22.0096  H 0  0  0  1  0  1
  -14.6452   23.2459  -24.4007  H 0  0  0  1  0  1
  -15.5720   22.4512  -23.0831  H 0  0  0  1  0  1
  -14.7763   24.0351  -22.7924  H 0  0  0  1  0  1
  -18.2186   23.7939  -25.2359  H 0  0  0  1  0  1
  -17.5968   22.3220  -24.4153  H 0  0  0  1  0  1
  -16.6972   23.0250  -25.8021  H 0  0  0  1  0  1
  -17.8045   29.4273  -30.0730  H 0  0  0  1  0  1
  -14.9091   29.3164  -30.7802  H 0  0  0  1  0  1
  -15.3850   27.0790  -31.1313  H 0  0  0  1  0  1
  -15.5249   27.7774  -32.7803  H 0  0  0  1  0  1
  -17.3261   26.4497  -32.2115  H 0  0  0  1  0  1
  1  2  1  0  0  2
  2  3  1  0  0  2
  2  5  1  0  0  2
  3  4  2  0  0  2
  3  6  1  0  0  2
  6  7  1  0  0  2
  7  8  1  0  0  2
  7 10  1  0  0  2
  8  9  2  0  0  2
  8 17  1  0  0  2
 10 11  1  0  0  2
 11 12  1  0  0  2
 12 13  1  0  0  2
 13 14  2  0  0  2
 14 15  2  0  0  2
 14 16  2  0  0  2
 17 18  1  0  0  2
 18 19  1  0  0  2
 18 24  1  0  0  2
 19 20  1  0  0  2
 20 21  1  0  0  2
 21 22  1  0  0  2
 22 23  1  0  0  2
 23 26  1  0  0  2
 23 27  1  0  0  2
 23 28  1  0  0  2
 24 25  2  0  0  2
 24 29  1  0  0  2
 29 30  1  0  0  2
 30 31  1  0  0  2
 30 33  1  0  0  2
 31 32  2  0  0  2
 33 34  1  0  0  2
 31 35  2  0  0  2
  1 36  1  0  0  2
  1 37  1  0  0  2
  1 38  1  0  0  2
  2 39  1  0  0  2
  5 40  1  0  0  2
  5 41  1  0  0  2
  5 42  1  0  0  2
  6 43  1  0  0  2
  7 44  1  0  0  2
 10 45  1  0  0  2
 10 46  1  0  0  2
 11 47  1  0  0  2
 11 48  1  0  0  2
 12 49  1  0  0  2
 12 50  1  0  0  2
 13 51  1  0  0  2
 15 52  1  0  0  2
 15 53  1  0  0  2
 16 54  1  0  0  2
 16 55  1  0  0  2
 17 56  1  0  0  2
 18 57  1  0  0  2
 19 58  1  0  0  2
 19 59  1  0  0  2
 20 60  1  0  0  2
 20 61  1  0  0  2
 21 62  1  0  0  2
 21 63  1  0  0  2
 22 64  1  0  0  2
 22 65  1  0  0  2
 26 66  1  0  0  2
 26 67  1  0  0  2
 26 68  1  0  0  2
 27 69  1  0  0  2
 27 70  1  0  0  2
 27 71  1  0  0  2
 28 72  1  0  0  2
 28 73  1  0  0  2
 28 74  1  0  0  2
 29 75  1  0  0  2
 30 76  1  0  0  2
 33 77  1  0  0  2
 33 78  1  0  0  2
 34 79  1  0  0  2
M  END
> <MOLECULAR_FORMULA>
C21H44N8O6

> <MOLECULAR_WEIGHT>
504.3

> <NUM_HB_ATOMS>
13 

> <NUM_ROTOR>
15 

> <XLOGP2>
-3.96

$$$$
