REMARK  4 active torsions:
REMARK  status: ('A' for Active; 'I' for Inactive)
REMARK    1  A    between atoms: C3_3  and  C31_9 
REMARK    2  A    between atoms: C6_6  and  C7_7 
REMARK    3  A    between atoms: C7_7  and  O8_8 
REMARK    4  A    between atoms: C61_12  and  C62_13 
ROOT
ATOM      1  S1  MOL d         -10.688  13.561  -1.173  0.00  0.00    -0.159 SA
ATOM      2  C2  MOL d          -9.437  14.763  -1.574  0.00  0.00     0.118 C 
ATOM      3  C3  MOL d          -9.305  15.227  -3.034  0.00  0.00     0.295 C 
ATOM      4  N4  MOL d          -9.425  14.280  -4.115  0.00  0.00    -0.060 N 
ATOM      5  C5  MOL d         -10.641  13.560  -4.177  0.00  0.00     0.241 C 
ATOM      6  C6  MOL d         -10.496  12.181  -3.553  0.00  0.00     0.051 C 
ATOM      7  C61 MOL d         -10.292  12.044  -2.036  0.00  0.00     0.087 C 
ATOM      8  H4  MOL d          -8.675  13.612  -4.024  0.00  0.00     0.278 HD
ATOM      9  H5  MOL d          -9.322  14.786  -4.981  0.00  0.00     0.278 HD
ENDROOT
BRANCH   7  10
ATOM     10  C62 MOL d          -8.810  11.663  -1.821  0.00  0.00     0.234 C 
ATOM     11  N63 MOL d          -8.262  10.494  -2.793  0.00  0.00     0.086 N 
ATOM     12  N64 MOL d          -7.185  10.451  -2.183  0.00  0.00     0.095 N 
ATOM     13  H14 MOL d          -8.172  10.775  -3.757  0.00  0.00     0.313 HD
ATOM     14  H15 MOL d          -8.793   9.639  -2.740  0.00  0.00     0.313 HD
ATOM     15  C65 MOL d          -7.686  10.109  -0.767  0.00  0.00     0.224 C 
ATOM     16  C67 MOL d          -6.598   9.250  -2.839  0.00  0.00     0.343 C 
ATOM     17  H16 MOL d          -6.606  11.275  -2.228  0.00  0.00     0.317 HD
ATOM     18  C66 MOL d          -8.547  11.278  -0.567  0.00  0.00     0.072 C 
ATOM     19  C70 MOL d          -6.422   9.852   0.205  0.00  0.00     0.046 C 
ATOM     20  C69 MOL d          -5.217   9.256  -0.468  0.00  0.00     0.077 C 
ATOM     21  S68 MOL d          -5.150   9.081  -2.070  0.00  0.00    -0.140 SA
ENDBRANCH   7  10
BRANCH   6  22
ATOM     22  C7  MOL d         -11.684  11.396  -4.082  0.00  0.00     0.171 C 
BRANCH  22  23
ATOM     23  O8  MOL d         -12.348  10.425  -3.359  0.00  0.00    -0.400 OA
ATOM     24  H11 MOL d         -12.704  10.810  -2.567  0.00  0.00     0.209 HD
ENDBRANCH  22  23
ENDBRANCH   6  22
BRANCH   3  25
ATOM     25  C31 MOL d          -7.931  15.939  -3.159  0.00  0.00     0.205 C 
ATOM     26  O32 MOL d          -7.359  15.934  -4.279  0.00  0.00    -0.646 OA
ATOM     27  O33 MOL d          -7.437  16.502  -2.142  0.00  0.00    -0.646 OA
ENDBRANCH   3  25
TORSDOF 4
