REMARK  7 active torsions:
REMARK  status: ('A' for Active; 'I' for Inactive)
REMARK    1  A    between atoms: C_2  and  CA_4 
REMARK    2  A    between atoms: CA_4  and  N_5 
REMARK    3  A    between atoms: CA_4  and  CB_6 
REMARK    4  A    between atoms: CB_6  and  CAJ_7 
REMARK    5  A    between atoms: CAJ_7  and  CAD_8 
REMARK    6  A    between atoms: CAF_17  and  OAB_18 
REMARK    7  A    between atoms: CAG_19  and  OAC_20 
ROOT
ATOM      1  CAJ NDZ d          -7.253  15.208  20.148  0.00  0.00     0.154 C 
ATOM      2  CAR NDZ d          -7.411  15.189  21.676  0.00  0.00     0.084 C 
ATOM      3  OAI NDZ d          -8.048  14.122  19.657  0.00  0.00    -0.358 OA
ATOM      4  CAH NDZ d          -8.382  13.231  20.716  0.00  0.00     0.183 C 
ATOM      5  CAQ NDZ d          -8.500  14.153  21.924  0.00  0.00     0.156 C 
ATOM      6  OAP NDZ d          -9.764  14.832  21.994  0.00  0.00    -0.381 OA
ATOM      7  CAO NDZ d         -10.915  14.000  21.806  0.00  0.00     0.202 C 
ATOM      8  CAF NDZ d         -10.871  13.347  20.426  0.00  0.00     0.173 C 
ATOM      9  CAG NDZ d          -9.637  12.459  20.326  0.00  0.00     0.180 C 
ENDROOT
BRANCH   1  10
ATOM     10  CB  NDZ d          -5.785  15.003  19.773  0.00  0.00     0.093 C 
BRANCH  10  11
ATOM     11  CA  NDZ d          -5.510  14.903  18.272  0.00  0.00     0.286 C 
BRANCH  11  12
ATOM     12  C   NDZ d          -4.042  15.137  18.025  0.00  0.00     0.204 C 
ATOM     13  O   NDZ d          -3.374  14.316  17.348  0.00  0.00    -0.646 OA
ATOM     14  OXT NDZ d          -3.544  16.157  18.547  0.00  0.00    -0.646 OA
ENDBRANCH  11  12
BRANCH  11  15
ATOM     15  N   NDZ d          -5.923  13.623  17.709  0.00  0.00    -0.065 N 
ATOM     16  H2  NDZ d          -6.906  13.481  17.882  0.00  0.00     0.275 HD
ATOM     17  H3  NDZ d          -5.395  12.880  18.140  0.00  0.00     0.275 HD
ATOM     18  H4  NDZ d          -5.753  13.623  16.715  0.00  0.00     0.275 HD
ENDBRANCH  11  15
ENDBRANCH  10  11
ENDBRANCH   1  10
BRANCH   1  19
ATOM     19  CAD NDZ d          -7.823  16.493  19.579  0.00  0.00     0.209 C 
ATOM     20  OAA NDZ d          -9.039  16.491  19.239  0.00  0.00    -0.646 OA
ATOM     21  OAE NDZ d          -7.059  17.488  19.447  0.00  0.00    -0.646 OA
ENDBRANCH   1  19
BRANCH   9  22
ATOM     22  OAC NDZ d          -9.499  11.916  19.000  0.00  0.00    -0.390 OA
ATOM     23  H16 NDZ d          -9.415  12.627  18.375  0.00  0.00     0.210 HD
ENDBRANCH   9  22
BRANCH   8  24
ATOM     24  OAB NDZ d         -10.838  14.375  19.422  0.00  0.00    -0.391 OA
ATOM     25  H14 NDZ d         -10.065  14.913  19.547  0.00  0.00     0.210 HD
ENDBRANCH   8  24
TORSDOF 7
