REMARK  5 active torsions:
REMARK  status: ('A' for Active; 'I' for Inactive)
REMARK    1  A    between atoms: C7_7  and  C18_18 
REMARK    2  A    between atoms: N10_10  and  C11_11 
REMARK    3  A    between atoms: C15_15  and  N17_17 
REMARK    4  A    between atoms: C19_19  and  C20_20 
REMARK    5  A    between atoms: C20_20  and  O26_26 
ROOT
ATOM      1  C1  MOL d         -18.785  -4.139  13.368  0.00  0.00     0.092 C 
ATOM      2  C2  MOL d         -19.056  -2.690  13.702  0.00  0.00     0.125 A 
ATOM      3  N3  MOL d         -18.374  -1.715  13.177  0.00  0.00    -0.233 NA
ATOM      4  C4  MOL d         -18.817  -0.523  13.642  0.00  0.00     0.086 A 
ATOM      5  C5  MOL d         -18.431   0.800  13.395  0.00  0.00     0.035 A 
ATOM      6  C6  MOL d         -19.073   1.823  14.019  0.00  0.00     0.023 A 
ATOM      7  C7  MOL d         -20.121   1.572  14.914  0.00  0.00     0.020 A 
ATOM      8  C8  MOL d         -20.513   0.258  15.175  0.00  0.00     0.053 A 
ATOM      9  C9  MOL d         -19.865  -0.800  14.541  0.00  0.00     0.088 A 
ATOM     10  N10 MOL d         -20.003  -2.189  14.570  0.00  0.00    -0.128 N 
ENDROOT
BRANCH   7  11
ATOM     11  C18 MOL d         -20.770   2.685  15.547  0.00  0.00    -0.064 C 
ATOM     12  C19 MOL d         -21.295   3.599  16.068  0.00  0.00    -0.063 C 
BRANCH  12  13
ATOM     13  C20 MOL d         -21.953   4.757  16.702  0.00  0.00     0.121 C 
ATOM     14  C21 MOL d         -23.461   4.530  16.649  0.00  0.00     0.051 C 
ATOM     15  C22 MOL d         -24.177   5.747  17.234  0.00  0.00     0.004 C 
ATOM     16  C23 MOL d         -23.733   5.922  18.683  0.00  0.00     0.000 C 
ATOM     17  C24 MOL d         -22.218   6.137  18.739  0.00  0.00     0.004 C 
ATOM     18  C25 MOL d         -21.503   4.909  18.167  0.00  0.00     0.051 C 
BRANCH  13  19
ATOM     19  O26 MOL d         -21.660   5.958  15.993  0.00  0.00    -0.378 OA
ATOM     20  H   MOL d         -20.724   6.117  16.015  0.00  0.00     0.211 HD
ENDBRANCH  13  19
ENDBRANCH  12  13
ENDBRANCH   7  11
BRANCH  10  21
ATOM     21  C11 MOL d         -20.941  -2.891  15.342  0.00  0.00     0.751 A 
ATOM     22  N12 MOL d         -21.433  -2.350  16.456  0.00  0.00    -0.054 NA
ATOM     23  C13 MOL d         -22.326  -2.995  17.191  0.00  0.00     0.272 A 
ATOM     24  N14 MOL d         -22.744  -4.197  16.830  0.00  0.00    -0.055 NA
ATOM     25  C15 MOL d         -22.266  -4.752  15.714  0.00  0.00     0.737 A 
ATOM     26  N16 MOL d         -21.370  -4.093  14.982  0.00  0.00     0.130 NA
BRANCH  25  27
ATOM     27  N17 MOL d         -22.697  -6.007  15.313  0.00  0.00    -0.230 N 
ATOM     28  H   MOL d         -23.390  -6.518  15.878  0.00  0.00     0.174 HD
ATOM     29  H   MOL d         -22.324  -6.428  14.450  0.00  0.00     0.174 HD
ENDBRANCH  25  27
ENDBRANCH  10  21
TORSDOF 5
