REMARK  1 active torsions:
REMARK  status: ('A' for Active; 'I' for Inactive)
REMARK    1  A    between atoms: C8_11  and  N2_7 
ROOT
ATOM      1  C1  09O d           3.706  18.320  37.902  0.00  0.00     0.150 C 
ATOM      2  C2  09O d           4.562  18.807  36.711  0.00  0.00     0.252 C 
ATOM      3  N1  09O d           5.578  17.800  36.315  0.00  0.00    -0.074 N 
ATOM      4  C3  09O d           6.893  17.922  37.003  0.00  0.00     0.234 C 
ATOM      5  C4  09O d           6.910  17.516  38.499  0.00  0.00     0.047 C 
ATOM      6  C5  09O d           5.715  18.020  39.333  0.00  0.00     0.124 C 
ATOM      7  N2  09O d           4.443  17.453  38.837  0.00  0.00    -0.378 N 
ATOM      8  H5  09O d           5.735  17.889  35.323  0.00  0.00     0.277 HD
ATOM      9  H6  09O d           5.205  16.885  36.515  0.00  0.00     0.277 HD
ENDROOT
BRANCH   7  10
ATOM     10  C8  09O d           3.883  16.287  39.275  0.00  0.00     0.048 A 
ATOM     11  C7  09O d           2.499  16.000  39.051  0.00  0.00     0.145 A 
ATOM     12  N3  09O d           1.847  14.887  39.465  0.00  0.00    -0.271 NA
ATOM     13  C6  09O d           2.570  13.978  40.152  0.00  0.00     0.116 A 
ATOM     14  C10 09O d           3.938  14.150  40.436  0.00  0.00     0.021 A 
ATOM     15  C9  09O d           4.609  15.311  39.995  0.00  0.00     0.032 A 
ENDBRANCH   7  10
TORSDOF 1
