REMARK  3 active torsions:
REMARK  status: ('A' for Active; 'I' for Inactive)
REMARK    1  A    between atoms: O2_1  and  C9_2 
REMARK    2  A    between atoms: C12_8  and  C3_10 
REMARK    3  A    between atoms: C6_15  and  O1_16 
ROOT
ATOM      1  C9  NEW d          21.749  42.967  29.108  0.00  0.00     0.109 A 
ATOM      2  C8  NEW d          20.976  43.900  28.417  0.00  0.00     0.069 A 
ATOM      3 CL2  NEW d          20.181  44.956  29.147  0.00  0.00    -0.081 Cl
ATOM      4  C10 NEW d          22.464  42.011  28.389  0.00  0.00     0.069 A 
ATOM      5 CL4  NEW d          23.315  40.982  29.090  0.00  0.00    -0.081 Cl
ATOM      6  C11 NEW d          22.405  41.991  26.991  0.00  0.00     0.039 A 
ATOM      7  C12 NEW d          21.633  42.918  26.280  0.00  0.00    -0.022 A 
ATOM      8  C7  NEW d          20.922  43.870  27.019  0.00  0.00     0.039 A 
ENDROOT
BRANCH   7   9
ATOM      9  C3  NEW d          21.577  42.894  24.876  0.00  0.00    -0.022 A 
ATOM     10  C2  NEW d          21.567  41.682  24.173  0.00  0.00     0.039 A 
ATOM     11  C1  NEW d          21.509  41.653  22.773  0.00  0.00     0.069 A 
ATOM     12  C6  NEW d          21.460  42.849  22.058  0.00  0.00     0.109 A 
ATOM     13 CL1  NEW d          21.498  40.331  22.037  0.00  0.00    -0.081 Cl
ATOM     14  C5  NEW d          21.467  44.067  22.740  0.00  0.00     0.069 A 
ATOM     15  C4  NEW d          21.523  44.081  24.139  0.00  0.00     0.039 A 
ATOM     16 CL5  NEW d          21.418  45.371  21.979  0.00  0.00    -0.081 Cl
BRANCH  12  17
ATOM     17  O1  NEW d          21.400  42.819  20.691  0.00  0.00    -0.357 OA
ATOM     18  H6  NEW d          21.404  41.916  20.395  0.00  0.00     0.217 HD
ENDBRANCH  12  17
ENDBRANCH   7   9
BRANCH   1  19
ATOM     19  O2  NEW d          21.807  42.985  30.475  0.00  0.00    -0.357 OA
ATOM     20  H1  NEW d          22.375  42.286  30.776  0.00  0.00     0.217 HD
ENDBRANCH   1  19
TORSDOF 3
