REMARK  6 active torsions:
REMARK  status: ('A' for Active; 'I' for Inactive)
REMARK       I    between atoms: C21_2  and  N22_3 
REMARK    1  A    between atoms: C21_2  and  C18_4 
REMARK    2  A    between atoms: C19_7  and  N24_8 
REMARK    3  A    between atoms: N24_8  and  C25_9 
REMARK    4  A    between atoms: C25_9  and  C26_10 
REMARK    5  A    between atoms: C26_10  and  O27_11 
REMARK    6  A    between atoms: C15_14  and  N7_15 
ROOT
ATOM      1  C18 SNX d          -0.063 -11.539 -24.488  0.00  0.00     0.058 A 
ATOM      2  C17 SNX d           0.381 -12.595 -23.697  0.00  0.00     0.022 A 
ATOM      3  C16 SNX d           1.753 -12.812 -23.535  0.00  0.00     0.031 A 
ATOM      4  C19 SNX d           0.927 -10.679 -25.181  0.00  0.00     0.046 A 
ATOM      5  C20 SNX d           2.279 -10.969 -24.968  0.00  0.00     0.060 A 
ATOM      6  C15 SNX d           2.735 -12.011 -24.149  0.00  0.00     0.042 A 
ENDROOT
BRANCH   6   7
ATOM      7  N7  SNX d           4.056 -12.238 -24.070  0.00  0.00    -0.314 N 
ATOM      8  C1  SNX d           4.986 -11.371 -23.605  0.00  0.00     0.051 A 
ATOM      9  C6  SNX d           4.957 -10.125 -22.982  0.00  0.00     0.031 A 
ATOM     10  C2  SNX d           6.311 -12.031 -23.822  0.00  0.00     0.007 A 
ATOM     11  C5  SNX d           6.185  -9.560 -22.596  0.00  0.00     0.002 A 
ATOM     12  C4  SNX d           7.413 -10.197 -22.809  0.00  0.00     0.001 A 
ATOM     13  C3  SNX d           7.509 -11.446 -23.423  0.00  0.00     0.015 A 
ATOM     14  C9  SNX d           5.972 -13.298 -24.490  0.00  0.00     0.045 A 
ATOM     15  C8  SNX d           4.522 -13.367 -24.649  0.00  0.00     0.032 A 
ATOM     16  C10 SNX d           6.893 -14.366 -24.949  0.00  0.00     0.162 C 
ATOM     17  C13 SNX d           3.830 -14.550 -25.288  0.00  0.00     0.059 C 
ATOM     18  C12 SNX d           4.856 -15.458 -25.986  0.00  0.00     0.014 C 
ATOM     19  C11 SNX d           6.198 -15.665 -25.285  0.00  0.00     0.084 C 
ATOM     20  O14 SNX d           8.095 -14.216 -25.067  0.00  0.00    -0.292 OA
ENDBRANCH   6   7
BRANCH   4  21
ATOM     21  N24 SNX d           0.527  -9.641 -25.981  0.00  0.00    -0.387 N 
ATOM     22  H5  SNX d          -0.480  -9.456 -26.092  0.00  0.00     0.159 HD
BRANCH  21  23
ATOM     23  C25 SNX d           1.485  -8.787 -26.683  0.00  0.00     0.146 C 
BRANCH  23  24
ATOM     24  C26 SNX d           0.809  -7.751 -27.581  0.00  0.00     0.186 C 
BRANCH  24  25
ATOM     25  O27 SNX d          -0.176  -7.050 -26.817  0.00  0.00    -0.394 OA
ATOM     26  C28 SNX d          -0.129  -5.633 -26.962  0.00  0.00     0.201 C 
ENDBRANCH  24  25
ENDBRANCH  23  24
ENDBRANCH  21  23
ENDBRANCH   4  21
BRANCH   1  27
ATOM     27  C21 SNX d          -1.531 -11.325 -24.703  0.00  0.00     0.251 C 
ATOM     28  O23 SNX d          -1.874 -10.769 -25.739  0.00  0.00    -0.268 OA
ATOM     29  N22 SNX d          -2.414 -11.826 -23.838  0.00  0.00    -0.366 N 
ATOM     30  H1  SNX d          -2.096 -12.273 -23.002  0.00  0.00     0.159 HD
ATOM     31  H2  SNX d          -3.394 -11.754 -24.026  0.00  0.00     0.159 HD
ENDBRANCH   1  27
TORSDOF 6
