REMARK  7 active torsions:
REMARK  status: ('A' for Active; 'I' for Inactive)
REMARK    1  A    between atoms: C6_6  and  C7_7 
REMARK    2  A    between atoms: C8_8  and  C9_9 
REMARK    3  A    between atoms: C12_12  and  N15_15 
REMARK       I    between atoms: N15_15  and  C16_16 
REMARK    4  A    between atoms: C16_16  and  C17_17 
REMARK    5  A    between atoms: C17_17  and  C18_18 
REMARK    6  A    between atoms: C18_18  and  C19_19 
REMARK    7  A    between atoms: C19_19  and  C20_20 
ROOT
ATOM      1  C9  SPB d          62.582  -0.590 -29.967  0.00  0.00    -0.036 A 
ATOM      2  C10 SPB d          63.469   0.192 -30.744  0.00  0.00     0.013 A 
ATOM      3  C11 SPB d          64.693  -0.339 -31.158  0.00  0.00     0.030 A 
ATOM      4  C12 SPB d          65.073  -1.667 -30.832  0.00  0.00     0.034 A 
ATOM      5  C13 SPB d          64.180  -2.470 -30.044  0.00  0.00     0.030 A 
ATOM      6  C14 SPB d          62.928  -1.917 -29.613  0.00  0.00     0.013 A 
ENDROOT
BRANCH   4   7
ATOM      7  N15 SPB d          66.359  -2.081 -31.351  0.00  0.00    -0.327 N 
ATOM      8  C16 SPB d          66.939  -3.228 -31.639  0.00  0.00     0.222 C 
ATOM      9  O22 SPB d          66.374  -4.299 -31.732  0.00  0.00    -0.273 OA
ATOM     10  H12 SPB d          66.957  -1.301 -31.538  0.00  0.00     0.169 HD
BRANCH   8  11
ATOM     11  C17 SPB d          68.455  -3.180 -31.822  0.00  0.00     0.103 C 
BRANCH  11  12
ATOM     12  C18 SPB d          69.011  -4.068 -32.879  0.00  0.00     0.020 C 
BRANCH  12  13
ATOM     13  C19 SPB d          70.501  -3.983 -32.924  0.00  0.00     0.113 C 
BRANCH  13  14
ATOM     14  C20 SPB d          71.047  -4.851 -34.007  0.00  0.00     0.172 C 
ATOM     15  O21 SPB d          71.407  -4.079 -35.102  0.00  0.00    -0.648 OA
ATOM     16  O23 SPB d          71.083  -6.066 -33.947  0.00  0.00    -0.648 OA
ENDBRANCH  13  14
ENDBRANCH  12  13
ENDBRANCH  11  12
ENDBRANCH   8  11
ENDBRANCH   4   7
BRANCH   1  17
ATOM     17  C8  SPB d          61.276  -0.005 -29.531  0.00  0.00     0.012 C 
ATOM     18  C7  SPB d          60.955   1.272 -29.780  0.00  0.00     0.012 C 
BRANCH  18  19
ATOM     19  C6  SPB d          59.689   1.948 -29.387  0.00  0.00    -0.036 A 
ATOM     20  C1  SPB d          59.540   3.323 -29.679  0.00  0.00     0.011 A 
ATOM     21  C2  SPB d          58.337   3.980 -29.322  0.00  0.00     0.001 A 
ATOM     22  C3  SPB d          57.297   3.247 -28.682  0.00  0.00     0.000 A 
ATOM     23  C4  SPB d          57.462   1.880 -28.395  0.00  0.00     0.001 A 
ATOM     24  C5  SPB d          58.646   1.226 -28.745  0.00  0.00     0.011 A 
ENDBRANCH  18  19
ENDBRANCH   1  17
TORSDOF 7
