3a1s_ligand

Created by X-TOOL on Fri Sep 26 17:34:43 2014
 41 43  0  0  0  0  0  0  0  0999 V2000
   -3.9050   23.1290  -11.0400  P 0  0  0  1  0  4
   -4.8640   21.9740  -11.1710  O 0  0  0  1  0  1
   -3.4550   23.6370  -12.3870  O 0  0  0  1  0  1
   -4.5030   24.2130  -10.1630  O 0  0  0  1  0  1
   -2.6680   22.4780  -10.2230  O 0  0  0  1  0  2
   -1.1010   22.7480  -10.2780  P 0  0  0  1  0  4
   -0.4340   21.9870  -11.3900  O 0  0  0  1  0  1
   -0.7870   24.2380  -10.3070  O 0  0  0  1  0  1
   -0.6220   22.0650   -8.9200  O 0  0  0  1  0  2
   -1.1480   22.4440   -7.6480  C 0  0  0  3  0  4
   -0.1630   22.0300   -6.5820  C 0  0  0  2  0  4
    0.0950   20.6240   -6.7280  O 0  0  0  1  0  2
    1.1610   22.7310   -6.7630  C 0  0  0  2  0  4
    1.7030   22.9330   -5.4570  O 0  0  0  2  0  2
    2.0120   21.7160   -7.4980  C 0  0  0  2  0  4
    3.4030   21.8600   -7.2380  O 0  0  0  2  0  2
    1.4860   20.4230   -6.9120  C 0  0  0  2  0  4
    1.6140   19.3070   -7.8570  N 0  0  0  1  0  3
    1.0420   19.2010   -9.0650  C 0  0  0  2  0  3
    1.3670   18.0150   -9.6470  N 0  0  0  1  0  2
    2.1470   17.3600   -8.7700  C 0  0  0  1  0  3
    2.8360   16.0640   -8.7230  C 0  0  0  1  0  3
    2.7360   15.2950   -9.7010  O 0  0  0  1  0  1
    3.5460   15.7770   -7.6210  N 0  0  0  2  0  3
    3.6470   16.6050   -6.5640  C 0  3  0  1  0  3
    4.3700   16.2520   -5.4760  N 0  0  0  3  0  3
    3.0370   17.8140   -6.5390  N 0  0  0  2  0  3
    2.3000   18.2100   -7.5890  C 0  0  0  1  0  3
   -2.1112   21.9403   -7.4794  H 0  0  0  1  0  1
   -1.2935   23.5338   -7.6160  H 0  0  0  1  0  1
   -0.5759   22.2496   -5.5864  H 0  0  0  1  0  1
    1.0692   23.6773   -7.3162  H 0  0  0  1  0  1
    2.5413   23.3742   -5.5280  H 0  0  0  1  0  1
    1.8404   21.7675   -8.5833  H 0  0  0  1  0  1
    3.5632   21.7507   -6.3080  H 0  0  0  1  0  1
    1.9951   20.1895   -5.9653  H 0  0  0  1  0  1
    0.4052   19.9595   -9.5178  H 0  0  0  1  0  1
    4.0261   14.9006   -7.5827  H 0  0  0  1  0  1
    4.4398   16.8940   -4.6736  H 0  0  0  1  0  1
    4.8505   15.3413   -5.4503  H 0  0  0  1  0  1
    3.1381   18.4272   -5.7176  H 0  0  0  1  0  1
  1  2  2  0  0  2
  1  3  2  0  0  2
  1  4  2  0  0  2
  1  5  1  0  0  2
  5  6  1  0  0  2
  6  7  2  0  0  2
  6  8  2  0  0  2
  6  9  1  0  0  2
  9 10  1  0  0  2
 10 11  1  0  0  2
 11 12  1  0  0  1
 11 13  1  0  0  1
 12 17  1  0  0  1
 13 14  1  0  0  2
 13 15  1  0  0  1
 15 16  1  0  0  2
 15 17  1  0  0  1
 17 18  1  0  0  2
 18 19  1  0  0  1
 18 28  1  0  0  1
 19 20  2  0  0  1
 20 21  1  0  0  1
 21 22  1  0  0  1
 21 28  2  0  0  1
 22 23  2  0  0  2
 22 24  1  0  0  1
 24 25  4  0  0  1
 25 26  2  0  0  2
 25 27  4  0  0  1
 27 28  1  0  0  1
 10 29  1  0  0  2
 10 30  1  0  0  2
 11 31  1  0  0  2
 13 32  1  0  0  2
 14 33  1  0  0  2
 15 34  1  0  0  2
 16 35  1  0  0  2
 17 36  1  0  0  2
 19 37  1  0  0  2
 24 38  1  0  0  2
 26 39  1  0  0  2
 26 40  1  0  0  2
 27 41  1  0  0  2
M  END
> <MOLECULAR_FORMULA>
C10H13N5O11P2

> <MOLECULAR_WEIGHT>
441.1

> <NUM_HB_ATOMS>
16 

> <NUM_ROTOR>
5  

> <XLOGP2>
-3.94

$$$$
