REMARK  14 active torsions:
REMARK  status: ('A' for Active; 'I' for Inactive)
REMARK    1  A    between atoms: C1_2  and  C2_4 
REMARK    2  A    between atoms: C11_14  and  N2_13 
REMARK    3  A    between atoms: C12_15  and  C11_14 
REMARK    4  A    between atoms: C11_14  and  C13_17 
REMARK       I    between atoms: N4_24  and  C12_15 
REMARK    5  A    between atoms: C13_17  and  C14_18 
REMARK       I    between atoms: C14_18  and  N3_20 
REMARK    6  A    between atoms: C15_21  and  O4_22 
REMARK    7  A    between atoms: C16_23  and  C15_21 
REMARK    8  A    between atoms: C15_21  and  C24_33 
REMARK    9  A    between atoms: C16_23  and  N4_24 
REMARK   10  A    between atoms: C16_23  and  C17_25 
REMARK   11  A    between atoms: C17_25  and  C18_26 
REMARK   12  A    between atoms: C24_33  and  N5_32 
REMARK   13  A    between atoms: C25_34  and  C26_35 
REMARK       I    between atoms: C26_35  and  N6_45 
REMARK   14  A    between atoms: N6_45  and  C35_46 
ROOT
ATOM      1  C16 ROC d          20.684  31.100  15.729  0.00  0.00     0.119 C 
ENDROOT
BRANCH   1   2
ATOM      2  C15 ROC d          20.147  29.716  16.093  0.00  0.00     0.167 C 
BRANCH   2   3
ATOM      3  O4  ROC d          20.378  29.414  17.462  0.00  0.00    -0.392 OA
ATOM      4  H14 ROC d          20.034  28.550  17.657  0.00  0.00     0.210 HD
ENDBRANCH   2   3
BRANCH   2   5
ATOM      5  C24 ROC d          20.576  28.592  15.163  0.00  0.00     0.269 C 
BRANCH   5   6
ATOM      6  N5  ROC d          19.825  28.618  13.935  0.00  0.00    -0.055 N 
ATOM      7  C25 ROC d          20.531  28.022  12.796  0.00  0.00     0.279 C 
ATOM      8  C27 ROC d          19.708  28.167  11.534  0.00  0.00     0.048 C 
ATOM      9  C28 ROC d          18.378  27.423  11.698  0.00  0.00    -0.006 C 
ATOM     10  C29 ROC d          17.492  27.660  10.474  0.00  0.00     0.005 C 
ATOM     11  C33 ROC d          17.667  27.934  12.973  0.00  0.00     0.016 C 
ATOM     12  C30 ROC d          17.086  29.153  10.325  0.00  0.00     0.000 C 
ATOM     13  C31 ROC d          16.196  29.413  11.546  0.00  0.00     0.000 C 
ATOM     14  C32 ROC d          17.114  29.322  12.732  0.00  0.00     0.007 C 
ATOM     15  C34 ROC d          18.595  27.843  14.164  0.00  0.00     0.241 C 
ATOM     16  H24 ROC d          19.596  29.574  13.711  0.00  0.00     0.281 HD
BRANCH   7  17
ATOM     17  C26 ROC d          21.821  28.749  12.392  0.00  0.00     0.249 C 
ATOM     18  O5  ROC d          21.712  29.944  12.196  0.00  0.00    -0.271 OA
ATOM     19  N6  ROC d          22.869  27.914  12.283  0.00  0.00    -0.351 N 
ATOM     20  H42 ROC d          22.708  26.948  12.486  0.00  0.00     0.163 HD
BRANCH  19  21
ATOM     21  C35 ROC d          24.219  28.297  11.894  0.00  0.00     0.022 C 
ATOM     22  C36 ROC d          25.000  27.004  11.737  0.00  0.00     0.037 C 
ATOM     23  C37 ROC d          24.488  29.403  12.746  0.00  0.00     0.037 C 
ATOM     24  C38 ROC d          24.131  29.094  10.573  0.00  0.00     0.037 C 
ENDBRANCH  19  21
ENDBRANCH   7  17
ENDBRANCH   5   6
ENDBRANCH   2   5
ENDBRANCH   1   2
BRANCH   1  25
ATOM     25  N4  ROC d          19.894  32.084  16.474  0.00  0.00    -0.352 N 
ATOM     26  C12 ROC d          19.140  32.998  15.853  0.00  0.00     0.241 C 
ATOM     27  O2  ROC d          19.108  33.134  14.610  0.00  0.00    -0.271 OA
ATOM     28  H16 ROC d          19.919  32.072  17.474  0.00  0.00     0.163 HD
BRANCH  26  29
ATOM     29  C11 ROC d          18.322  33.950  16.713  0.00  0.00     0.184 C 
BRANCH  29  30
ATOM     30  N2  ROC d          19.124  35.177  16.900  0.00  0.00    -0.353 N 
ATOM     31  C1  ROC d          19.442  35.707  18.087  0.00  0.00     0.204 C 
ATOM     32  O1  ROC d          18.808  35.193  19.106  0.00  0.00    -0.170 OA
ATOM     33  H7  ROC d          19.453  35.645  16.080  0.00  0.00     0.162 HD
BRANCH  31  34
ATOM     34  C2  ROC d          20.381  36.855  18.038  0.00  0.00     0.111 C 
ATOM     35  N1  ROC d          20.519  37.513  16.816  0.00  0.00    -0.244 NA
ATOM     36  C10 ROC d          21.348  38.604  16.739  0.00  0.00     0.068 C 
ATOM     37  C5  ROC d          22.052  39.084  17.847  0.00  0.00    -0.007 C 
ATOM     38  C9R ROC d          21.567  39.221  15.491  0.00  0.00     0.032 C 
ATOM     39  C4  ROC d          21.990  38.362  19.042  0.00  0.00     0.016 C 
ATOM     40  C6  ROC d          22.874  40.213  17.749  0.00  0.00     0.014 C 
ATOM     41  C3  ROC d          21.061  37.325  19.155  0.00  0.00     0.037 C 
ATOM     42  C7  ROC d          22.875  40.941  16.583  0.00  0.00     0.001 C 
ATOM     43  C8  ROC d          22.220  40.409  15.501  0.00  0.00     0.002 C 
ENDBRANCH  31  34
ENDBRANCH  29  30
BRANCH  29  44
ATOM     44  C13 ROC d          16.967  34.171  16.177  0.00  0.00     0.137 C 
BRANCH  44  45
ATOM     45  C14 ROC d          16.219  35.051  17.123  0.00  0.00     0.217 C 
ATOM     46  O3  ROC d          15.956  36.241  16.885  0.00  0.00    -0.274 OA
ATOM     47  N3  ROC d          15.850  34.526  18.158  0.00  0.00    -0.370 N 
ATOM     48  H11 ROC d          15.344  35.059  18.836  0.00  0.00     0.159 HD
ATOM     49  H12 ROC d          16.053  33.562  18.330  0.00  0.00     0.159 HD
ENDBRANCH  44  45
ENDBRANCH  29  44
ENDBRANCH  26  29
ENDBRANCH   1  25
BRANCH   1  50
ATOM     50  C17 ROC d          22.147  31.312  16.074  0.00  0.00     0.066 C 
BRANCH  50  51
ATOM     51  C18 ROC d          22.595  32.725  16.129  0.00  0.00    -0.056 A 
ATOM     52  C19 ROC d          22.840  33.401  14.920  0.00  0.00     0.007 A 
ATOM     53  C21 ROC d          23.290  34.691  14.966  0.00  0.00     0.001 A 
ATOM     54  C23 ROC d          23.475  35.360  16.149  0.00  0.00     0.000 A 
ATOM     55  C22 ROC d          23.174  34.710  17.323  0.00  0.00     0.001 A 
ATOM     56  C20 ROC d          22.784  33.393  17.326  0.00  0.00     0.007 A 
ENDBRANCH  50  51
ENDBRANCH   1  50
TORSDOF 14
