REMARK  6 active torsions:
REMARK  status: ('A' for Active; 'I' for Inactive)
REMARK    1  A    between atoms: C1_1  and  C2_2 
REMARK    2  A    between atoms: C1_1  and  C10_10 
REMARK    3  A    between atoms: N2_22  and  C1_1 
REMARK    4  A    between atoms: C2_2  and  C3_3 
REMARK    5  A    between atoms: C2_2  and  O2_19 
REMARK    6  A    between atoms: C3_3  and  C4_4 
ROOT
ATOM      1  C10 FNZ d          55.316  42.855  67.009  0.00  0.00    -0.031 A 
ATOM      2  C11 FNZ d          55.722  41.531  67.264  0.00  0.00     0.011 A 
ATOM      3  C12 FNZ d          56.998  41.233  67.797  0.00  0.00     0.023 A 
ATOM      4  C13 FNZ d          57.878  42.302  68.071  0.00  0.00     0.044 A 
ATOM      5  C14 FNZ d          57.484  43.635  67.856  0.00  0.00     0.023 A 
ATOM      6  C15 FNZ d          56.205  43.885  67.331  0.00  0.00     0.011 A 
ATOM      7  C16 FNZ d          59.203  42.037  68.576  0.00  0.00     0.099 C 
ATOM      8  N1  FNZ d          60.253  41.833  68.972  0.00  0.00    -0.191 NA
ENDROOT
BRANCH   1   9
ATOM      9  C1  FNZ d          53.960  43.182  66.378  0.00  0.00     0.173 C 
BRANCH   9  10
ATOM     10  C2  FNZ d          53.635  42.348  65.127  0.00  0.00     0.151 C 
BRANCH  10  11
ATOM     11  C3  FNZ d          54.724  42.505  64.062  0.00  0.00     0.072 C 
BRANCH  11  12
ATOM     12  C4  FNZ d          54.298  41.852  62.771  0.00  0.00    -0.056 A 
ATOM     13  C5  FNZ d          53.576  42.569  61.807  0.00  0.00     0.010 A 
ATOM     14  C6  FNZ d          53.139  41.959  60.613  0.00  0.00     0.043 A 
ATOM     15  C7  FNZ d          53.450  40.626  60.391  0.00  0.00     0.116 A 
ATOM     16  C8  FNZ d          54.182  39.890  61.319  0.00  0.00     0.043 A 
ATOM     17  F7  FNZ d          53.030  40.021  59.236  0.00  0.00    -0.206 F 
ATOM     18  C9  FNZ d          54.596  40.511  62.512  0.00  0.00     0.010 A 
ENDBRANCH  11  12
ENDBRANCH  10  11
BRANCH  10  19
ATOM     19  O2  FNZ d          53.511  40.966  65.484  0.00  0.00    -0.393 OA
ATOM     20  H15 FNZ d          52.835  40.870  66.145  0.00  0.00     0.210 HD
ENDBRANCH  10  19
ENDBRANCH   9  10
BRANCH   9  21
ATOM     21  N2  FNZ d          52.837  43.032  67.334  0.00  0.00    -0.251 N 
ATOM     22  C18 FNZ d          52.804  42.592  68.619  0.00  0.00     0.230 A 
ATOM     23  N4  FNZ d          51.580  42.654  69.070  0.00  0.00    -0.234 NA
ATOM     24  C17 FNZ d          50.889  43.099  68.036  0.00  0.00     0.256 A 
ATOM     25  N3  FNZ d          51.576  43.362  66.952  0.00  0.00    -0.164 NA
ENDBRANCH   9  21
ENDBRANCH   1   9
TORSDOF 6
