REMARK  19 active torsions:
REMARK  status: ('A' for Active; 'I' for Inactive)
REMARK    1  A    between atoms: C1_1  and  C2_2 
REMARK    2  A    between atoms: C1_1  and  C15_14 
REMARK    3  A    between atoms: C1_1  and  O22_21 
REMARK    4  A    between atoms: C23_22  and  C1_1 
REMARK       I    between atoms: C2_2  and  N4_4 
REMARK    5  A    between atoms: N4_4  and  C5_5 
REMARK    6  A    between atoms: C5_5  and  C6_6 
REMARK    7  A    between atoms: C5_5  and  C11_11 
REMARK       I    between atoms: C11_11  and  N10_10 
REMARK    8  A    between atoms: C15_14  and  C16_15 
REMARK    9  A    between atoms: C24_23  and  C23_22 
REMARK   10  A    between atoms: C25_24  and  C24_23 
REMARK   11  A    between atoms: N26_25  and  C25_24 
REMARK   12  A    between atoms: C27_26  and  N26_25 
REMARK   13  A    between atoms: N26_25  and  N43_41 
REMARK   14  A    between atoms: C28_27  and  C27_26 
REMARK   15  A    between atoms: C56_48  and  C31_30 
REMARK   16  A    between atoms: C41_39  and  C35_33 
REMARK   17  A    between atoms: C38_36  and  O37_35 
REMARK       I    between atoms: N40_38  and  C38_36 
REMARK   18  A    between atoms: C41_39  and  N40_38 
REMARK   19  A    between atoms: C42_40  and  C41_39 
REMARK       I    between atoms: N43_41  and  C42_40 
ROOT
ATOM      1  N26 G40 d          15.457  22.373   7.116  0.00  0.00     0.015 N 
ATOM      2  H30 G40 d          14.557  22.029   7.413  0.00  0.00     0.309 HD
ENDROOT
BRANCH   1   3
ATOM      3  C25 G40 d          15.325  23.692   6.587  0.00  0.00     0.263 C 
BRANCH   3   4
ATOM      4  C24 G40 d          13.859  24.042   6.394  0.00  0.00     0.033 C 
BRANCH   4   5
ATOM      5  C23 G40 d          13.313  23.636   4.997  0.00  0.00     0.050 C 
BRANCH   5   6
ATOM      6  C1  G40 d          11.958  24.270   4.581  0.00  0.00     0.142 C 
BRANCH   6   7
ATOM      7  C2  G40 d          10.774  24.238   5.601  0.00  0.00     0.253 C 
ATOM      8  O3  G40 d          10.490  23.232   6.255  0.00  0.00    -0.270 OA
ATOM      9  N4  G40 d          10.073  25.390   5.672  0.00  0.00    -0.344 N 
ATOM     10  H1  G40 d          10.416  26.127   5.090  0.00  0.00     0.163 HD
BRANCH   9  11
ATOM     11  C5  G40 d           8.820  25.753   6.512  0.00  0.00     0.184 C 
BRANCH  11  12
ATOM     12  C6  G40 d           9.031  26.313   8.055  0.00  0.00    -0.022 C 
ATOM     13  C7  G40 d           7.668  26.627   8.767  0.00  0.00     0.017 C 
ATOM     14  C8  G40 d           9.838  27.618   8.101  0.00  0.00     0.017 C 
ATOM     15  C13 G40 d           9.802  25.311   8.922  0.00  0.00     0.017 C 
ENDBRANCH  11  12
BRANCH  11  16
ATOM     16  C11 G40 d           8.045  26.737   5.661  0.00  0.00     0.240 C 
ATOM     17  N10 G40 d           6.788  26.239   5.479  0.00  0.00    -0.364 N 
ATOM     18  C9  G40 d           5.706  26.864   4.711  0.00  0.00     0.149 C 
ATOM     19  H12 G40 d           6.584  25.361   5.912  0.00  0.00     0.161 HD
ATOM     20  O12 G40 d           8.453  27.802   5.194  0.00  0.00    -0.271 OA
ENDBRANCH  11  16
ENDBRANCH   9  11
ENDBRANCH   6   7
BRANCH   6  21
ATOM     21  C15 G40 d          11.428  23.603   3.236  0.00  0.00     0.086 C 
BRANCH  21  22
ATOM     22  C16 G40 d          10.048  24.143   2.725  0.00  0.00    -0.055 A 
ATOM     23  C17 G40 d           8.870  23.274   2.849  0.00  0.00     0.007 A 
ATOM     24  C18 G40 d           7.572  23.737   2.402  0.00  0.00     0.001 A 
ATOM     25  C19 G40 d           7.430  25.067   1.827  0.00  0.00     0.000 A 
ATOM     26  C20 G40 d           8.588  25.933   1.699  0.00  0.00     0.001 A 
ATOM     27  C21 G40 d           9.890  25.470   2.147  0.00  0.00     0.007 A 
ENDBRANCH  21  22
ENDBRANCH   6  21
BRANCH   6  28
ATOM     28  O22 G40 d          12.334  25.613   4.270  0.00  0.00    -0.380 OA
ATOM     29  H23 G40 d          12.656  26.040   5.055  0.00  0.00     0.211 HD
ENDBRANCH   6  28
ENDBRANCH   5   6
ENDBRANCH   4   5
ENDBRANCH   3   4
ENDBRANCH   1   3
BRANCH   1  30
ATOM     30  C27 G40 d          16.385  22.378   8.236  0.00  0.00     0.301 C 
BRANCH  30  31
ATOM     31  C28 G40 d          16.595  21.042   8.950  0.00  0.00    -0.030 A 
ATOM     32  C29 G40 d          15.427  20.283   9.363  0.00  0.00     0.010 A 
ATOM     33  C30 G40 d          15.593  19.025  10.033  0.00  0.00     0.013 A 
ATOM     34  C31 G40 d          16.930  18.507  10.302  0.00  0.00    -0.025 A 
ATOM     35  C32 G40 d          18.111  19.265   9.887  0.00  0.00     0.013 A 
ATOM     36  C33 G40 d          17.937  20.546   9.202  0.00  0.00     0.010 A 
BRANCH  34  37
ATOM     37  C56 G40 d          17.029  17.212  11.010  0.00  0.00    -0.019 A 
ATOM     38  C55 G40 d          15.923  16.306  11.187  0.00  0.00     0.061 A 
ATOM     39  S54 G40 d          16.344  14.834  12.085  0.00  0.00    -0.113 SA
ATOM     40  C58 G40 d          18.020  15.429  12.232  0.00  0.00     0.050 A 
ATOM     41  C57 G40 d          18.233  16.690  11.621  0.00  0.00     0.020 A 
ENDBRANCH  34  37
ENDBRANCH  30  31
ENDBRANCH   1  30
BRANCH   1  42
ATOM     42  N43 G40 d          15.971  21.577   6.155  0.00  0.00    -0.185 N 
ATOM     43  C42 G40 d          15.297  20.544   5.609  0.00  0.00     0.265 C 
ATOM     44  O44 G40 d          14.134  20.240   5.948  0.00  0.00    -0.269 OA
ATOM     45  H42 G40 d          16.899  21.762   5.831  0.00  0.00     0.197 HD
BRANCH  43  46
ATOM     46  C41 G40 d          16.037  19.740   4.537  0.00  0.00     0.188 C 
BRANCH  46  47
ATOM     47  C35 G40 d          15.321  18.910   3.406  0.00  0.00    -0.022 C 
ATOM     48  C45 G40 d          16.392  18.254   2.525  0.00  0.00     0.017 C 
ATOM     49  C46 G40 d          14.510  19.777   2.466  0.00  0.00     0.017 C 
ATOM     50  C47 G40 d          14.477  17.772   3.970  0.00  0.00     0.017 C 
ENDBRANCH  46  47
BRANCH  46  51
ATOM     51  N40 G40 d          16.817  18.894   5.474  0.00  0.00    -0.323 N 
ATOM     52  C38 G40 d          18.138  18.959   5.636  0.00  0.00     0.360 C 
ATOM     53  O39 G40 d          18.923  19.707   5.059  0.00  0.00    -0.239 OA
ATOM     54  H40 G40 d          16.315  18.227   6.024  0.00  0.00     0.165 HD
BRANCH  52  55
ATOM     55  O37 G40 d          18.523  18.005   6.608  0.00  0.00    -0.309 OA
ATOM     56  C36 G40 d          19.912  17.681   6.760  0.00  0.00     0.215 C 
ENDBRANCH  52  55
ENDBRANCH  46  51
ENDBRANCH  43  46
ENDBRANCH   1  42
TORSDOF 19
