REMARK  3 active torsions:
REMARK  status: ('A' for Active; 'I' for Inactive)
REMARK    1  A    between atoms: P_1  and  O3_5 
REMARK    2  A    between atoms: O3_5  and  C2_6 
REMARK    3  A    between atoms: C2_6  and  C1_7 
ROOT
ATOM      1  O3  PGA d          92.159  42.741  48.485  0.00  0.00    -0.272 OA
ENDROOT
BRANCH   1   2
ATOM      2  P   PGA d          93.628  42.741  47.723  0.00  0.00     0.422 P 
ATOM      3  O4  PGA d          93.877  44.252  47.570  0.00  0.00    -0.617 OA
ATOM      4  O5  PGA d          93.112  42.237  46.389  0.00  0.00    -0.617 OA
ATOM      5  O6  PGA d          94.713  41.901  48.333  0.00  0.00    -0.617 OA
ENDBRANCH   1   2
BRANCH   1   6
ATOM      6  C2  PGA d          92.148  42.741  49.857  0.00  0.00     0.295 C 
BRANCH   6   7
ATOM      7  C1  PGA d          90.718  43.077  50.391  0.00  0.00     0.198 C 
ATOM      8  O1  PGA d          89.801  43.580  49.667  0.00  0.00    -0.646 OA
ATOM      9  O2  PGA d          90.713  42.909  51.725  0.00  0.00    -0.646 OA
ENDBRANCH   6   7
ENDBRANCH   1   6
TORSDOF 3
