4ww6_ligand

Created by X-TOOL on Sun Nov 13 14:27:06 2016
 27 27  0  0  0  0  0  0  0  0999 V2000
   14.9050    7.4260   15.2380  F 0  0  0  1  0  1
   15.4290    6.1970   15.0370  C 0  0  0  1  0  3
   15.1010    5.1840   15.8730  C 0  0  0  1  0  3
   14.2800    5.5020   16.9350  F 0  0  0  1  0  1
   16.2090    5.9850   13.9610  C 0  0  0  1  0  3
   16.5400    7.2800   12.8200  S 0  0  0  1  0  2
   18.3100    7.2730   12.6630  C 0  0  0  3  0  4
   18.9590    7.5280   13.9370  C 0  0  0  3  0  4
   18.8340    8.8930   14.4850  C 0  0  0  4  0  4
   16.7080    4.6930   13.8160  C 0  0  0  1  0  3
   17.4830    4.3880   12.7960  F 0  0  0  1  0  1
   16.3710    3.6640   14.7090  C 0  0  0  1  0  3
   16.8910    2.4770   14.4410  F 0  0  0  1  0  1
   15.5610    3.9270   15.7690  C 0  0  0  1  0  3
   15.0950    2.6600   16.8920  S 0  0  0  1  0  4
   13.6660    2.7270   16.8200  O 0  0  0  1  0  1
   15.7440    2.9680   18.1330  O 0  0  0  1  0  1
   15.5830    1.3030   16.3230  N 0  0  0  3  0  3
   18.6084    8.0534   11.9475  H 0  0  0  1  0  1
   18.6316    6.2900   12.2886  H 0  0  0  1  0  1
   20.0312    7.3159   13.8129  H 0  0  0  1  0  1
   18.5306    6.8328   14.6740  H 0  0  0  1  0  1
   19.3662    8.9525   15.4458  H 0  0  0  1  0  1
   17.7711    9.1303   14.6394  H 0  0  0  1  0  1
   19.2716    9.6134   13.7782  H 0  0  0  1  0  1
   15.4084    0.4575   16.8276  H 0  0  0  1  0  1
   16.0723    1.2732   15.4514  H 0  0  0  1  0  1
  1  2  1  0  0  2
  2  3  4  0  0  1
  2  5  4  0  0  1
  3  4  1  0  0  2
  3 14  4  0  0  1
  5  6  1  0  0  2
  5 10  4  0  0  1
  6  7  1  0  0  2
  7  8  1  0  0  2
  8  9  1  0  0  2
 10 11  1  0  0  2
 10 12  4  0  0  1
 12 13  1  0  0  2
 12 14  4  0  0  1
 14 15  1  0  0  2
 15 16  2  0  0  2
 15 17  2  0  0  2
 15 18  1  0  0  2
  7 19  1  0  0  2
  7 20  1  0  0  2
  8 21  1  0  0  2
  8 22  1  0  0  2
  9 23  1  0  0  2
  9 24  1  0  0  2
  9 25  1  0  0  2
 18 26  1  0  0  2
 18 27  1  0  0  2
M  END
> <MOLECULAR_FORMULA>
C9H9NO2S2F4

> <MOLECULAR_WEIGHT>
303.2

> <NUM_HB_ATOMS>
4  

> <NUM_ROTOR>
4  

> <XLOGP2>
2.26 

$$$$
