REMARK  2 active torsions:
REMARK  status: ('A' for Active; 'I' for Inactive)
REMARK    1  A    between atoms: C3_3  and  O3_4 
REMARK    2  A    between atoms: C17_18  and  O17_19 
ROOT
ATOM      1  C1  EST d           0.867  53.138 165.015  0.00  0.00     0.011 A 
ATOM      2  C2  EST d           2.248  53.192 164.790  0.00  0.00     0.037 A 
ATOM      3  C3  EST d           3.036  52.026 164.934  0.00  0.00     0.066 A 
ATOM      4  C4  EST d           2.441  50.793 165.309  0.00  0.00     0.044 A 
ATOM      5  C5  EST d           1.021  50.721 165.550  0.00  0.00    -0.049 A 
ATOM      6  C6  EST d           0.383  49.385 165.972  0.00  0.00     0.039 C 
ATOM      7  C7  EST d          -1.148  49.432 166.243  0.00  0.00     0.010 C 
ATOM      8  C8  EST d          -1.894  50.448 165.374  0.00  0.00    -0.001 C 
ATOM      9  C9  EST d          -1.299  51.878 165.635  0.00  0.00     0.023 C 
ATOM     10  C10 EST d           0.219  51.922 165.392  0.00  0.00    -0.047 A 
ATOM     11  C11 EST d          -2.070  52.889 164.762  0.00  0.00     0.010 C 
ATOM     12  C12 EST d          -3.592  52.893 164.963  0.00  0.00     0.013 C 
ATOM     13  C13 EST d          -4.209  51.502 164.763  0.00  0.00    -0.014 C 
ATOM     14  C14 EST d          -3.447  50.492 165.685  0.00  0.00     0.001 C 
ATOM     15  C15 EST d          -4.335  49.258 165.546  0.00  0.00     0.008 C 
ATOM     16  C16 EST d          -5.785  49.837 165.713  0.00  0.00     0.033 C 
ATOM     17  C17 EST d          -5.660  51.334 165.301  0.00  0.00     0.126 C 
ATOM     18  C18 EST d          -4.186  51.104 163.241  0.00  0.00     0.018 C 
ENDROOT
BRANCH   3  19
ATOM     19  O3  EST d           4.395  52.106 164.705  0.00  0.00    -0.361 OA
ATOM     20  H3  EST d           4.788  51.252 164.839  0.00  0.00     0.217 HD
ENDBRANCH   3  19
BRANCH  17  21
ATOM     21  O17 EST d          -6.731  51.675 164.356  0.00  0.00    -0.395 OA
ATOM     22  H21 EST d          -6.653  52.588 164.106  0.00  0.00     0.210 HD
ENDBRANCH  17  21
TORSDOF 2
