REMARK  14 active torsions:
REMARK  status: ('A' for Active; 'I' for Inactive)
REMARK    1  A    between atoms: C3_2  and  C30_14 
REMARK    2  A    between atoms: C4_3  and  O4_39 
REMARK    3  A    between atoms: C5_4  and  O5_40 
REMARK    4  A    between atoms: C6_5  and  C60_21 
REMARK    5  A    between atoms: N2_36  and  C20_6 
REMARK    6  A    between atoms: C20_6  and  C21_7 
REMARK    7  A    between atoms: C24_10  and  C27_13 
REMARK    8  A    between atoms: C27_13  and  O27_41 
REMARK    9  A    between atoms: C30_14  and  C31_15 
REMARK   10  A    between atoms: C60_21  and  C61_22 
REMARK   11  A    between atoms: N7_37  and  C70_28 
REMARK   12  A    between atoms: C70_28  and  C71_29 
REMARK   13  A    between atoms: C74_32  and  C77_35 
REMARK   14  A    between atoms: C77_35  and  O77_42 
ROOT
ATOM      1  C1  DMP d          -8.824  15.289  27.796  0.00  0.00     0.322 C 
ATOM      2  C3  DMP d          -8.765  17.612  26.894  0.00  0.00     0.124 C 
ATOM      3  C4  DMP d         -10.151  18.142  27.120  0.00  0.00     0.172 C 
ATOM      4  C5  DMP d         -10.611  17.866  28.529  0.00  0.00     0.172 C 
ATOM      5  C6  DMP d         -10.873  16.392  28.778  0.00  0.00     0.124 C 
ATOM      6  N2  DMP d          -8.600  16.156  26.822  0.00  0.00    -0.322 N 
ATOM      7  N7  DMP d          -9.694  15.505  28.807  0.00  0.00    -0.322 N 
ATOM      8  O1  DMP d          -8.174  14.259  27.758  0.00  0.00    -0.247 OA
ENDROOT
BRANCH   6   9
ATOM      9  C20 DMP d          -7.895  15.606  25.658  0.00  0.00     0.166 C 
BRANCH   9  10
ATOM     10  C21 DMP d          -8.394  16.004  24.314  0.00  0.00    -0.040 A 
ATOM     11  C26 DMP d          -7.424  16.281  23.354  0.00  0.00     0.009 A 
ATOM     12  C25 DMP d          -7.826  16.569  22.038  0.00  0.00     0.010 A 
ATOM     13  C24 DMP d          -9.189  16.600  21.702  0.00  0.00    -0.035 A 
ATOM     14  C23 DMP d         -10.175  16.342  22.667  0.00  0.00     0.010 A 
ATOM     15  C22 DMP d          -9.762  16.035  23.981  0.00  0.00     0.009 A 
BRANCH  13  16
ATOM     16  C27 DMP d          -9.583  16.878  20.299  0.00  0.00     0.202 C 
BRANCH  16  17
ATOM     17  O27 DMP d          -9.017  18.125  19.920  0.00  0.00    -0.396 OA
ATOM     18  H37 DMP d          -9.258  18.321  19.022  0.00  0.00     0.209 HD
ENDBRANCH  16  17
ENDBRANCH  13  16
ENDBRANCH   9  10
ENDBRANCH   6   9
BRANCH   2  19
ATOM     19  C30 DMP d          -7.675  18.190  27.782  0.00  0.00     0.066 C 
BRANCH  19  20
ATOM     20  C31 DMP d          -6.309  18.078  27.133  0.00  0.00    -0.056 A 
ATOM     21  C36 DMP d          -5.987  18.897  26.035  0.00  0.00     0.007 A 
ATOM     22  C35 DMP d          -4.722  18.782  25.415  0.00  0.00     0.001 A 
ATOM     23  C34 DMP d          -3.792  17.838  25.906  0.00  0.00     0.000 A 
ATOM     24  C33 DMP d          -4.115  17.017  27.002  0.00  0.00     0.001 A 
ATOM     25  C32 DMP d          -5.371  17.139  27.617  0.00  0.00     0.007 A 
ENDBRANCH  19  20
ENDBRANCH   2  19
BRANCH   7  26
ATOM     26  C70 DMP d          -9.516  14.673  30.003  0.00  0.00     0.166 C 
BRANCH  26  27
ATOM     27  C71 DMP d          -9.618  15.285  31.376  0.00  0.00    -0.040 A 
ATOM     28  C76 DMP d          -9.014  16.523  31.681  0.00  0.00     0.009 A 
ATOM     29  C75 DMP d          -9.070  17.022  32.989  0.00  0.00     0.010 A 
ATOM     30  C74 DMP d          -9.735  16.267  33.988  0.00  0.00    -0.035 A 
ATOM     31  C73 DMP d         -10.352  15.036  33.682  0.00  0.00     0.010 A 
ATOM     32  C72 DMP d         -10.297  14.540  32.375  0.00  0.00     0.009 A 
BRANCH  30  33
ATOM     33  C77 DMP d          -9.736  16.774  35.410  0.00  0.00     0.202 C 
BRANCH  33  34
ATOM     34  O77 DMP d         -11.072  16.738  35.880  0.00  0.00    -0.396 OA
ATOM     35  H38 DMP d         -11.100  17.053  36.776  0.00  0.00     0.209 HD
ENDBRANCH  33  34
ENDBRANCH  30  33
ENDBRANCH  26  27
ENDBRANCH   7  26
BRANCH   3  36
ATOM     36  O4  DMP d         -10.025  19.497  26.834  0.00  0.00    -0.391 OA
ATOM     37  H35 DMP d         -10.866  19.924  26.951  0.00  0.00     0.210 HD
ENDBRANCH   3  36
BRANCH   5  38
ATOM     38  C60 DMP d         -11.989  15.736  27.935  0.00  0.00     0.066 C 
BRANCH  38  39
ATOM     39  C61 DMP d         -12.534  14.482  28.586  0.00  0.00    -0.056 A 
ATOM     40  C66 DMP d         -12.195  13.216  28.067  0.00  0.00     0.007 A 
ATOM     41  C65 DMP d         -12.548  12.050  28.775  0.00  0.00     0.001 A 
ATOM     42  C64 DMP d         -13.239  12.152  29.996  0.00  0.00     0.000 A 
ATOM     43  C63 DMP d         -13.601  13.414  30.513  0.00  0.00     0.001 A 
ATOM     44  C62 DMP d         -13.261  14.587  29.804  0.00  0.00     0.007 A 
ENDBRANCH  38  39
ENDBRANCH   5  38
BRANCH   4  45
ATOM     45  O5  DMP d         -11.802  18.523  28.852  0.00  0.00    -0.391 OA
ATOM     46  H36 DMP d         -11.678  19.461  28.766  0.00  0.00     0.210 HD
ENDBRANCH   4  45
TORSDOF 14
