REMARK  7 active torsions:
REMARK  status: ('A' for Active; 'I' for Inactive)
REMARK    1  A    between atoms: O1_1  and  C2_2 
REMARK    2  A    between atoms: C2_2  and  C3_3 
REMARK    3  A    between atoms: C3_3  and  N4_4 
REMARK    4  A    between atoms: N4_4  and  C6_5 
REMARK    5  A    between atoms: C11_12  and  C20_19 
REMARK    6  A    between atoms: C14_17  and  N15_18 
REMARK    7  A    between atoms: C20_19  and  C21_20 
ROOT
ATOM      1  C6  G3R d           2.337   8.101  28.833  0.00  0.00     0.030 A 
ATOM      2  C7  G3R d           0.977   8.397  29.014  0.00  0.00     0.030 A 
ATOM      3  C19 G3R d           0.274   9.213  28.110  0.00  0.00     0.020 A 
ATOM      4  C8  G3R d           3.008   8.592  27.705  0.00  0.00     0.061 A 
ATOM      5  C9  G3R d           2.309   9.384  26.783  0.00  0.00     0.075 A 
ATOM      6  C18 G3R d           0.944   9.708  26.993  0.00  0.00     0.039 A 
ATOM      7  N10 G3R d           2.957   9.841  25.674  0.00  0.00    -0.232 NA
ATOM      8  C11 G3R d           2.322  10.613  24.779  0.00  0.00     0.135 A 
ATOM      9  N12 G3R d           1.027  10.933  24.967  0.00  0.00    -0.186 N 
ATOM     10  N13 G3R d           0.274  11.724  24.108  0.00  0.00     0.027 NA
ATOM     11  C17 G3R d           0.351  10.494  26.018  0.00  0.00     0.159 A 
ATOM     12  N16 G3R d          -0.902  10.962  25.920  0.00  0.00    -0.171 N 
ATOM     13  C14 G3R d          -0.890  11.664  24.758  0.00  0.00     0.717 A 
ATOM     14  H1  G3R d          -1.687  10.822  26.572  0.00  0.00     0.186 HD
ENDROOT
BRANCH   8  15
ATOM     15  C20 G3R d           3.121  11.099  23.594  0.00  0.00     0.119 C 
BRANCH  15  16
ATOM     16  C21 G3R d           4.034  12.255  23.975  0.00  0.00    -0.048 A 
ATOM     17  C22 G3R d           3.483  13.408  24.507  0.00  0.00     0.047 A 
ATOM     18  C23 G3R d           4.347  14.443  24.814  0.00  0.00     0.105 A 
ATOM     19  O24 G3R d           4.049  15.666  25.342  0.00  0.00    -0.323 OA
ATOM     20  C27 G3R d           5.678  14.351  24.604  0.00  0.00     0.105 A 
ATOM     21  C25 G3R d           5.257  16.377  25.590  0.00  0.00     0.352 A 
ATOM     22  O26 G3R d           6.252  15.522  25.000  0.00  0.00    -0.323 OA
ATOM     23  C28 G3R d           6.287  13.203  24.075  0.00  0.00     0.040 A 
ATOM     24  C29 G3R d           5.419  12.159  23.769  0.00  0.00     0.010 A 
ENDBRANCH  15  16
ENDBRANCH   8  15
BRANCH  13  25
ATOM     25  N15 G3R d          -1.993  12.328  24.276  0.00  0.00    -0.231 N 
ATOM     26  H   G3R d          -1.934  12.848  23.389  0.00  0.00     0.174 HD
ATOM     27  H   G3R d          -2.878  12.306  24.802  0.00  0.00     0.174 HD
ENDBRANCH  13  25
BRANCH   1  28
ATOM     28  N4  G3R d           3.014   7.322  29.738  0.00  0.00    -0.388 N 
ATOM     29  H   G3R d           2.498   6.655  30.330  0.00  0.00     0.159 HD
BRANCH  28  30
ATOM     30  C3  G3R d           4.467   7.437  29.864  0.00  0.00     0.146 C 
BRANCH  30  31
ATOM     31  C2  G3R d           5.094   6.311  30.675  0.00  0.00     0.183 C 
BRANCH  31  32
ATOM     32  O1  G3R d           4.718   6.499  32.039  0.00  0.00    -0.399 OA
ATOM     33  H   G3R d           5.036   7.342  32.341  0.00  0.00     0.209 HD
ENDBRANCH  31  32
ENDBRANCH  30  31
ENDBRANCH  28  30
ENDBRANCH   1  28
TORSDOF 7
