REMARK  10 active torsions:
REMARK  status: ('A' for Active; 'I' for Inactive)
REMARK    1  A    between atoms: C23_28  and  C1_1 
REMARK    2  A    between atoms: C16_10  and  C17_24 
REMARK    3  A    between atoms: C27_14  and  N26_13 
REMARK    4  A    between atoms: N26_13  and  C25_30 
REMARK    5  A    between atoms: N26_13  and  S32_33 
REMARK    6  A    between atoms: C28_31  and  C27_14 
REMARK    7  A    between atoms: S32_33  and  C35_17 
REMARK    8  A    between atoms: C23_28  and  O24_29 
REMARK    9  A    between atoms: C25_30  and  C23_28 
REMARK   10  A    between atoms: C28_31  and  C29_32 
ROOT
ATOM      1  C1  HBB d           5.669  -0.238  14.342  0.00  0.00     0.119 C 
ATOM      2  C2  HBB d           7.083   0.374  14.255  0.00  0.00     0.066 C 
ATOM      3  C3  HBB d           7.348   1.086  12.945  0.00  0.00    -0.056 A 
ATOM      4  C7  HBB d           7.741   1.022  10.554  0.00  0.00     0.037 A 
ATOM      5  C8  HBB d           7.606   0.370  11.768  0.00  0.00     0.010 A 
ATOM      6  C10 HBB d           6.325   3.084   8.776  0.00  0.00     0.176 C 
ATOM      7  C11 HBB d           5.498   4.253   9.360  0.00  0.00     0.036 C 
ATOM      8  C12 HBB d           4.001   3.961   9.469  0.00  0.00     0.105 C 
ATOM      9  C13 HBB d           3.562   3.424  10.820  0.00  0.00     0.218 C 
ATOM     10  C16 HBB d           2.973   1.464  12.181  0.00  0.00     0.179 C 
ATOM     11  C20 HBB d           3.926   0.366  12.694  0.00  0.00     0.241 C 
ATOM     12  C4  HBB d           7.245   2.474  12.864  0.00  0.00     0.010 A 
ATOM     13  C5  HBB d           7.379   3.127  11.658  0.00  0.00     0.037 A 
ATOM     14  C6  HBB d           7.618   2.399  10.504  0.00  0.00     0.068 A 
ATOM     15  O9  HBB d           7.663   3.055   9.291  0.00  0.00    -0.351 OA
ATOM     16  O14 HBB d           3.435   4.187  11.785  0.00  0.00    -0.274 OA
ATOM     17  N15 HBB d           3.397   2.103  10.910  0.00  0.00    -0.347 N 
ATOM     18  O21 HBB d           3.957  -0.755  12.155  0.00  0.00    -0.271 OA
ATOM     19  N22 HBB d           4.682   0.698  13.747  0.00  0.00    -0.352 N 
ATOM     20  H26 HBB d           3.562   1.532  10.106  0.00  0.00     0.163 HD
ATOM     21  H31 HBB d           4.579   1.609  14.147  0.00  0.00     0.163 HD
ENDROOT
BRANCH   1  22
ATOM     22  C23 HBB d           5.312  -0.548  15.809  0.00  0.00     0.159 C 
BRANCH  22  23
ATOM     23  O24 HBB d           5.257   0.665  16.562  0.00  0.00    -0.392 OA
ATOM     24  H33 HBB d           5.037   0.466  17.465  0.00  0.00     0.210 HD
ENDBRANCH  22  23
BRANCH  22  25
ATOM     25  C25 HBB d           6.343  -1.491  16.448  0.00  0.00     0.169 C 
BRANCH  25  26
ATOM     26  N26 HBB d           6.370  -2.818  15.817  0.00  0.00    -0.304 N 
BRANCH  26  27
ATOM     27  C27 HBB d           5.707  -3.595  16.892  0.00  0.00     0.136 C 
BRANCH  27  28
ATOM     28  C28 HBB d           4.798  -4.535  16.118  0.00  0.00     0.024 C 
BRANCH  28  29
ATOM     29  C29 HBB d           3.301  -4.320  16.345  0.00  0.00    -0.021 C 
ATOM     30  C30 HBB d           2.935  -2.844  16.327  0.00  0.00     0.009 C 
ATOM     31  C31 HBB d           2.569  -5.046  15.230  0.00  0.00     0.009 C 
ENDBRANCH  28  29
ENDBRANCH  27  28
ENDBRANCH  26  27
BRANCH  26  32
ATOM     32  S32 HBB d           7.524  -3.543  14.884  0.00  0.00     0.260 S 
ATOM     33  O33 HBB d           8.344  -2.509  14.248  0.00  0.00    -0.200 OA
ATOM     34  O34 HBB d           6.869  -4.328  13.848  0.00  0.00    -0.200 OA
BRANCH  32  35
ATOM     35  C35 HBB d           8.529  -4.504  15.796  0.00  0.00     0.079 A 
ATOM     36  C36 HBB d           9.666  -3.961  16.406  0.00  0.00     0.025 A 
ATOM     37  C37 HBB d          10.515  -4.758  17.172  0.00  0.00     0.002 A 
ATOM     38  C38 HBB d          10.240  -6.112  17.328  0.00  0.00     0.000 A 
ATOM     39  C39 HBB d           9.112  -6.668  16.723  0.00  0.00     0.002 A 
ATOM     40  C40 HBB d           8.266  -5.863  15.960  0.00  0.00     0.025 A 
ENDBRANCH  32  35
ENDBRANCH  26  32
ENDBRANCH  25  26
ENDBRANCH  22  25
ENDBRANCH   1  22
BRANCH  10  41
ATOM     41  C17 HBB d           1.528   0.920  12.073  0.00  0.00     0.009 C 
ATOM     42  C19 HBB d           0.544   2.078  11.876  0.00  0.00     0.012 C 
ATOM     43  C18 HBB d           1.147   0.132  13.306  0.00  0.00     0.012 C 
ENDBRANCH  10  41
TORSDOF 10
