REMARK  12 active torsions:
REMARK  status: ('A' for Active; 'I' for Inactive)
REMARK    1  A    between atoms: C1'_14  and  N9_10 
REMARK    2  A    between atoms: O5'_36  and  P_11 
REMARK    3  A    between atoms: O15_34  and  PB_12 
REMARK    4  A    between atoms: O2'_20  and  C10_13 
REMARK    5  A    between atoms: C12_17  and  O12_18 
REMARK    6  A    between atoms: C2'_19  and  O2'_20 
REMARK    7  A    between atoms: C13_23  and  O13_24 
REMARK    8  A    between atoms: C3'_25  and  O3'_26 
REMARK    9  A    between atoms: C14_29  and  C15_33 
REMARK   10  A    between atoms: C5'_35  and  C4'_31 
REMARK   11  A    between atoms: C15_33  and  O15_34 
REMARK   12  A    between atoms: C5'_35  and  O5'_36 
ROOT
ATOM      1  C1' V3L d          24.458  55.279  82.613  0.00  0.00     0.262 C 
ATOM      2  C2' V3L d          23.976  55.101  84.057  0.00  0.00     0.205 C 
ATOM      3  C3' V3L d          22.966  53.952  83.949  0.00  0.00     0.182 C 
ATOM      4  C4' V3L d          22.498  53.993  82.498  0.00  0.00     0.180 C 
ATOM      5  O4' V3L d          23.393  54.860  81.791  0.00  0.00    -0.353 OA
ENDROOT
BRANCH   2   6
ATOM      6  O2' V3L d          25.115  54.848  84.894  0.00  0.00    -0.346 OA
BRANCH   6   7
ATOM      7  C10 V3L d          25.041  55.306  86.244  0.00  0.00     0.292 C 
ATOM      8  C12 V3L d          26.416  55.222  86.903  0.00  0.00     0.204 C 
ATOM      9  C13 V3L d          26.520  53.755  87.309  0.00  0.00     0.182 C 
ATOM     10  C14 V3L d          25.070  53.316  87.455  0.00  0.00     0.180 C 
ATOM     11  O14 V3L d          24.240  54.389  86.987  0.00  0.00    -0.348 OA
BRANCH   8  12
ATOM     12  O12 V3L d          27.449  55.609  86.008  0.00  0.00    -0.388 OA
ATOM     13  H8  V3L d          27.443  55.034  85.251  0.00  0.00     0.210 HD
ENDBRANCH   8  12
BRANCH   9  14
ATOM     14  O13 V3L d          27.172  52.954  86.316  0.00  0.00    -0.390 OA
ATOM     15  H11 V3L d          28.052  53.282  86.175  0.00  0.00     0.210 HD
ENDBRANCH   9  14
BRANCH  10  16
ATOM     16  C15 V3L d          24.700  52.968  88.894  0.00  0.00     0.217 C 
BRANCH  16  17
ATOM     17  O15 V3L d          25.068  54.012  89.794  0.00  0.00    -0.280 OA
BRANCH  17  18
ATOM     18  PB  V3L d          24.488  54.108  91.278  0.00  0.00     0.422 P 
ATOM     19  O1B V3L d          25.321  55.169  91.928  0.00  0.00    -0.617 OA
ATOM     20  O2B V3L d          23.039  54.513  91.163  0.00  0.00    -0.617 OA
ATOM     21  O3B V3L d          24.673  52.708  91.802  0.00  0.00    -0.617 OA
ENDBRANCH  17  18
ENDBRANCH  16  17
ENDBRANCH  10  16
ENDBRANCH   6   7
ENDBRANCH   2   6
BRANCH   1  22
ATOM     22  N9  V3L d          24.775  56.712  82.436  0.00  0.00    -0.294 N 
ATOM     23  C4  V3L d          25.997  57.224  82.403  0.00  0.00     0.167 A 
ATOM     24  N3  V3L d          27.257  56.733  82.413  0.00  0.00    -0.222 NA
ATOM     25  C5  V3L d          25.787  58.667  82.310  0.00  0.00     0.149 A 
ATOM     26  C2  V3L d          28.319  57.552  82.335  0.00  0.00     0.237 A 
ATOM     27  N1  V3L d          28.211  58.899  82.245  0.00  0.00    -0.222 NA
ATOM     28  C6  V3L d          26.994  59.507  82.257  0.00  0.00     0.155 A 
ATOM     29  N6  V3L d          26.832  60.832  82.183  0.00  0.00    -0.382 N 
ATOM     30  H2  V3L d          25.885  61.237  82.197  0.00  0.00     0.157 HD
ATOM     31  H3  V3L d          27.654  61.448  82.112  0.00  0.00     0.157 HD
ATOM     32  N7  V3L d          24.461  58.886  82.321  0.00  0.00    -0.236 NA
ATOM     33  C8  V3L d          23.867  57.699  82.423  0.00  0.00     0.214 A 
ENDBRANCH   1  22
BRANCH   3  34
ATOM     34  O3' V3L d          23.518  52.668  84.245  0.00  0.00    -0.390 OA
ATOM     35  H13 V3L d          23.854  52.666  85.134  0.00  0.00     0.210 HD
ENDBRANCH   3  34
BRANCH   4  36
ATOM     36  C5' V3L d          21.097  54.542  82.301  0.00  0.00     0.217 C 
BRANCH  36  37
ATOM     37  O5' V3L d          20.963  55.849  82.897  0.00  0.00    -0.280 OA
BRANCH  37  38
ATOM     38  P   V3L d          19.716  56.794  82.543  0.00  0.00     0.422 P 
ATOM     39  OP3 V3L d          18.517  56.028  83.082  0.00  0.00    -0.617 OA
ATOM     40  OP1 V3L d          19.750  56.971  81.034  0.00  0.00    -0.617 OA
ATOM     41  OP2 V3L d          20.039  58.031  83.341  0.00  0.00    -0.617 OA
ENDBRANCH  37  38
ENDBRANCH  36  37
ENDBRANCH   4  36
TORSDOF 12
