1tuf_ligand

Created by X-TOOL on Fri Sep 26 17:34:26 2014
 27 26  0  0  0  0  0  0  0  0999 V2000
   55.8270   12.0530   20.1930  C 0  5  0  1  0  3
   57.2020   12.3620   20.7970  C 0  0  0  3  0  4
   58.1500   13.3320   21.5110  C 0  0  0  3  0  4
   59.6030   13.1790   21.9690  C 0  0  0  3  0  4
   60.4950   11.9840   21.6530  C 0  0  0  3  0  4
   61.9830   12.2750   21.4350  C 0  0  0  3  0  4
   62.7800   12.4650   20.1360  C 0  0  0  3  0  4
   64.1710   13.0970   20.0820  C 0  0  0  3  0  4
   65.2970   12.2710   20.6740  C 0  5  0  1  0  3
   55.5610   10.8470   19.6280  O 0  0  0  1  0  1
   54.9470   12.9130   20.2240  O 0  0  0  1  0  1
   65.6090   11.0730   20.0780  O 0  0  0  1  0  1
   65.8720   12.7200   21.6800  O 0  0  0  1  0  1
   57.8219   12.1459   19.9144  H 0  0  0  1  0  1
   57.2642   11.5212   21.5035  H 0  0  0  1  0  1
   57.6114   13.5905   22.4346  H 0  0  0  1  0  1
   58.1773   14.2073   20.8453  H 0  0  0  1  0  1
   59.5733   13.2414   23.0668  H 0  0  0  1  0  1
   60.1320   14.0553   21.5661  H 0  0  0  1  0  1
   60.1096   11.5135   20.7364  H 0  0  0  1  0  1
   60.4131   11.2761   22.4909  H 0  0  0  1  0  1
   62.4942   11.4434   21.9420  H 0  0  0  1  0  1
   62.1568   13.2070   21.9929  H 0  0  0  1  0  1
   62.1452   13.0803   19.4816  H 0  0  0  1  0  1
   62.8897   11.4605   19.7014  H 0  0  0  1  0  1
   64.1294   14.0508   20.6284  H 0  0  0  1  0  1
   64.4131   13.2894   19.0264  H 0  0  0  1  0  1
  1  2  1  0  0  2
  1 10  2  0  0  2
  1 11  2  0  0  2
  2  3  1  0  0  2
  3  4  1  0  0  2
  4  5  1  0  0  2
  5  6  1  0  0  2
  6  7  1  0  0  2
  7  8  1  0  0  2
  8  9  1  0  0  2
  9 12  2  0  0  2
  9 13  2  0  0  2
  2 14  1  0  0  2
  2 15  1  0  0  2
  3 16  1  0  0  2
  3 17  1  0  0  2
  4 18  1  0  0  2
  4 19  1  0  0  2
  5 20  1  0  0  2
  5 21  1  0  0  2
  6 22  1  0  0  2
  6 23  1  0  0  2
  7 24  1  0  0  2
  7 25  1  0  0  2
  8 26  1  0  0  2
  8 27  1  0  0  2
M  END
> <MOLECULAR_FORMULA>
C9H14O4

> <MOLECULAR_WEIGHT>
186.1

> <NUM_HB_ATOMS>
4  

> <NUM_ROTOR>
6  

> <XLOGP2>
1.23 

$$$$
