REMARK  8 active torsions:
REMARK  status: ('A' for Active; 'I' for Inactive)
REMARK    1  A    between atoms: C1_1  and  C2_2 
REMARK    2  A    between atoms: C2_2  and  C3_3 
REMARK    3  A    between atoms: C3_3  and  C4_4 
REMARK    4  A    between atoms: C4_4  and  C5_5 
REMARK    5  A    between atoms: C5_5  and  C6_6 
REMARK    6  A    between atoms: C6_6  and  C7_7 
REMARK    7  A    between atoms: C7_7  and  C8_8 
REMARK    8  A    between atoms: C8_8  and  C9_9 
ROOT
ATOM      1  C5  AZ1 d          60.495  11.984  21.653  0.00  0.00     0.000 C 
ENDROOT
BRANCH   1   2
ATOM      2  C4  AZ1 d          59.603  13.179  21.969  0.00  0.00     0.001 C 
BRANCH   2   3
ATOM      3  C3  AZ1 d          58.150  13.332  21.511  0.00  0.00     0.010 C 
BRANCH   3   4
ATOM      4  C2  AZ1 d          57.202  12.362  20.797  0.00  0.00     0.113 C 
BRANCH   4   5
ATOM      5  C1  AZ1 d          55.827  12.053  20.193  0.00  0.00     0.172 C 
ATOM      6  O1  AZ1 d          55.561  10.847  19.628  0.00  0.00    -0.648 OA
ATOM      7  O2  AZ1 d          54.947  12.913  20.224  0.00  0.00    -0.648 OA
ENDBRANCH   4   5
ENDBRANCH   3   4
ENDBRANCH   2   3
ENDBRANCH   1   2
BRANCH   1   8
ATOM      8  C6  AZ1 d          61.983  12.275  21.435  0.00  0.00     0.001 C 
BRANCH   8   9
ATOM      9  C7  AZ1 d          62.780  12.465  20.136  0.00  0.00     0.010 C 
BRANCH   9  10
ATOM     10  C8  AZ1 d          64.171  13.097  20.082  0.00  0.00     0.113 C 
BRANCH  10  11
ATOM     11  C9  AZ1 d          65.297  12.271  20.674  0.00  0.00     0.172 C 
ATOM     12  O3  AZ1 d          65.609  11.073  20.078  0.00  0.00    -0.648 OA
ATOM     13  O4  AZ1 d          65.872  12.720  21.680  0.00  0.00    -0.648 OA
ENDBRANCH  10  11
ENDBRANCH   9  10
ENDBRANCH   8   9
ENDBRANCH   1   8
TORSDOF 8
