REMARK  7 active torsions:
REMARK  status: ('A' for Active; 'I' for Inactive)
REMARK    1  A    between atoms: O3_1  and  C3_2 
REMARK    2  A    between atoms: C4_3  and  O4_4 
REMARK    3  A    between atoms: C5_5  and  C6_6 
REMARK    4  A    between atoms: C6_6  and  O6_7 
REMARK    5  A    between atoms: C1_9  and  O1_10 
REMARK    6  A    between atoms: C2_11  and  N2_12 
REMARK       I    between atoms: N2_12  and  CAM_13 
REMARK       I    between atoms: CAM_13  and  NAN_15 
REMARK    7  A    between atoms: NAN_15  and  NAO_17 
ROOT
ATOM      1  C3  STZ d          -8.748 -11.016  10.586  0.00  0.00     0.177 C 
ATOM      2  C4  STZ d          -7.961 -10.178  11.581  0.00  0.00     0.180 C 
ATOM      3  C5  STZ d          -7.212  -9.084  10.825  0.00  0.00     0.179 C 
ATOM      4  O5  STZ d          -6.315  -9.668   9.857  0.00  0.00    -0.349 OA
ATOM      5  C1  STZ d          -7.048 -10.363   8.864  0.00  0.00     0.282 C 
ATOM      6  C2  STZ d          -7.842 -11.502   9.480  0.00  0.00     0.172 C 
ENDROOT
BRANCH   6   7
ATOM      7  N2  STZ d          -8.635 -12.117   8.438  0.00  0.00    -0.330 N 
ATOM      8  CAM STZ d          -9.468 -11.454   7.651  0.00  0.00     0.340 C 
ATOM      9  OAG STZ d          -9.655 -10.259   7.729  0.00  0.00    -0.245 OA
ATOM     10  NAN STZ d         -10.125 -12.161   6.747  0.00  0.00    -0.200 N 
ATOM     11  CAH STZ d         -11.095 -11.652   5.797  0.00  0.00     0.187 C 
ATOM     12  H12 STZ d          -8.549 -13.104   8.304  0.00  0.00     0.165 HD
BRANCH  10  13
ATOM     13  NAO STZ d          -9.871 -13.541   6.717  0.00  0.00    -0.008 NA
ATOM     14  OAP STZ d         -10.510 -14.203   5.925  0.00  0.00    -0.041 OA
ENDBRANCH  10  13
ENDBRANCH   6   7
BRANCH   1  15
ATOM     15  O3  STZ d          -9.268 -12.181  11.221  0.00  0.00    -0.391 OA
ATOM     16  H1  STZ d          -9.842 -11.923  11.932  0.00  0.00     0.210 HD
ENDBRANCH   1  15
BRANCH   5  17
ATOM     17  O1  STZ d          -6.134 -10.962   7.973  0.00  0.00    -0.369 OA
ATOM     18  H10 STZ d          -6.612 -11.433   7.300  0.00  0.00     0.212 HD
ENDBRANCH   5  17
BRANCH   2  19
ATOM     19  O4  STZ d          -8.868  -9.669  12.584  0.00  0.00    -0.390 OA
ATOM     20  H4  STZ d          -9.283 -10.396  13.033  0.00  0.00     0.210 HD
ENDBRANCH   2  19
BRANCH   3  21
ATOM     21  C6  STZ d          -6.448  -8.160  11.763  0.00  0.00     0.198 C 
BRANCH  21  22
ATOM     22  O6  STZ d          -5.758  -8.927  12.753  0.00  0.00    -0.398 OA
ATOM     23  H8  STZ d          -6.386  -9.432  13.255  0.00  0.00     0.209 HD
ENDBRANCH  21  22
ENDBRANCH   3  21
TORSDOF 7
