REMARK  4 active torsions:
REMARK  status: ('A' for Active; 'I' for Inactive)
REMARK    1  A    between atoms: C1_1  and  O1_7 
REMARK    2  A    between atoms: C2_2  and  O2_8 
REMARK    3  A    between atoms: C3_3  and  O3_9 
REMARK    4  A    between atoms: C4_4  and  O4_10 
ROOT
ATOM      1  C1  MFU d         -34.814   9.087 -42.393  0.00  0.00     0.290 C 
ATOM      2  C2  MFU d         -33.798   8.893 -41.292  0.00  0.00     0.204 C 
ATOM      3  C3  MFU d         -33.898  10.048 -40.307  0.00  0.00     0.183 C 
ATOM      4  C4  MFU d         -35.305  10.215 -39.732  0.00  0.00     0.178 C 
ATOM      5  C5  MFU d         -36.334  10.257 -40.870  0.00  0.00     0.152 C 
ATOM      6  C6  MFU d         -37.787  10.278 -40.386  0.00  0.00     0.042 C 
ATOM      7  O5  MFU d         -36.108   9.179 -41.777  0.00  0.00    -0.351 OA
ENDROOT
BRANCH   1   8
ATOM      8  O1  MFU d         -34.475  10.267 -43.147  0.00  0.00    -0.363 OA
ATOM      9  CM  MFU d         -35.197  10.307 -44.382  0.00  0.00     0.204 C 
ENDBRANCH   1   8
BRANCH   2  10
ATOM     10  O2  MFU d         -32.484   8.895 -41.840  0.00  0.00    -0.388 OA
ATOM     11  H9  MFU d         -32.329   9.720 -42.284  0.00  0.00     0.210 HD
ENDBRANCH   2  10
BRANCH   3  12
ATOM     12  O3  MFU d         -32.958   9.819 -39.243  0.00  0.00    -0.390 OA
ATOM     13  H10 MFU d         -33.200   9.030 -38.772  0.00  0.00     0.210 HD
ENDBRANCH   3  12
BRANCH   4  14
ATOM     14  O4  MFU d         -35.530   9.118 -38.832  0.00  0.00    -0.390 OA
ATOM     15  H11 MFU d         -34.872   9.132 -38.147  0.00  0.00     0.210 HD
ENDBRANCH   4  14
TORSDOF 4
