REMARK  4 active torsions:
REMARK  status: ('A' for Active; 'I' for Inactive)
REMARK    1  A    between atoms: O4_1  and  C4_2 
REMARK    2  A    between atoms: C3_3  and  O3_5 
REMARK    3  A    between atoms: C5_4  and  C6_13 
REMARK    4  A    between atoms: C6_13  and  O6_14 
ROOT
ATOM      1  C4  NGW d          15.318  29.814  25.709  0.00  0.00     0.180 C 
ATOM      2  C3  NGW d          14.936  29.245  24.349  0.00  0.00     0.183 C 
ATOM      3  C5  NGW d          16.718  30.487  25.609  0.00  0.00     0.178 C 
ATOM      4  C2  NGW d          16.026  28.239  23.943  0.00  0.00     0.257 C 
ATOM      5  N2  NGW d          15.927  27.829  22.527  0.00  0.00    -0.052 N 
ATOM      6  C1  NGW d          17.492  28.771  24.072  0.00  0.00     0.218 C 
ATOM      7  C7  NGW d          16.334  28.953  21.668  0.00  0.00     0.246 C 
ATOM      8  C8  NGW d          16.700  28.504  20.253  0.00  0.00     0.052 C 
ATOM      9  S1  NGW d          17.656  29.798  22.556  0.00  0.00    -0.102 SA
ATOM     10  O5  NGW d          17.718  29.525  25.262  0.00  0.00    -0.363 OA
ATOM     11  H7  NGW d          14.976  27.571  22.316  0.00  0.00     0.279 HD
ATOM     12  H8  NGW d          16.533  27.041  22.361  0.00  0.00     0.279 HD
ENDROOT
BRANCH   3  13
ATOM     13  C6  NGW d          17.252  31.169  26.891  0.00  0.00     0.198 C 
BRANCH  13  14
ATOM     14  O6  NGW d          17.233  30.229  27.973  0.00  0.00    -0.398 OA
ATOM     15  H16 NGW d          17.784  29.486  27.755  0.00  0.00     0.209 HD
ENDBRANCH  13  14
ENDBRANCH   3  13
BRANCH   1  16
ATOM     16  O4  NGW d          14.368  30.806  26.080  0.00  0.00    -0.390 OA
ATOM     17  H1  NGW d          13.504  30.413  26.128  0.00  0.00     0.210 HD
ENDBRANCH   1  16
BRANCH   2  18
ATOM     18  O3  NGW d          13.705  28.515  24.469  0.00  0.00    -0.391 OA
ATOM     19  H5  NGW d          13.020  29.099  24.774  0.00  0.00     0.210 HD
ENDBRANCH   2  18
TORSDOF 4
