REMARK  5 active torsions:
REMARK  status: ('A' for Active; 'I' for Inactive)
REMARK    1  A    between atoms: S6_2  and  C1_4 
REMARK    2  A    between atoms: C5_5  and  N5_6 
REMARK    3  A    between atoms: C4_7  and  O4_8 
REMARK    4  A    between atoms: C3_9  and  O3_10 
REMARK    5  A    between atoms: C2_11  and  O2_12 
ROOT
ATOM      1  C1  MZB d          30.727  65.868   7.915  0.00  0.00     0.143 C 
ATOM      2  C5  MZB d          31.183  65.740   9.362  0.00  0.00     0.233 C 
ATOM      3  C4  MZB d          32.686  66.109   9.378  0.00  0.00     0.181 C 
ATOM      4  C3  MZB d          33.006  66.636   7.975  0.00  0.00     0.178 C 
ATOM      5  C2  MZB d          31.632  66.993   7.405  0.00  0.00     0.167 C 
ENDROOT
BRANCH   2   6
ATOM      6  N5  MZB d          30.962  64.410   9.936  0.00  0.00    -0.071 N 
ATOM      7  H6  MZB d          31.286  64.398  10.891  0.00  0.00     0.274 HD
ATOM      8  H7  MZB d          31.471  63.724   9.400  0.00  0.00     0.274 HD
ATOM      9  H8  MZB d          29.978  64.193   9.912  0.00  0.00     0.274 HD
ENDBRANCH   2   6
BRANCH   1  10
ATOM     10  S6  MZB d          29.025  66.398   7.891  0.00  0.00     0.020 S 
ATOM     11  O6  MZB d          28.260  65.243   8.850  0.00  0.00    -0.258 OA
ATOM     12  C7  MZB d          28.597  65.865   6.269  0.00  0.00     0.127 C 
ENDBRANCH   1  10
BRANCH   3  13
ATOM     13  O4  MZB d          33.490  64.980   9.726  0.00  0.00    -0.391 OA
ATOM     14  H10 MZB d          34.406  65.232   9.729  0.00  0.00     0.210 HD
ENDBRANCH   3  13
BRANCH   5  15
ATOM     15  O2  MZB d          31.631  67.162   5.981  0.00  0.00    -0.392 OA
ATOM     16  H14 MZB d          30.754  67.381   5.689  0.00  0.00     0.210 HD
ENDBRANCH   5  15
BRANCH   4  17
ATOM     17  O3  MZB d          33.637  65.611   7.177  0.00  0.00    -0.390 OA
ATOM     18  H12 MZB d          33.828  65.955   6.312  0.00  0.00     0.210 HD
ENDBRANCH   4  17
TORSDOF 5
