REMARK  8 active torsions:
REMARK  status: ('A' for Active; 'I' for Inactive)
REMARK    1  A    between atoms: C2_2  and  O4_19 
REMARK    2  A    between atoms: C4_4  and  O5_20 
REMARK    3  A    between atoms: C5_5  and  C7_7 
REMARK    4  A    between atoms: C6_6  and  O1_10 
REMARK    5  A    between atoms: C7_7  and  C8_8 
REMARK    6  A    between atoms: C8_8  and  C9_9 
REMARK    7  A    between atoms: C9_9  and  C10_12 
REMARK    8  A    between atoms: C13_15  and  O3_18 
ROOT
ATOM      1  C1  G50 d          22.070  37.549  -4.439  0.00  0.00     0.074 A 
ATOM      2  C2  G50 d          22.228  38.836  -4.934  0.00  0.00     0.071 A 
ATOM      3  C3  G50 d          21.154  39.694  -5.034  0.00  0.00     0.074 A 
ATOM      4  C4  G50 d          19.898  39.248  -4.643  0.00  0.00     0.085 A 
ATOM      5  C5  G50 d          19.698  37.946  -4.139  0.00  0.00     0.076 A 
ATOM      6  C6  G50 d          20.814  37.093  -4.036  0.00  0.00     0.085 A 
ENDROOT
BRANCH   5   7
ATOM      7  C7  G50 d          18.260  37.514  -3.714  0.00  0.00     0.165 C 
ATOM      8  O2  G50 d          17.567  38.332  -3.109  0.00  0.00    -0.292 OA
BRANCH   7   9
ATOM      9  C8  G50 d          17.644  36.117  -4.029  0.00  0.00     0.088 C 
BRANCH   9  10
ATOM     10  C9  G50 d          16.333  35.879  -3.119  0.00  0.00     0.046 C 
BRANCH  10  11
ATOM     11  C10 G50 d          15.688  34.508  -3.452  0.00  0.00    -0.058 A 
ATOM     12  C11 G50 d          15.737  34.068  -4.779  0.00  0.00     0.010 A 
ATOM     13  C12 G50 d          15.205  32.838  -5.130  0.00  0.00     0.037 A 
ATOM     14  C13 G50 d          14.593  32.042  -4.179  0.00  0.00     0.065 A 
ATOM     15  C14 G50 d          14.527  32.468  -2.840  0.00  0.00     0.037 A 
ATOM     16  C15 G50 d          15.080  33.701  -2.469  0.00  0.00     0.010 A 
BRANCH  14  17
ATOM     17  O3  G50 d          14.087  30.846  -4.595  0.00  0.00    -0.361 OA
ATOM     18  H12 G50 d          14.232  30.750  -5.529  0.00  0.00     0.217 HD
ENDBRANCH  14  17
ENDBRANCH  10  11
ENDBRANCH   9  10
ENDBRANCH   7   9
ENDBRANCH   5   7
BRANCH   4  19
ATOM     19  O5  G50 d          18.895  40.138  -4.777  0.00  0.00    -0.360 OA
ATOM     20  H14 G50 d          18.504  40.303  -3.927  0.00  0.00     0.217 HD
ENDBRANCH   4  19
BRANCH   6  21
ATOM     21  O1  G50 d          20.734  35.822  -3.561  0.00  0.00    -0.360 OA
ATOM     22  H7  G50 d          21.597  35.425  -3.576  0.00  0.00     0.217 HD
ENDBRANCH   6  21
BRANCH   2  23
ATOM     23  O4  G50 d          23.432  39.265  -5.329  0.00  0.00    -0.361 OA
ATOM     24  H13 G50 d          24.070  38.573  -5.203  0.00  0.00     0.217 HD
ENDBRANCH   2  23
TORSDOF 8
