REMARK  2 active torsions:
REMARK  status: ('A' for Active; 'I' for Inactive)
REMARK    1  A    between atoms: C15_2  and  C6_4 
REMARK    2  A    between atoms: C3_8  and  C7_10 
ROOT
ATOM      1  C6  MOL d          21.645  85.101  26.950  0.00  0.00     0.040 A 
ATOM      2  C1  MOL d          20.965  86.132  26.259  0.00  0.00     0.019 A 
ATOM      3  C5  MOL d          22.323  84.079  26.236  0.00  0.00     0.019 A 
ATOM      4  C4  MOL d          22.336  84.092  24.917  0.00  0.00     0.013 A 
ATOM      5  C3  MOL d          21.639  85.124  24.154  0.00  0.00    -0.020 A 
ATOM      6  C2  MOL d          20.961  86.145  24.889  0.00  0.00     0.013 A 
ENDROOT
BRANCH   5   7
ATOM      7  C7  MOL d          21.636  85.136  22.776  0.00  0.00     0.051 A 
ATOM      8  C12 MOL d          21.638  83.908  21.955  0.00  0.00     0.130 A 
ATOM      9  F2  MOL d          21.603  82.670  22.572  0.00  0.00    -0.205 F 
ATOM     10  C11 MOL d          21.651  83.938  20.636  0.00  0.00     0.043 A 
ATOM     11  C10 MOL d          21.631  85.160  19.993  0.00  0.00     0.006 A 
ATOM     12  C9  MOL d          21.613  86.370  20.710  0.00  0.00     0.043 A 
ATOM     13  C8  MOL d          21.615  86.371  22.083  0.00  0.00     0.130 A 
ATOM     14  F1  MOL d          21.666  87.603  22.722  0.00  0.00    -0.205 F 
ENDBRANCH   5   7
BRANCH   1  15
ATOM     15  C15 MOL d          21.643  85.098  28.436  0.00  0.00     0.209 C 
ATOM     16  O17 MOL d          20.976  86.101  29.121  0.00  0.00    -0.644 OA
ATOM     17  O16 MOL d          22.241  84.194  29.050  0.00  0.00    -0.644 OA
ENDBRANCH   1  15
TORSDOF 2
