REMARK  9 active torsions:
REMARK  status: ('A' for Active; 'I' for Inactive)
REMARK    1  A    between atoms: PB_1  and  O3A_5 
REMARK    2  A    between atoms: O3A_5  and  PA_6 
REMARK    3  A    between atoms: PA_6  and  O5'_9 
REMARK    4  A    between atoms: O5'_9  and  C5'_10 
REMARK    5  A    between atoms: C5'_10  and  C4'_11 
REMARK    6  A    between atoms: C3'_13  and  O3'_14 
REMARK    7  A    between atoms: C2'_15  and  O2'_16 
REMARK    8  A    between atoms: C1'_17  and  N9_18 
REMARK    9  A    between atoms: C2_25  and  N2_26 
ROOT
ATOM      1  C4' GDP d         -24.704  -8.267   9.680  0.00  0.00     0.180 C 
ATOM      2  O4' GDP d         -25.875  -8.455   8.910  0.00  0.00    -0.353 OA
ATOM      3  C3' GDP d         -23.854  -7.248   8.945  0.00  0.00     0.182 C 
ATOM      4  C2' GDP d         -24.500  -7.216   7.579  0.00  0.00     0.198 C 
ATOM      5  C1' GDP d         -25.339  -8.455   7.621  0.00  0.00     0.262 C 
ENDROOT
BRANCH   5   6
ATOM      6  N9  GDP d         -26.245  -8.717   6.503  0.00  0.00    -0.295 N 
ATOM      7  C8  GDP d         -27.464  -9.235   6.474  0.00  0.00     0.214 A 
ATOM      8  N7  GDP d         -27.877  -9.351   5.203  0.00  0.00    -0.234 NA
ATOM      9  C5  GDP d         -26.893  -8.943   4.399  0.00  0.00     0.171 A 
ATOM     10  C6  GDP d         -26.601  -8.772   2.954  0.00  0.00     0.292 A 
ATOM     11  C4  GDP d         -25.846  -8.537   5.299  0.00  0.00     0.161 A 
ATOM     12  O6  GDP d         -27.374  -9.055   2.073  0.00  0.00    -0.265 OA
ATOM     13  N1  GDP d         -25.446  -8.280   2.609  0.00  0.00    -0.154 N 
ATOM     14  C2  GDP d         -24.547  -7.948   3.532  0.00  0.00     0.680 A 
ATOM     15  H10 GDP d         -25.232  -8.150   1.641  0.00  0.00     0.187 HD
ATOM     16  N3  GDP d         -24.727  -8.073   4.825  0.00  0.00    -0.174 N 
ATOM     17  H13 GDP d         -23.974  -7.801   5.473  0.00  0.00     0.186 HD
BRANCH  14  18
ATOM     18  N2  GDP d         -23.361  -7.453   3.198  0.00  0.00    -0.234 N 
ATOM     19  H11 GDP d         -22.682  -7.204   3.931  0.00  0.00     0.174 HD
ATOM     20  H12 GDP d         -23.120  -7.319   2.206  0.00  0.00     0.174 HD
ENDBRANCH  14  18
ENDBRANCH   5   6
BRANCH   4  21
ATOM     21  O2' GDP d         -23.490  -7.397   6.631  0.00  0.00    -0.388 OA
ATOM     22  H7  GDP d         -23.066  -8.234   6.778  0.00  0.00     0.210 HD
ENDBRANCH   4  21
BRANCH   1  23
ATOM     23  C5' GDP d         -25.120  -7.810  11.045  0.00  0.00     0.216 C 
BRANCH  23  24
ATOM     24  O5' GDP d         -24.091  -8.122  11.944  0.00  0.00    -0.287 OA
BRANCH  24  25
ATOM     25  PA  GDP d         -24.646  -8.739  13.277  0.00  0.00     0.418 P 
ATOM     26  O1A GDP d         -26.123  -8.487  13.239  0.00  0.00    -0.624 OA
ATOM     27  O2A GDP d         -24.269 -10.202  13.284  0.00  0.00    -0.624 OA
BRANCH  25  28
ATOM     28  O3A GDP d         -24.009  -7.904  14.498  0.00  0.00    -0.173 OA
BRANCH  28  29
ATOM     29  PB  GDP d         -24.958  -7.418  15.694  0.00  0.00     0.431 P 
ATOM     30  O1B GDP d         -26.125  -8.361  15.775  0.00  0.00    -0.616 OA
ATOM     31  O2B GDP d         -25.453  -6.014  15.463  0.00  0.00    -0.616 OA
ATOM     32  O3B GDP d         -24.223  -7.477  16.994  0.00  0.00    -0.616 OA
ENDBRANCH  28  29
ENDBRANCH  25  28
ENDBRANCH  24  25
ENDBRANCH  23  24
ENDBRANCH   1  23
BRANCH   3  33
ATOM     33  O3' GDP d         -22.492  -7.688   8.842  0.00  0.00    -0.390 OA
ATOM     34  H5  GDP d         -22.461  -8.510   8.366  0.00  0.00     0.210 HD
ENDBRANCH   3  33
TORSDOF 9
