REMARK  5 active torsions:
REMARK  status: ('A' for Active; 'I' for Inactive)
REMARK    1  A    between atoms: C5_13  and  O36_14 
REMARK    2  A    between atoms: C10_22  and  O26_23 
REMARK    3  A    between atoms: C11_25  and  O28_26 
REMARK    4  A    between atoms: C15_32  and  O31_33 
REMARK    5  A    between atoms: O31_33  and  C32_34 
REMARK       I    between atoms: C32_34  and  N34_36 
ROOT
ATOM      1  O37 BC6 d          40.996  -5.279  41.757  0.00  0.00    -0.268 OA
ATOM      2  C21 BC6 d          41.002  -5.755  40.625  0.00  0.00     0.251 C 
ATOM      3  C20 BC6 d          41.418  -7.145  40.515  0.00  0.00     0.002 C 
ATOM      4  C36 BC6 d          42.747  -7.508  41.109  0.00  0.00     0.054 C 
ATOM      5  C19 BC6 d          40.564  -8.053  39.952  0.00  0.00    -0.014 C 
ATOM      6  C18 BC6 d          40.786  -9.519  39.760  0.00  0.00     0.028 C 
ATOM      7  C17 BC6 d          40.028  -9.916  38.490  0.00  0.00     0.011 C 
ATOM      8  C16 BC6 d          38.518 -10.061  38.660  0.00  0.00     0.016 C 
ATOM      9  C35 BC6 d          38.150 -11.051  39.778  0.00  0.00     0.013 C 
ATOM     10  N22 BC6 d          40.643  -4.978  39.591  0.00  0.00    -0.323 N 
ATOM     11  C3  BC6 d          40.877  -5.232  38.261  0.00  0.00     0.038 A 
ATOM     12  C4  BC6 d          39.876  -4.922  37.356  0.00  0.00     0.066 A 
ATOM     13  C5  BC6 d          40.043  -5.148  35.988  0.00  0.00     0.068 A 
ATOM     14  C6  BC6 d          41.224  -5.701  35.498  0.00  0.00     0.043 A 
ATOM     15  C1  BC6 d          42.246  -6.033  36.413  0.00  0.00    -0.053 A 
ATOM     16  C2  BC6 d          42.069  -5.774  37.777  0.00  0.00     0.037 A 
ATOM     17  C7  BC6 d          43.544  -6.674  35.966  0.00  0.00     0.043 C 
ATOM     18  C8  BC6 d          43.459  -8.217  35.860  0.00  0.00    -0.012 C 
ATOM     19  C25 BC6 d          43.291  -8.920  37.219  0.00  0.00     0.010 C 
ATOM     20  C9  BC6 d          42.366  -8.663  34.846  0.00  0.00     0.039 C 
ATOM     21  C10 BC6 d          42.131 -10.163  34.705  0.00  0.00     0.150 C 
ATOM     22  C11 BC6 d          41.099 -10.492  33.626  0.00  0.00     0.154 C 
ATOM     23  C12 BC6 d          39.742  -9.842  33.921  0.00  0.00     0.035 C 
ATOM     24  C29 BC6 d          38.782 -10.265  32.814  0.00  0.00     0.017 C 
ATOM     25  C13 BC6 d          39.136 -10.387  35.210  0.00  0.00    -0.015 C 
ATOM     26  C14 BC6 d          38.398  -9.710  36.137  0.00  0.00    -0.058 C 
ATOM     27  C30 BC6 d          38.046  -8.249  36.016  0.00  0.00     0.046 C 
ATOM     28  C15 BC6 d          37.875 -10.497  37.318  0.00  0.00     0.166 C 
ATOM     29  H13 BC6 d          40.158  -4.131  39.810  0.00  0.00     0.169 HD
ENDROOT
BRANCH  28  30
ATOM     30  O31 BC6 d          36.486 -10.225  37.433  0.00  0.00    -0.294 OA
BRANCH  30  31
ATOM     31  C32 BC6 d          35.590 -11.043  36.665  0.00  0.00     0.358 C 
ATOM     32  O33 BC6 d          36.062 -11.894  35.929  0.00  0.00    -0.239 OA
ATOM     33  N34 BC6 d          34.308 -10.774  36.857  0.00  0.00    -0.346 N 
ATOM     34  H41 BC6 d          33.609 -11.293  36.365  0.00  0.00     0.161 HD
ATOM     35  H42 BC6 d          34.039 -10.052  37.494  0.00  0.00     0.161 HD
ENDBRANCH  30  31
ENDBRANCH  28  30
BRANCH  22  36
ATOM     36  O28 BC6 d          41.647  -9.995  32.385  0.00  0.00    -0.392 OA
ATOM     37  H31 BC6 d          42.475 -10.426  32.211  0.00  0.00     0.210 HD
ENDBRANCH  22  36
BRANCH  21  38
ATOM     38  O26 BC6 d          43.361 -10.836  34.361  0.00  0.00    -0.388 OA
ATOM     39  C27 BC6 d          43.382 -12.207  34.692  0.00  0.00     0.202 C 
ENDBRANCH  21  38
BRANCH  13  40
ATOM     40  O36 BC6 d          38.992  -4.863  35.163  0.00  0.00    -0.361 OA
ATOM     41  H15 BC6 d          39.233  -5.059  34.265  0.00  0.00     0.217 HD
ENDBRANCH  13  40
TORSDOF 5
