REMARK  12 active torsions:
REMARK  status: ('A' for Active; 'I' for Inactive)
REMARK    1  A    between atoms: CBB_3  and  CAQ_4 
REMARK    2  A    between atoms: CAQ_4  and  CBD_5 
REMARK    3  A    between atoms: CBD_5  and  CAW_6 
REMARK    4  A    between atoms: CBD_5  and  NAT_9 
REMARK       I    between atoms: NAT_9  and  CAX_10 
REMARK       I    between atoms: CAX_10  and  N_12 
REMARK    5  A    between atoms: N_12  and  CA_13 
REMARK    6  A    between atoms: CA_13  and  C_14 
REMARK    7  A    between atoms: CA_13  and  CB_17 
REMARK    8  A    between atoms: CB_17  and  CAM_18 
REMARK    9  A    between atoms: CAM_18  and  CAL_19 
REMARK   10  A    between atoms: CAL_19  and  CAN_20 
REMARK   11  A    between atoms: CAN_20  and  NAR_21 
REMARK       I    between atoms: NAR_21  and  CAY_22 
REMARK   12  A    between atoms: CAY_22  and  CBA_24 
ROOT
ATOM      1  CA  MOL d          20.023  45.446  44.081  0.00  0.00     0.187 C 
ENDROOT
BRANCH   1   2
ATOM      2  N   MOL d          18.694  45.775  43.564  0.00  0.00    -0.329 N 
ATOM      3  CAX MOL d          18.030  45.070  42.660  0.00  0.00     0.317 C 
ATOM      4  NAT MOL d          16.847  45.596  42.369  0.00  0.00    -0.328 N 
ATOM      5  OAC MOL d          18.458  44.045  42.108  0.00  0.00    -0.247 OA
ATOM      6  H   MOL d          16.570  46.405  42.888  0.00  0.00     0.165 HD
ATOM      7  H   MOL d          18.252  46.598  43.922  0.00  0.00     0.165 HD
BRANCH   4   8
ATOM      8  CBD MOL d          15.904  45.101  41.354  0.00  0.00     0.189 C 
BRANCH   8   9
ATOM      9  CAQ MOL d          14.801  46.232  41.446  0.00  0.00     0.070 C 
BRANCH   9  10
ATOM     10  CBB MOL d          13.395  46.258  40.699  0.00  0.00     0.147 A 
ATOM     11  CAP MOL d          12.956  47.640  40.700  0.00  0.00     0.200 A 
ATOM     12  OAU MOL d          13.196  47.075  39.466  0.00  0.00    -0.381 OA
ENDBRANCH   9  10
ENDBRANCH   8   9
BRANCH   8  13
ATOM     13  CAW MOL d          16.761  45.029  40.078  0.00  0.00     0.196 C 
ATOM     14  OAF MOL d          17.604  45.934  39.908  0.00  0.00    -0.646 OA
ATOM     15  OAB MOL d          16.676  44.007  39.343  0.00  0.00    -0.646 OA
ENDBRANCH   8  13
ENDBRANCH   4   8
ENDBRANCH   1   2
BRANCH   1  16
ATOM     16  C   MOL d          20.150  46.043  45.482  0.00  0.00     0.196 C 
ATOM     17  OXT MOL d          20.707  45.324  46.340  0.00  0.00    -0.646 OA
ATOM     18  O   MOL d          19.707  47.208  45.674  0.00  0.00    -0.646 OA
ENDBRANCH   1  16
BRANCH   1  19
ATOM     19  CB  MOL d          21.079  46.110  43.181  0.00  0.00     0.036 C 
BRANCH  19  20
ATOM     20  CAM MOL d          22.367  46.313  43.969  0.00  0.00     0.004 C 
BRANCH  20  21
ATOM     21  CAL MOL d          23.495  46.866  43.080  0.00  0.00     0.020 C 
BRANCH  21  22
ATOM     22  CAN MOL d          23.747  48.341  43.442  0.00  0.00     0.123 C 
BRANCH  22  23
ATOM     23  NAR MOL d          23.720  48.535  44.911  0.00  0.00    -0.357 N 
ATOM     24  CAY MOL d          23.328  49.683  45.468  0.00  0.00     0.251 C 
ATOM     25  OAD MOL d          22.864  50.630  44.841  0.00  0.00    -0.268 OA
ATOM     26  H   MOL d          24.005  47.782  45.504  0.00  0.00     0.162 HD
BRANCH  24  27
ATOM     27  CBA MOL d          23.314  49.718  46.995  0.00  0.00     0.032 A 
ATOM     28  CAJ MOL d          23.650  50.865  47.709  0.00  0.00     0.018 A 
ATOM     29  CAH MOL d          23.597  50.859  49.103  0.00  0.00     0.019 A 
ATOM     30  CAZ MOL d          23.189  49.692  49.734  0.00  0.00     0.006 A 
ATOM     31  IAG MOL d          23.033  49.550  51.788  0.00  0.00    -0.045 I 
ATOM     32  CAI MOL d          22.832  48.564  49.016  0.00  0.00     0.019 A 
ATOM     33  CAK MOL d          22.898  48.575  47.644  0.00  0.00     0.018 A 
ENDBRANCH  24  27
ENDBRANCH  22  23
ENDBRANCH  21  22
ENDBRANCH  20  21
ENDBRANCH  19  20
ENDBRANCH   1  19
TORSDOF 12
