REMARK  16 active torsions:
REMARK  status: ('A' for Active; 'I' for Inactive)
REMARK    1  A    between atoms: N1_2  and  C5_16 
REMARK    2  A    between atoms: S1_4  and  N5_17 
REMARK    3  A    between atoms: C26_41  and  S1_4 
REMARK    4  A    between atoms: C18_33  and  N2_7 
REMARK    5  A    between atoms: C37_52  and  S2_9 
REMARK    6  A    between atoms: S2_9  and  C38_53 
REMARK    7  A    between atoms: C5_16  and  C6_18 
REMARK    8  A    between atoms: N5_17  and  C25_40 
REMARK    9  A    between atoms: C28_43  and  N6_19 
REMARK   10  A    between atoms: N7_21  and  C29_44 
REMARK   11  A    between atoms: C32_47  and  N7_21 
REMARK   12  A    between atoms: C34_49  and  N8_23 
REMARK   13  A    between atoms: C11_26  and  C12_27 
REMARK   14  A    between atoms: C33_48  and  C32_47 
REMARK   15  A    between atoms: C32_47  and  C37_52 
REMARK   16  A    between atoms: C33_48  and  C34_49 
ROOT
ATOM      1  N3  HI0 d         -11.361 -12.760  13.972  0.00  0.00    -0.241 NA
ATOM      2  N4  HI0 d         -11.679 -10.720  12.847  0.00  0.00    -0.223 NA
ATOM      3  C18 HI0 d         -12.307 -15.708  11.984  0.00  0.00     0.032 A 
ATOM      4  C19 HI0 d         -11.851 -14.910  13.051  0.00  0.00     0.062 A 
ATOM      5  C20 HI0 d         -12.735 -15.080  10.812  0.00  0.00     0.030 A 
ATOM      6  C21 HI0 d         -12.706 -13.692  10.700  0.00  0.00     0.020 A 
ATOM      7  C22 HI0 d         -12.233 -12.910  11.762  0.00  0.00     0.039 A 
ATOM      8  C23 HI0 d         -11.807 -13.517  12.943  0.00  0.00     0.074 A 
ATOM      9  C24 HI0 d         -11.294 -11.411  13.932  0.00  0.00     0.236 A 
ATOM     10  C25 HI0 d         -12.171 -11.460  11.683  0.00  0.00     0.151 A 
ENDROOT
BRANCH  10  11
ATOM     11  N5  HI0 d         -12.600 -10.790  10.479  0.00  0.00    -0.263 N 
ATOM     12  H12 HI0 d         -13.101 -11.324   9.798  0.00  0.00     0.180 HD
BRANCH  11  13
ATOM     13  S1  HI0 d         -12.318  -9.212  10.158  0.00  0.00     0.264 S 
ATOM     14  O1  HI0 d         -12.983  -8.453  11.167  0.00  0.00    -0.200 OA
ATOM     15  O2  HI0 d         -12.701  -9.015   8.795  0.00  0.00    -0.200 OA
BRANCH  13  16
ATOM     16  C26 HI0 d         -10.673  -8.972  10.261  0.00  0.00     0.082 A 
ATOM     17  C27 HI0 d          -9.863  -9.275   9.173  0.00  0.00     0.063 A 
ATOM     18  C28 HI0 d          -8.476  -9.101   9.194  0.00  0.00     0.130 A 
ATOM     19  C29 HI0 d          -7.847  -8.598  10.349  0.00  0.00     0.061 A 
ATOM     20  C30 HI0 d          -8.656  -8.290  11.450  0.00  0.00     0.033 A 
ATOM     21  C31 HI0 d         -10.045  -8.474  11.410  0.00  0.00     0.028 A 
BRANCH  18  22
ATOM     22  N6  HI0 d          -7.796  -9.445   8.056  0.00  0.00    -0.113 N 
ATOM     23  O3  HI0 d          -8.380  -9.877   7.072  0.00  0.00    -0.532 OA
ATOM     24  O4  HI0 d          -6.584  -9.330   7.945  0.00  0.00    -0.532 OA
ENDBRANCH  18  22
BRANCH  19  25
ATOM     25  N7  HI0 d          -6.481  -8.423  10.396  0.00  0.00    -0.383 N 
ATOM     26  H14 HI0 d          -5.987  -8.400   9.492  0.00  0.00     0.160 HD
BRANCH  25  27
ATOM     27  C32 HI0 d          -5.651  -8.265  11.610  0.00  0.00     0.093 C 
BRANCH  27  28
ATOM     28  C33 HI0 d          -4.204  -7.803  11.342  0.00  0.00     0.053 C 
BRANCH  28  29
ATOM     29  C34 HI0 d          -3.988  -6.886  10.131  0.00  0.00     0.236 C 
BRANCH  29  30
ATOM     30  N8  HI0 d          -3.326  -5.607  10.470  0.00  0.00    -0.079 N 
ATOM     31  C35 HI0 d          -3.118  -4.823   9.244  0.00  0.00     0.269 C 
ATOM     32  C36 HI0 d          -2.009  -5.791  11.102  0.00  0.00     0.269 C 
ATOM     33  H16 HI0 d          -3.923  -5.096  11.101  0.00  0.00     0.278 HD
ENDBRANCH  29  30
ENDBRANCH  28  29
ENDBRANCH  27  28
BRANCH  27  34
ATOM     34  C37 HI0 d          -5.539  -9.499  12.517  0.00  0.00     0.104 C 
BRANCH  34  35
ATOM     35  S2  HI0 d          -5.098 -10.998  11.688  0.00  0.00    -0.128 SA
BRANCH  35  36
ATOM     36  C38 HI0 d          -6.492 -11.808  11.163  0.00  0.00     0.000 A 
ATOM     37  C39 HI0 d          -7.536 -12.030  12.065  0.00  0.00     0.018 A 
ATOM     38  C40 HI0 d          -8.683 -12.700  11.635  0.00  0.00     0.001 A 
ATOM     39  C41 HI0 d          -8.775 -13.135  10.316  0.00  0.00     0.000 A 
ATOM     40  C42 HI0 d          -7.742 -12.907   9.414  0.00  0.00     0.001 A 
ATOM     41  C43 HI0 d          -6.592 -12.245   9.839  0.00  0.00     0.018 A 
ENDBRANCH  35  36
ENDBRANCH  34  35
ENDBRANCH  27  34
ENDBRANCH  25  27
ENDBRANCH  19  25
ENDBRANCH  13  16
ENDBRANCH  11  13
ENDBRANCH  10  11
BRANCH   3  42
ATOM     42  N2  HI0 d         -12.339 -17.067  12.098  0.00  0.00    -0.378 N 
ATOM     43  C3  HI0 d         -12.031 -17.682  13.402  0.00  0.00     0.150 C 
ATOM     44  C2  HI0 d         -11.686 -19.172  13.334  0.00  0.00     0.255 C 
ATOM     45  N1  HI0 d         -12.582 -19.859  12.380  0.00  0.00    -0.064 N 
ATOM     46  C1  HI0 d         -12.430 -19.244  11.038  0.00  0.00     0.255 C 
ATOM     47  H3  HI0 d         -13.534 -19.724  12.683  0.00  0.00     0.280 HD
ATOM     48  C4  HI0 d         -13.025 -17.846  11.062  0.00  0.00     0.150 C 
BRANCH  45  49
ATOM     49  C5  HI0 d         -12.315 -21.309  12.356  0.00  0.00     0.274 C 
BRANCH  49  50
ATOM     50  C6  HI0 d         -13.178 -22.008  11.301  0.00  0.00    -0.021 A 
ATOM     51  C7  HI0 d         -14.576 -22.010  11.456  0.00  0.00     0.010 A 
ATOM     52  C8  HI0 d         -15.399 -22.624  10.509  0.00  0.00     0.001 A 
ATOM     53  C9  HI0 d         -14.834 -23.241   9.399  0.00  0.00     0.001 A 
ATOM     54  C10 HI0 d         -13.445 -23.246   9.235  0.00  0.00     0.013 A 
ATOM     55  C11 HI0 d         -12.607 -22.636  10.179  0.00  0.00    -0.018 A 
BRANCH  55  56
ATOM     56  C12 HI0 d         -11.222 -22.663   9.970  0.00  0.00    -0.025 A 
ATOM     57  C13 HI0 d         -10.674 -22.036   8.843  0.00  0.00     0.014 A 
ATOM     58  C14 HI0 d          -9.314 -22.187   8.549  0.00  0.00     0.024 A 
ATOM     59  C15 HI0 d          -8.493 -22.970   9.366  0.00  0.00     0.034 A 
ATOM     60 CL1  HI0 d          -6.744 -23.154   8.978  0.00  0.00    -0.084 Cl
ATOM     61  C16 HI0 d          -9.036 -23.599  10.494  0.00  0.00     0.024 A 
ATOM     62  C17 HI0 d         -10.395 -23.448  10.792  0.00  0.00     0.014 A 
ENDBRANCH  55  56
ENDBRANCH  49  50
ENDBRANCH  45  49
ENDBRANCH   3  42
TORSDOF 16
