REMARK  9 active torsions:
REMARK  status: ('A' for Active; 'I' for Inactive)
REMARK    1  A    between atoms: O3A_8  and  PB_1 
REMARK    2  A    between atoms: PA_5  and  O3A_8 
REMARK    3  A    between atoms: PA_5  and  O5'_9 
REMARK    4  A    between atoms: O5'_9  and  C5'_10 
REMARK    5  A    between atoms: C5'_10  and  C4'_11 
REMARK    6  A    between atoms: C3'_13  and  O3'_14 
REMARK    7  A    between atoms: C2'_15  and  O2'_16 
REMARK    8  A    between atoms: C1'_17  and  N9_18 
REMARK    9  A    between atoms: C6_22  and  N6_23 
ROOT
ATOM      1  C4' ACP d          -6.163 -43.045  31.930  0.00  0.00     0.180 C 
ATOM      2  O4' ACP d          -7.325 -42.202  32.060  0.00  0.00    -0.353 OA
ATOM      3  C3' ACP d          -6.555 -44.326  32.653  0.00  0.00     0.182 C 
ATOM      4  C2' ACP d          -7.356 -43.780  33.840  0.00  0.00     0.198 C 
ATOM      5  C1' ACP d          -8.041 -42.549  33.232  0.00  0.00     0.262 C 
ENDROOT
BRANCH   5   6
ATOM      6  N9  ACP d          -9.440 -42.766  32.896  0.00  0.00    -0.294 N 
ATOM      7  C8  ACP d          -9.983 -43.038  31.656  0.00  0.00     0.214 A 
ATOM      8  N7  ACP d         -11.273 -43.237  31.673  0.00  0.00    -0.236 NA
ATOM      9  C5  ACP d         -11.625 -43.085  33.017  0.00  0.00     0.149 A 
ATOM     10  C6  ACP d         -12.849 -43.176  33.693  0.00  0.00     0.155 A 
ATOM     11  C4  ACP d         -10.498 -42.788  33.761  0.00  0.00     0.167 A 
ATOM     12  N1  ACP d         -12.841 -42.963  35.031  0.00  0.00    -0.222 NA
ATOM     13  C2  ACP d         -11.682 -42.673  35.630  0.00  0.00     0.237 A 
ATOM     14  N3  ACP d         -10.463 -42.565  35.093  0.00  0.00    -0.222 NA
BRANCH  10  15
ATOM     15  N6  ACP d         -14.015 -43.443  33.098  0.00  0.00    -0.382 N 
ATOM     16  H   ACP d         -14.878 -43.495  33.657  0.00  0.00     0.157 HD
ATOM     17  H   ACP d         -14.050 -43.597  32.080  0.00  0.00     0.157 HD
ENDBRANCH  10  15
ENDBRANCH   5   6
BRANCH   4  18
ATOM     18  O2' ACP d          -6.511 -43.398  34.918  0.00  0.00    -0.388 OA
ATOM     19  H   ACP d          -6.016 -44.153  35.214  0.00  0.00     0.210 HD
ENDBRANCH   4  18
BRANCH   1  20
ATOM     20  C5' ACP d          -5.834 -43.192  30.468  0.00  0.00     0.216 C 
BRANCH  20  21
ATOM     21  O5' ACP d          -5.839 -41.859  29.920  0.00  0.00    -0.287 OA
BRANCH  21  22
ATOM     22  PA  ACP d          -4.488 -41.210  29.335  0.00  0.00     0.416 P 
ATOM     23  O1A ACP d          -4.601 -39.740  29.161  0.00  0.00    -0.624 OA
ATOM     24  O2A ACP d          -3.338 -41.484  30.315  0.00  0.00    -0.624 OA
BRANCH  22  25
ATOM     25  O3A ACP d          -4.211 -42.061  28.028  0.00  0.00    -0.204 OA
BRANCH  25  26
ATOM     26  PB  ACP d          -2.914 -42.740  27.400  0.00  0.00     0.255 P 
ATOM     27  O1B ACP d          -1.849 -41.679  27.347  0.00  0.00    -0.646 OA
ATOM     28  O2B ACP d          -2.550 -43.954  28.314  0.00  0.00    -0.646 OA
ATOM     29  C3B ACP d          -3.391 -43.372  25.776  0.00  0.00     0.154 C 
ENDBRANCH  25  26
ENDBRANCH  22  25
ENDBRANCH  21  22
ENDBRANCH  20  21
ENDBRANCH   1  20
BRANCH   3  30
ATOM     30  O3' ACP d          -5.412 -45.076  33.058  0.00  0.00    -0.390 OA
ATOM     31  H   ACP d          -4.882 -44.551  33.646  0.00  0.00     0.210 HD
ENDBRANCH   3  30
TORSDOF 9
