REMARK  3 active torsions:
REMARK  status: ('A' for Active; 'I' for Inactive)
REMARK    1  A    between atoms: C7_11  and  C6_1 
REMARK    2  A    between atoms: C5_3  and  C12_7 
REMARK    3  A    between atoms: C10_5  and  S15_15 
ROOT
ATOM      1  C6  GTC d          21.224   4.088  11.360  0.00  0.00     0.073 C 
ATOM      2  C2  GTC d          23.662   4.615  11.523  0.00  0.00     0.001 C 
ATOM      3  C5  GTC d          21.146   5.622  11.274  0.00  0.00     0.098 C 
ATOM      4  C4  GTC d          22.107   6.130  10.201  0.00  0.00     0.016 C 
ATOM      5  C3  GTC d          23.541   5.876  10.668  0.00  0.00     0.001 C 
ATOM      6  C1  GTC d          22.638   3.570  11.102  0.00  0.00     0.013 C 
ENDROOT
BRANCH   1   7
ATOM      7  C7  GTC d          20.266   3.394  10.461  0.00  0.00     0.154 A 
ATOM      8  N8  GTC d          20.193   3.382   9.098  0.00  0.00    -0.157 NA
ATOM      9  N9  GTC d          19.103   2.574   8.720  0.00  0.00    -0.254 N 
ATOM     10  C10 GTC d          18.619   2.169   9.910  0.00  0.00     0.181 A 
ATOM     11  H11 GTC d          18.763   2.350   7.774  0.00  0.00     0.191 HD
ATOM     12  N11 GTC d          19.282   2.630  10.961  0.00  0.00    -0.206 NA
BRANCH  10  13
ATOM     13  S15 GTC d          17.227   1.100  10.173  0.00  0.00    -0.104 SA
ATOM     14  H12 GTC d          16.834   0.837   9.283  0.00  0.00     0.110 HD
ENDBRANCH  10  13
ENDBRANCH   1   7
BRANCH   3  15
ATOM     15  C12 GTC d          19.745   6.151  11.074  0.00  0.00     0.177 C 
ATOM     16  O13 GTC d          19.149   5.957   9.993  0.00  0.00    -0.648 OA
ATOM     17  O14 GTC d          19.220   6.788  12.016  0.00  0.00    -0.648 OA
ENDBRANCH   3  15
TORSDOF 3
