REMARK  14 active torsions:
REMARK  status: ('A' for Active; 'I' for Inactive)
REMARK    1  A    between atoms: C2_3  and  O39_1 
REMARK    2  A    between atoms: S8_9  and  C5_6 
REMARK    3  A    between atoms: N11_12  and  S8_9 
REMARK    4  A    between atoms: N11_12  and  C12_13 
REMARK    5  A    between atoms: C16_20  and  N11_12 
REMARK    6  A    between atoms: C12_13  and  C13_14 
REMARK    7  A    between atoms: C17_21  and  C16_20 
REMARK    8  A    between atoms: C17_21  and  O18_22 
REMARK    9  A    between atoms: C19_23  and  C17_21 
REMARK   10  A    between atoms: C19_23  and  N20_24 
REMARK   11  A    between atoms: C32_36  and  C19_23 
REMARK       I    between atoms: N20_24  and  C21_25 
REMARK   12  A    between atoms: C21_25  and  O23_27 
REMARK   13  A    between atoms: O23_27  and  C25_29 
REMARK   14  A    between atoms: C38_42  and  C32_36 
ROOT
ATOM      1  C17 MOL d          13.909  18.961  17.941  0.00  0.00     0.160 C 
ENDROOT
BRANCH   1   2
ATOM      2  C16 MOL d          12.820  18.074  17.330  0.00  0.00     0.169 C 
BRANCH   2   3
ATOM      3  N11 MOL d          11.522  18.717  17.315  0.00  0.00    -0.302 N 
BRANCH   3   4
ATOM      4  S8  MOL d          10.873  19.106  15.852  0.00  0.00     0.261 S 
ATOM      5  O9  MOL d          11.947  19.309  14.865  0.00  0.00    -0.200 OA
ATOM      6  O10 MOL d           9.965  20.281  16.051  0.00  0.00    -0.200 OA
BRANCH   4   7
ATOM      7  C5  MOL d           9.851  17.755  15.346  0.00  0.00     0.079 C 
ATOM      8  C4  MOL d           8.481  17.721  15.541  0.00  0.00     0.028 C 
ATOM      9  C3  MOL d           7.737  16.572  15.243  0.00  0.00     0.038 C 
ATOM     10  C2  MOL d           8.380  15.448  14.728  0.00  0.00     0.068 C 
ATOM     11  C7  MOL d           9.722  15.560  14.370  0.00  0.00     0.038 C 
ATOM     12  C6  MOL d          10.439  16.669  14.749  0.00  0.00     0.028 C 
BRANCH  10  13
ATOM     13  O39 MOL d           7.793  14.259  14.424  0.00  0.00    -0.356 OA
ATOM     14  C40 MOL d           6.408  14.127  14.663  0.00  0.00     0.210 C 
ENDBRANCH  10  13
ENDBRANCH   4   7
ENDBRANCH   3   4
BRANCH   3  15
ATOM     15  C12 MOL d          10.606  18.310  18.325  0.00  0.00     0.160 C 
BRANCH  15  16
ATOM     16  C13 MOL d          11.099  18.647  19.735  0.00  0.00     0.103 C 
ATOM     17  C14 MOL d          11.045  20.131  20.025  0.00  0.00     0.036 C 
ATOM     18  C47 MOL d           9.701  20.300  20.763  0.00  0.00     0.105 C 
ATOM     19  C45 MOL d           9.312  18.895  21.141  0.00  0.00     0.218 C 
ATOM     20  N15 MOL d          10.103  18.031  20.614  0.00  0.00    -0.355 N 
ATOM     21  O46 MOL d           8.409  18.486  21.859  0.00  0.00    -0.274 OA
ATOM     22  H13 MOL d          10.045  17.047  20.785  0.00  0.00     0.162 HD
ENDBRANCH  15  16
ENDBRANCH   3  15
ENDBRANCH   2   3
ENDBRANCH   1   2
BRANCH   1  23
ATOM     23  O18 MOL d          15.007  18.158  18.325  0.00  0.00    -0.392 OA
ATOM     24  H19 MOL d          15.683  18.708  18.704  0.00  0.00     0.210 HD
ENDBRANCH   1  23
BRANCH   1  25
ATOM     25  C19 MOL d          14.345  20.130  17.062  0.00  0.00     0.121 C 
BRANCH  25  26
ATOM     26  N20 MOL d          15.131  21.083  17.807  0.00  0.00    -0.329 N 
ATOM     27  C21 MOL d          14.768  22.271  18.292  0.00  0.00     0.361 C 
ATOM     28  O22 MOL d          13.648  22.734  18.189  0.00  0.00    -0.238 OA
ATOM     29  H21 MOL d          16.078  20.816  17.984  0.00  0.00     0.165 HD
BRANCH  27  30
ATOM     30  O23 MOL d          15.788  22.938  18.932  0.00  0.00    -0.299 OA
BRANCH  30  31
ATOM     31  C25 MOL d          15.492  24.273  19.332  0.00  0.00     0.136 C 
ATOM     32  C24 MOL d          15.527  25.187  18.116  0.00  0.00     0.040 C 
ATOM     33  C31 MOL d          16.961  25.700  17.990  0.00  0.00     0.019 C 
ATOM     34  C27 MOL d          17.720  25.204  19.186  0.00  0.00     0.128 C 
ATOM     35  C30 MOL d          17.703  25.102  16.779  0.00  0.00     0.033 C 
ATOM     36  C26 MOL d          16.649  24.818  20.183  0.00  0.00     0.065 C 
ATOM     37  O28 MOL d          18.480  24.071  18.755  0.00  0.00    -0.385 OA
ATOM     38  C29 MOL d          18.539  23.952  17.354  0.00  0.00     0.168 C 
ENDBRANCH  30  31
ENDBRANCH  27  30
ENDBRANCH  25  26
BRANCH  25  39
ATOM     39  C32 MOL d          15.079  19.746  15.770  0.00  0.00     0.066 C 
BRANCH  39  40
ATOM     40  C38 MOL d          15.394  20.948  14.897  0.00  0.00    -0.056 A 
ATOM     41  C33 MOL d          16.715  21.379  14.770  0.00  0.00     0.007 A 
ATOM     42  C34 MOL d          16.976  22.550  14.056  0.00  0.00     0.001 A 
ATOM     43  C35 MOL d          15.974  23.212  13.352  0.00  0.00     0.000 A 
ATOM     44  C36 MOL d          14.680  22.710  13.436  0.00  0.00     0.001 A 
ATOM     45  C37 MOL d          14.386  21.591  14.208  0.00  0.00     0.007 A 
ENDBRANCH  39  40
ENDBRANCH  25  39
ENDBRANCH   1  25
TORSDOF 14
