REMARK  5 active torsions:
REMARK  status: ('A' for Active; 'I' for Inactive)
REMARK    1  A    between atoms: C26_8  and  S38_16 
REMARK    2  A    between atoms: N28_10  and  C1_20 
REMARK    3  A    between atoms: N37_15  and  C30_12 
REMARK    4  A    between atoms: S38_16  and  N37_15 
REMARK    5  A    between atoms: C1_20  and  C28_28 
ROOT
ATOM      1  N28 PR2 d           5.436   6.689  22.361  0.00  0.00    -0.345 N 
ATOM      2  C29 PR2 d           4.853   5.524  22.729  0.00  0.00     0.243 C 
ATOM      3  C30 PR2 d           5.198   4.504  21.670  0.00  0.00     0.186 C 
ATOM      4  C31 PR2 d           5.691   5.329  20.478  0.00  0.00     0.055 C 
ATOM      5  C32 PR2 d           6.176   6.613  21.104  0.00  0.00     0.129 C 
ATOM      6  O41 PR2 d           4.184   5.326  23.737  0.00  0.00    -0.271 OA
ENDROOT
BRANCH   3   7
ATOM      7  N37 PR2 d           4.038   3.731  21.246  0.00  0.00    -0.301 N 
ATOM      8  H10 PR2 d           3.218   4.193  20.908  0.00  0.00     0.173 HD
BRANCH   7   9
ATOM      9  S38 PR2 d           4.094   2.100  21.329  0.00  0.00     0.266 S 
ATOM     10  O40 PR2 d           4.366   1.809  22.710  0.00  0.00    -0.200 OA
ATOM     11  O39 PR2 d           2.817   1.798  20.762  0.00  0.00    -0.200 OA
BRANCH   9  12
ATOM     12  C26 PR2 d           5.417   1.585  20.358  0.00  0.00     0.123 A 
ATOM     13  C25 PR2 d           5.224   1.083  19.041  0.00  0.00     0.065 A 
ATOM     14  C21 PR2 d           6.523   0.821  18.514  0.00  0.00     0.075 A 
ATOM     15  C16 PR2 d           7.606   1.094  19.354  0.00  0.00     0.035 A 
ATOM     16  N20 PR2 d           6.731   0.314  17.228  0.00  0.00    -0.260 NA
ATOM     17  S27 PR2 d           7.060   1.695  20.824  0.00  0.00    -0.074 SA
ATOM     18  C17 PR2 d           8.938   0.856  18.918  0.00  0.00     0.023 A 
ATOM     19  C18 PR2 d           9.156   0.332  17.601  0.00  0.00     0.021 A 
ATOM     20  C19 PR2 d           8.009   0.076  16.781  0.00  0.00     0.117 A 
ENDBRANCH   9  12
ENDBRANCH   7   9
ENDBRANCH   3   7
BRANCH   1  21
ATOM     21  C1  PR2 d           5.397   7.956  23.094  0.00  0.00     0.182 C 
BRANCH  21  22
ATOM     22  C28 PR2 d           6.739   8.099  23.783  0.00  0.00     0.028 A 
ATOM     23  N29 PR2 d           7.001   7.433  24.923  0.00  0.00    -0.356 N 
ATOM     24  C5  PR2 d           8.287   7.737  25.313  0.00  0.00     0.060 A 
ATOM     25  H17 PR2 d           6.352   6.805  25.418  0.00  0.00     0.166 HD
ATOM     26  C2  PR2 d           8.834   8.658  24.327  0.00  0.00    -0.005 A 
ATOM     27  C6  PR2 d           9.103   7.343  26.415  0.00  0.00     0.146 A 
ATOM     28  C27 PR2 d           7.836   8.877  23.364  0.00  0.00     0.040 A 
ATOM     29  C3  PR2 d          10.164   9.155  24.465  0.00  0.00     0.033 A 
ATOM     30  C4  PR2 d          10.916   8.711  25.594  0.00  0.00     0.117 A 
ATOM     31  N5  PR2 d          10.361   7.844  26.498  0.00  0.00    -0.271 NA
ENDBRANCH  21  22
ENDBRANCH   1  21
TORSDOF 5
