REMARK  17 active torsions:
REMARK  status: ('A' for Active; 'I' for Inactive)
REMARK    1  A    between atoms: C21_2  and  C22_3 
REMARK       I    between atoms: C21_2  and  N20_9 
REMARK    2  A    between atoms: C22_3  and  C23_4 
REMARK    3  A    between atoms: C23_4  and  C24_5 
REMARK    4  A    between atoms: C24_5  and  C26_7 
REMARK    5  A    between atoms: N20_9  and  C19_10 
REMARK    6  A    between atoms: C19_10  and  C32_11 
REMARK    7  A    between atoms: C19_10  and  C17_18 
REMARK    8  A    between atoms: C32_11  and  C38_12 
REMARK    9  A    between atoms: C17_18  and  O18_19 
REMARK   10  A    between atoms: C17_18  and  C16_20 
REMARK   11  A    between atoms: C16_20  and  N11_21 
REMARK   12  A    between atoms: N11_21  and  C12_22 
REMARK   13  A    between atoms: N11_21  and  S8_27 
REMARK   14  A    between atoms: C12_22  and  C13_23 
REMARK   15  A    between atoms: C13_23  and  C15_25 
REMARK   16  A    between atoms: S8_27  and  C5_30 
REMARK   17  A    between atoms: C2_35  and  O19_36 
ROOT
ATOM      1  C17 MZ9 d          19.899  29.595  15.732  0.00  0.00     0.155 C 
ENDROOT
BRANCH   1   2
ATOM      2  C19 MZ9 d          19.448  29.181  14.333  0.00  0.00     0.118 C 
BRANCH   2   3
ATOM      3  N20 MZ9 d          20.465  28.349  13.716  0.00  0.00    -0.354 N 
ATOM      4  C21 MZ9 d          21.251  28.728  12.706  0.00  0.00     0.218 C 
ATOM      5  O22 MZ9 d          21.256  29.826  12.174  0.00  0.00    -0.274 OA
ATOM      6  H10 MZ9 d          20.586  27.423  14.074  0.00  0.00     0.163 HD
BRANCH   4   7
ATOM      7  C22 MZ9 d          22.200  27.675  12.193  0.00  0.00     0.110 C 
BRANCH   7   8
ATOM      8  C23 MZ9 d          21.789  27.234  10.792  0.00  0.00     0.087 C 
BRANCH   8   9
ATOM      9  C24 MZ9 d          21.510  25.750  10.649  0.00  0.00     0.127 C 
ATOM     10  O25 MZ9 d          21.801  24.934  11.524  0.00  0.00    -0.298 OA
BRANCH   9  11
ATOM     11  C26 MZ9 d          20.856  25.341   9.346  0.00  0.00     0.074 C 
ATOM     12  C27 MZ9 d          20.696  23.848   9.200  0.00  0.00     0.013 C 
ENDBRANCH   9  11
ENDBRANCH   8   9
ENDBRANCH   7   8
ENDBRANCH   4   7
ENDBRANCH   2   3
BRANCH   2  13
ATOM     13  C32 MZ9 d          18.133  28.402  14.304  0.00  0.00     0.066 C 
BRANCH  13  14
ATOM     14  C38 MZ9 d          17.824  28.023  12.868  0.00  0.00    -0.056 A 
ATOM     15  C37 MZ9 d          17.476  29.001  11.940  0.00  0.00     0.007 A 
ATOM     16  C36 MZ9 d          17.202  28.650  10.618  0.00  0.00     0.001 A 
ATOM     17  C35 MZ9 d          17.277  27.317  10.221  0.00  0.00     0.000 A 
ATOM     18  C34 MZ9 d          17.628  26.343  11.141  0.00  0.00     0.001 A 
ATOM     19  C33 MZ9 d          17.903  26.688  12.464  0.00  0.00     0.007 A 
ENDBRANCH  13  14
ENDBRANCH   2  13
ENDBRANCH   1   2
BRANCH   1  20
ATOM     20  O18 MZ9 d          19.875  28.478  16.637  0.00  0.00    -0.392 OA
ATOM     21  H20 MZ9 d          20.159  28.763  17.497  0.00  0.00     0.210 HD
ENDBRANCH   1  20
BRANCH   1  22
ATOM     22  C16 MZ9 d          19.066  30.740  16.315  0.00  0.00     0.141 C 
BRANCH  22  23
ATOM     23  N11 MZ9 d          19.342  31.975  15.546  0.00  0.00    -0.204 NA
BRANCH  23  24
ATOM     24  C12 MZ9 d          20.058  32.999  16.345  0.00  0.00     0.112 C 
BRANCH  24  25
ATOM     25  C13 MZ9 d          21.548  32.674  16.423  0.00  0.00    -0.005 C 
ATOM     26  C14 MZ9 d          22.214  32.604  15.045  0.00  0.00     0.011 C 
BRANCH  25  27
ATOM     27  C15 MZ9 d          22.252  33.664  17.355  0.00  0.00     0.001 C 
ATOM     28  C18 MZ9 d          22.178  35.102  16.896  0.00  0.00     0.005 C 
ENDBRANCH  25  27
ENDBRANCH  24  25
ENDBRANCH  23  24
BRANCH  23  29
ATOM     29  S8  MZ9 d          18.008  32.587  14.849  0.00  0.00     0.243 S 
ATOM     30  O10 MZ9 d          17.218  31.527  14.291  0.00  0.00    -0.206 OA
ATOM     31  O9  MZ9 d          18.476  33.434  13.786  0.00  0.00    -0.206 OA
BRANCH  29  32
ATOM     32  C5  MZ9 d          17.137  33.442  15.906  0.00  0.00     0.074 A 
ATOM     33  C6  MZ9 d          17.375  34.805  16.079  0.00  0.00     0.027 A 
ATOM     34  C7  MZ9 d          16.649  35.559  16.996  0.00  0.00     0.038 A 
ATOM     35  C2  MZ9 d          15.653  34.950  17.771  0.00  0.00     0.068 A 
ATOM     36  C3  MZ9 d          15.414  33.590  17.604  0.00  0.00     0.038 A 
ATOM     37  C4  MZ9 d          16.149  32.839  16.679  0.00  0.00     0.027 A 
BRANCH  35  38
ATOM     38  O19 MZ9 d          14.906  35.631  18.706  0.00  0.00    -0.356 OA
ATOM     39  C20 MZ9 d          14.948  37.051  18.905  0.00  0.00     0.210 C 
ENDBRANCH  35  38
ENDBRANCH  29  32
ENDBRANCH  23  29
ENDBRANCH  22  23
ENDBRANCH   1  22
TORSDOF 17
