REMARK  6 active torsions:
REMARK  status: ('A' for Active; 'I' for Inactive)
REMARK    1  A    between atoms: C5_2  and  C3_3 
REMARK       I    between atoms: C5_2  and  N7_7 
REMARK    2  A    between atoms: C3_3  and  N2_4 
REMARK    3  A    between atoms: N7_7  and  C8_8 
REMARK    4  A    between atoms: C18_20  and  C21_21 
REMARK       I    between atoms: C21_21  and  N23_23 
REMARK    5  A    between atoms: N23_23  and  C24_24 
REMARK    6  A    between atoms: N28_29  and  C30_30 
ROOT
ATOM      1  C8  MOL d          81.594  60.991  13.298  0.00  0.00     0.176 C 
ATOM      2  C9  MOL d          80.570  62.090  13.710  0.00  0.00     0.244 C 
ATOM      3  O15 MOL d          80.369  62.155  14.924  0.00  0.00    -0.271 OA
ATOM      4  C14 MOL d          81.967  60.817  11.814  0.00  0.00     0.035 C 
ATOM      5  C13 MOL d          80.822  60.612  10.807  0.00  0.00     0.005 C 
ATOM      6  C12 MOL d          79.802  61.762  10.621  0.00  0.00     0.036 C 
ATOM      7  C11 MOL d          80.016  63.061  11.429  0.00  0.00     0.151 C 
ATOM      8  N10 MOL d          79.859  62.927  12.893  0.00  0.00    -0.322 N 
ATOM      9  S16 MOL d          78.710  64.206  10.945  0.00  0.00    -0.132 SA
ATOM     10  C17 MOL d          78.567  65.005  12.553  0.00  0.00     0.032 C 
ATOM     11  C19 MOL d          77.206  65.721  12.691  0.00  0.00     0.029 C 
ATOM     12  C20 MOL d          79.649  66.101  12.718  0.00  0.00     0.029 C 
ATOM     13  C18 MOL d          78.783  63.786  13.489  0.00  0.00     0.198 C 
ENDROOT
BRANCH  13  14
ATOM     14  C21 MOL d          77.540  62.853  13.706  0.00  0.00     0.247 C 
ATOM     15  O22 MOL d          77.328  61.902  12.952  0.00  0.00    -0.271 OA
ATOM     16  N23 MOL d          76.748  63.189  14.734  0.00  0.00    -0.310 N 
ATOM     17  H26 MOL d          77.163  63.811  15.397  0.00  0.00     0.170 HD
BRANCH  16  18
ATOM     18  C24 MOL d          75.380  62.794  15.041  0.00  0.00     0.134 A 
ATOM     19  C25 MOL d          74.496  62.345  14.087  0.00  0.00     0.079 A 
ATOM     20  C26 MOL d          73.298  62.066  14.737  0.00  0.00     0.055 A 
ATOM     21  C29 MOL d          72.012  61.545  14.127  0.00  0.00     0.072 C 
ATOM     22  N27 MOL d          73.441  62.333  16.078  0.00  0.00    -0.171 NA
ATOM     23  N28 MOL d          74.704  62.785  16.292  0.00  0.00    -0.217 N 
BRANCH  23  24
ATOM     24  C30 MOL d          75.151  63.133  17.454  0.00  0.00     0.060 A 
ATOM     25  C31 MOL d          74.323  63.886  18.321  0.00  0.00     0.031 A 
ATOM     26  C32 MOL d          74.770  64.268  19.584  0.00  0.00     0.002 A 
ATOM     27  C33 MOL d          76.048  63.902  19.996  0.00  0.00     0.000 A 
ATOM     28  C34 MOL d          76.876  63.159  19.152  0.00  0.00     0.002 A 
ATOM     29  C35 MOL d          76.448  62.770  17.890  0.00  0.00     0.031 A 
ENDBRANCH  23  24
ENDBRANCH  16  18
ENDBRANCH  13  14
BRANCH   1  30
ATOM     30  N7  MOL d          82.751  61.248  14.198  0.00  0.00    -0.346 N 
ATOM     31  C5  MOL d          84.057  61.043  13.993  0.00  0.00     0.248 C 
ATOM     32  O6  MOL d          84.649  61.331  12.970  0.00  0.00    -0.271 OA
ATOM     33  H10 MOL d          82.517  61.632  15.091  0.00  0.00     0.163 HD
BRANCH  31  34
ATOM     34  C3  MOL d          84.846  60.447  15.187  0.00  0.00     0.272 C 
ATOM     35  C4  MOL d          84.819  61.351  16.437  0.00  0.00     0.050 C 
BRANCH  34  36
ATOM     36  N2  MOL d          86.251  60.079  14.838  0.00  0.00    -0.067 N 
ATOM     37  C1  MOL d          86.371  58.956  13.882  0.00  0.00     0.267 C 
ATOM     38  H2  MOL d          86.730  59.822  15.687  0.00  0.00     0.277 HD
ATOM     39  H3  MOL d          86.697  60.887  14.432  0.00  0.00     0.277 HD
ENDBRANCH  34  36
ENDBRANCH  31  34
ENDBRANCH   1  30
TORSDOF 6
