REMARK  3 active torsions:
REMARK  status: ('A' for Active; 'I' for Inactive)
REMARK    1  A    between atoms: C4_15  and  N4_22 
REMARK    2  A    between atoms: C2_17  and  S2_18 
REMARK    3  A    between atoms: N4_22  and  C1'_23 
ROOT
ATOM      1  O16 MOL d          28.112  34.555  26.036  0.00  0.00    -0.286 OA
ATOM      2  C10 MOL d          29.150  35.086  25.637  0.00  0.00     0.196 A 
ATOM      3  C14 MOL d          29.164  35.864  24.342  0.00  0.00     0.029 A 
ATOM      4  C5  MOL d          28.010  35.983  23.544  0.00  0.00     0.016 A 
ATOM      5  C6  MOL d          28.097  36.694  22.338  0.00  0.00     0.001 A 
ATOM      6  C7  MOL d          29.301  37.278  21.890  0.00  0.00     0.001 A 
ATOM      7  C8  MOL d          30.462  37.183  22.653  0.00  0.00     0.016 A 
ATOM      8  C13 MOL d          30.434  36.481  23.879  0.00  0.00     0.029 A 
ATOM      9  C9  MOL d          31.658  36.335  24.716  0.00  0.00     0.196 A 
ATOM     10  O9  MOL d          32.726  36.854  24.363  0.00  0.00    -0.286 OA
ATOM     11  C11 MOL d          30.371  34.955  26.485  0.00  0.00     0.058 A 
ATOM     12  C12 MOL d          31.622  35.590  26.006  0.00  0.00     0.059 A 
ATOM     13  C1  MOL d          32.819  35.458  26.860  0.00  0.00     0.065 A 
ATOM     14  N1  MOL d          34.007  35.960  26.481  0.00  0.00    -0.397 N 
ATOM     15  C4  MOL d          30.347  34.195  27.791  0.00  0.00     0.049 A 
ATOM     16  C3  MOL d          31.521  34.109  28.540  0.00  0.00     0.059 A 
ATOM     17  C2  MOL d          32.757  34.671  28.140  0.00  0.00     0.110 A 
ATOM     18  H   MOL d          34.082  36.504  25.609  0.00  0.00     0.156 HD
ATOM     19  H   MOL d          34.842  35.801  27.062  0.00  0.00     0.156 HD
ENDROOT
BRANCH  15  20
ATOM     20  N4  MOL d          29.143  33.647  28.127  0.00  0.00    -0.355 N 
ATOM     21  H   MOL d          28.336  33.851  27.520  0.00  0.00     0.166 HD
BRANCH  20  22
ATOM     22  C1' MOL d          28.935  32.845  29.215  0.00  0.00     0.033 A 
ATOM     23  C6' MOL d          27.736  33.025  29.924  0.00  0.00     0.029 A 
ATOM     24  C5' MOL d          27.377  32.256  31.058  0.00  0.00     0.003 A 
ATOM     25  C4' MOL d          28.308  31.316  31.455  0.00  0.00     0.007 A 
ATOM     26  C3' MOL d          29.488  31.131  30.777  0.00  0.00    -0.060 A 
ATOM     27  C7' MOL d          30.426  30.101  31.273  0.00  0.00     0.048 C 
ATOM     28  C2' MOL d          29.843  31.858  29.618  0.00  0.00     0.036 A 
ENDBRANCH  20  22
ENDBRANCH  15  20
BRANCH  17  29
ATOM     29  S2  MOL d          34.108  34.566  29.068  0.00  0.00     0.140 S 
ATOM     30  OS2 MOL d          35.187  33.823  28.405  0.00  0.00    -0.591 OA
ATOM     31  OS1 MOL d          33.696  33.871  30.360  0.00  0.00    -0.591 OA
ATOM     32  OS3 MOL d          34.582  35.909  29.411  0.00  0.00    -0.591 OA
ENDBRANCH  17  29
TORSDOF 3
