4cd1_ligand

Created by X-TOOL on Sat Nov 28 16:04:38 2015
 44 47  0  0  0  0  0  0  0  0999 V2000
   28.1120   34.5550   26.0360  O 0  0  0  1  0  1
   29.1500   35.0860   25.6370  C 0  0  0  1  0  3
   29.1640   35.8640   24.3420  C 0  0  0  1  0  3
   28.0100   35.9830   23.5440  C 0  0  0  2  0  3
   28.0970   36.6940   22.3380  C 0  0  0  2  0  3
   29.3010   37.2780   21.8900  C 0  0  0  2  0  3
   30.4620   37.1830   22.6530  C 0  0  0  2  0  3
   30.4340   36.4810   23.8790  C 0  0  0  1  0  3
   31.6580   36.3350   24.7160  C 0  0  0  1  0  3
   32.7260   36.8540   24.3630  O 0  0  0  1  0  1
   30.3710   34.9550   26.4850  C 0  0  0  1  0  3
   31.6220   35.5900   26.0060  C 0  0  0  1  0  3
   32.8190   35.4580   26.8600  C 0  0  0  1  0  3
   34.0070   35.9600   26.4810  N 0  0  0  3  0  3
   30.3470   34.1950   27.7910  C 0  0  0  1  0  3
   31.5210   34.1090   28.5400  C 0  0  0  2  0  3
   32.7570   34.6710   28.1400  C 0  0  0  1  0  3
   34.1080   34.5660   29.0680  S 0  0  0  1  0  4
   35.1870   33.8230   28.4050  O 0  0  0  1  0  1
   33.6960   33.8710   30.3600  O 0  0  0  1  0  1
   34.5820   35.9090   29.4110  O 0  0  0  1  0  1
   29.1430   33.6470   28.1270  N 0  0  0  2  0  3
   28.9350   32.8450   29.2150  C 0  0  0  1  0  3
   27.7360   33.0250   29.9240  C 0  0  0  2  0  3
   27.3770   32.2560   31.0580  C 0  0  0  2  0  3
   28.3080   31.3160   31.4550  C 0  0  0  2  0  3
   29.4880   31.1310   30.7770  C 0  0  0  1  0  3
   30.4260   30.1010   31.2730  C 0  0  0  4  0  4
   29.8430   31.8580   29.6180  C 0  0  0  2  0  3
   27.0736   35.5344   23.8553  H 0  0  0  1  0  1
   27.2071   36.7987   21.7280  H 0  0  0  1  0  1
   29.3223   37.8054   20.9432  H 0  0  0  1  0  1
   31.3806   37.6443   22.3089  H 0  0  0  1  0  1
   34.0820   36.5035   25.6093  H 0  0  0  1  0  1
   34.8423   35.8011   27.0623  H 0  0  0  1  0  1
   31.4843   33.5798   29.4854  H 0  0  0  1  0  1
   28.3364   33.8513   27.5200  H 0  0  0  1  0  1
   27.0495   33.7926   29.5856  H 0  0  0  1  0  1
   26.4364   32.3955   31.5785  H 0  0  0  1  0  1
   28.1012   30.7065   32.3272  H 0  0  0  1  0  1
   31.3166   30.0751   30.6280  H 0  0  0  1  0  1
   29.9330   29.1178   31.2570  H 0  0  0  1  0  1
   30.7262   30.3439   32.3030  H 0  0  0  1  0  1
   30.7608   31.6637   29.0750  H 0  0  0  1  0  1
  1  2  2  0  0  2
  2  3  1  0  0  1
  2 11  1  0  0  1
  3  4  4  0  0  1
  3  8  4  0  0  1
  4  5  4  0  0  1
  5  6  4  0  0  1
  6  7  4  0  0  1
  7  8  4  0  0  1
  8  9  1  0  0  1
  9 10  2  0  0  2
  9 12  1  0  0  1
 11 12  4  0  0  1
 11 15  4  0  0  1
 12 13  4  0  0  1
 13 14  1  0  0  2
 13 17  4  0  0  1
 15 16  4  0  0  1
 15 22  1  0  0  2
 16 17  4  0  0  1
 17 18  1  0  0  2
 18 19  2  0  0  2
 18 20  2  0  0  2
 18 21  2  0  0  2
 22 23  1  0  0  2
 23 24  4  0  0  1
 23 29  4  0  0  1
 24 25  4  0  0  1
 25 26  4  0  0  1
 26 27  4  0  0  1
 27 28  1  0  0  2
 27 29  4  0  0  1
  4 30  1  0  0  2
  5 31  1  0  0  2
  6 32  1  0  0  2
  7 33  1  0  0  2
 14 34  1  0  0  2
 14 35  1  0  0  2
 16 36  1  0  0  2
 22 37  1  0  0  2
 24 38  1  0  0  2
 25 39  1  0  0  2
 26 40  1  0  0  2
 28 41  1  0  0  2
 28 42  1  0  0  2
 28 43  1  0  0  2
 29 44  1  0  0  2
M  END
> <MOLECULAR_FORMULA>
C21H15N2O5S

> <MOLECULAR_WEIGHT>
407.3

> <NUM_HB_ATOMS>
7  

> <NUM_ROTOR>
0  

> <XLOGP2>
4.07 

$$$$
