REMARK  14 active torsions:
REMARK  status: ('A' for Active; 'I' for Inactive)
REMARK    1  A    between atoms: C4_9  and  O4_2 
REMARK    2  A    between atoms: C5_10  and  O5_3 
REMARK    3  A    between atoms: N2_4  and  C2_7 
REMARK    4  A    between atoms: N7_5  and  C7_12 
REMARK    5  A    between atoms: C2_7  and  C20_27 
REMARK    6  A    between atoms: C3_8  and  C31_13 
REMARK    7  A    between atoms: C6_11  and  C61_20 
REMARK    8  A    between atoms: C7_12  and  C70_41 
REMARK    9  A    between atoms: C31_13  and  C32_14 
REMARK   10  A    between atoms: C61_20  and  C62_21 
REMARK   11  A    between atoms: C22_29  and  C26_33 
REMARK       I    between atoms: C26_33  and  N26_35 
REMARK   12  A    between atoms: N26_35  and  C27_37 
REMARK   13  A    between atoms: C72_43  and  C76_47 
REMARK       I    between atoms: C76_47  and  N76_49 
REMARK   14  A    between atoms: N76_49  and  C77_51 
ROOT
ATOM      1  O1  XV6 d          -8.239  14.332  27.722  0.00  0.00    -0.247 OA
ATOM      2  N2  XV6 d          -9.743  15.550  28.754  0.00  0.00    -0.322 N 
ATOM      3  N7  XV6 d          -8.756  16.196  26.694  0.00  0.00    -0.322 N 
ATOM      4  C1  XV6 d          -8.914  15.344  27.713  0.00  0.00     0.322 C 
ATOM      5  C3  XV6 d         -10.891  16.496  28.793  0.00  0.00     0.124 C 
ATOM      6  C4  XV6 d         -10.632  17.966  28.512  0.00  0.00     0.172 C 
ATOM      7  C5  XV6 d         -10.306  18.214  27.059  0.00  0.00     0.172 C 
ATOM      8  C6  XV6 d          -8.919  17.673  26.808  0.00  0.00     0.124 C 
ENDROOT
BRANCH   2   9
ATOM      9  C2  XV6 d          -9.531  14.702  29.952  0.00  0.00     0.166 C 
BRANCH   9  10
ATOM     10  C20 XV6 d          -9.436  15.459  31.252  0.00  0.00    -0.039 A 
ATOM     11  C25 XV6 d          -8.665  16.645  31.361  0.00  0.00     0.009 A 
ATOM     12  C24 XV6 d          -8.631  17.364  32.577  0.00  0.00     0.002 A 
ATOM     13  C23 XV6 d          -9.361  16.879  33.687  0.00  0.00     0.017 A 
ATOM     14  C22 XV6 d         -10.120  15.692  33.574  0.00  0.00     0.033 A 
ATOM     15  C21 XV6 d         -10.158  14.980  32.356  0.00  0.00     0.026 A 
BRANCH  14  16
ATOM     16  C26 XV6 d         -10.843  15.171  34.776  0.00  0.00     0.257 C 
ATOM     17  N26 XV6 d         -10.965  13.827  34.814  0.00  0.00    -0.301 N 
ATOM     18  H29 XV6 d         -10.663  13.289  34.027  0.00  0.00     0.171 HD
ATOM     19  O26 XV6 d         -11.256  15.890  35.674  0.00  0.00    -0.267 OA
BRANCH  17  20
ATOM     20  C27 XV6 d         -11.529  13.135  35.979  0.00  0.00     0.173 A 
ATOM     21  N27 XV6 d         -11.443  11.824  36.221  0.00  0.00    -0.236 NA
ATOM     22  C28 XV6 d         -12.015  11.455  37.419  0.00  0.00     0.126 A 
ATOM     23  C29 XV6 d         -12.585  12.495  38.165  0.00  0.00     0.072 A 
ATOM     24  S29 XV6 d         -12.335  13.887  37.250  0.00  0.00    -0.062 SA
ENDBRANCH  17  20
ENDBRANCH  14  16
ENDBRANCH   9  10
ENDBRANCH   2   9
BRANCH   5  25
ATOM     25  C31 XV6 d         -12.088  15.871  28.053  0.00  0.00     0.066 C 
BRANCH  25  26
ATOM     26  C32 XV6 d         -12.576  14.592  28.701  0.00  0.00    -0.056 A 
ATOM     27  C37 XV6 d         -13.413  14.660  29.830  0.00  0.00     0.007 A 
ATOM     28  C36 XV6 d         -13.837  13.482  30.466  0.00  0.00     0.001 A 
ATOM     29  C35 XV6 d         -13.413  12.241  29.960  0.00  0.00     0.000 A 
ATOM     30  C34 XV6 d         -12.577  12.161  28.826  0.00  0.00     0.001 A 
ATOM     31  C33 XV6 d         -12.155  13.342  28.192  0.00  0.00     0.007 A 
ENDBRANCH  25  26
ENDBRANCH   5  25
BRANCH   3  32
ATOM     32  C7  XV6 d          -8.111  15.654  25.490  0.00  0.00     0.166 C 
BRANCH  32  33
ATOM     33  C70 XV6 d          -8.755  15.953  24.177  0.00  0.00    -0.039 A 
ATOM     34  C75 XV6 d         -10.165  15.980  24.023  0.00  0.00     0.009 A 
ATOM     35  C74 XV6 d         -10.742  16.321  22.782  0.00  0.00     0.002 A 
ATOM     36  C73 XV6 d          -9.887  16.634  21.701  0.00  0.00     0.017 A 
ATOM     37  C72 XV6 d          -8.489  16.591  21.856  0.00  0.00     0.033 A 
ATOM     38  C71 XV6 d          -7.925  16.244  23.096  0.00  0.00     0.026 A 
BRANCH  37  39
ATOM     39  C76 XV6 d          -7.610  16.942  20.709  0.00  0.00     0.257 C 
ATOM     40  N76 XV6 d          -6.412  16.333  20.695  0.00  0.00    -0.301 N 
ATOM     41  H36 XV6 d          -6.194  15.689  21.428  0.00  0.00     0.171 HD
ATOM     42  O76 XV6 d          -7.937  17.739  19.851  0.00  0.00    -0.267 OA
BRANCH  40  43
ATOM     43  C77 XV6 d          -5.402  16.574  19.643  0.00  0.00     0.173 A 
ATOM     44  N77 XV6 d          -4.147  16.081  19.659  0.00  0.00    -0.236 NA
ATOM     45  C78 XV6 d          -3.424  16.426  18.537  0.00  0.00     0.126 A 
ATOM     46  C79 XV6 d          -4.109  17.221  17.587  0.00  0.00     0.072 A 
ATOM     47  S79 XV6 d          -5.654  17.475  18.223  0.00  0.00    -0.062 SA
ENDBRANCH  40  43
ENDBRANCH  37  39
ENDBRANCH  32  33
ENDBRANCH   3  32
BRANCH   6  48
ATOM     48  O4  XV6 d         -11.795  18.622  28.908  0.00  0.00    -0.391 OA
ATOM     49  H1  XV6 d         -11.687  19.558  28.784  0.00  0.00     0.210 HD
ENDBRANCH   6  48
BRANCH   8  50
ATOM     50  C61 XV6 d          -7.846  18.250  27.770  0.00  0.00     0.066 C 
BRANCH  50  51
ATOM     51  C62 XV6 d          -6.439  18.064  27.237  0.00  0.00    -0.056 A 
ATOM     52  C67 XV6 d          -5.545  17.212  27.917  0.00  0.00     0.007 A 
ATOM     53  C66 XV6 d          -4.254  16.997  27.395  0.00  0.00     0.001 A 
ATOM     54  C65 XV6 d          -3.866  17.640  26.188  0.00  0.00     0.000 A 
ATOM     55  C64 XV6 d          -4.763  18.505  25.502  0.00  0.00     0.001 A 
ATOM     56  C63 XV6 d          -6.052  18.714  26.033  0.00  0.00     0.007 A 
ENDBRANCH  50  51
ENDBRANCH   8  50
BRANCH   7  57
ATOM     57  O5  XV6 d         -10.202  19.589  26.813  0.00  0.00    -0.391 OA
ATOM     58  H2  XV6 d         -11.047  19.999  26.953  0.00  0.00     0.210 HD
ENDBRANCH   7  57
TORSDOF 14
