2i2b_ligand

Created by X-TOOL on Fri Sep 26 17:34:37 2014
 28 30  0  0  0  0  0  0  0  0999 V2000
   19.7790    4.2800    7.8010  N 0  0  0  1  0  2
   20.0980    5.3930    8.4510  C 0  0  0  2  0  3
   19.2200    6.3550    8.6680  N 0  0  0  1  0  2
   17.9650    6.2340    8.2110  C 0  0  0  1  0  3
   16.9050    7.0300    8.2790  N 0  0  0  1  0  3
   15.8900    6.4130    7.6560  C 0  0  0  2  0  3
   16.3050    5.2300    7.1930  N 0  0  0  1  0  2
   17.5860    5.0880    7.5270  C 0  0  0  1  0  3
   18.5360    4.0890    7.3290  C 0  0  0  1  0  3
   18.2410    2.9660    6.6780  N 0  0  0  3  0  3
   16.8840    8.3770    8.9400  C 0  0  0  2  0  4
   16.7340    9.4890    7.8850  C 0  0  0  2  0  4
   15.5200   10.3030    8.3650  C 0  0  0  2  0  4
   15.4000    9.9120    9.8450  C 0  0  0  3  0  4
   15.7720    8.5210    9.8630  O 0  0  0  1  0  2
   17.9230   10.2990    7.8820  O 0  0  0  2  0  2
   15.7650   11.7210    8.2420  O 0  0  0  2  0  2
   21.1116    5.5158    8.8151  H 0  0  0  1  0  1
   14.8836    6.8139    7.5447  H 0  0  0  1  0  1
   17.2889    2.8162    6.3147  H 0  0  0  1  0  1
   18.9648    2.2468    6.5375  H 0  0  0  1  0  1
   17.8285    8.5123    9.4874  H 0  0  0  1  0  1
   16.5588    9.0710    6.8827  H 0  0  0  1  0  1
   14.6132   10.0320    7.8044  H 0  0  0  1  0  1
   14.3689   10.0467   10.2038  H 0  0  0  1  0  1
   16.0849   10.5090   10.4650  H 0  0  0  1  0  1
   17.7995   11.0387    7.2988  H 0  0  0  1  0  1
   16.5738   11.9414    8.6890  H 0  0  0  1  0  1
  1  2  4  0  0  1
  1  9  4  0  0  1
  2  3  4  0  0  1
  3  4  4  0  0  1
  4  5  1  0  0  1
  4  8  4  0  0  1
  5  6  1  0  0  1
  5 11  1  0  0  2
  6  7  2  0  0  1
  7  8  1  0  0  1
  8  9  4  0  0  1
  9 10  1  0  0  2
 11 12  1  0  0  1
 11 15  1  0  0  1
 12 13  1  0  0  1
 12 16  1  0  0  2
 13 14  1  0  0  1
 13 17  1  0  0  2
 14 15  1  0  0  1
  2 18  1  0  0  2
  6 19  1  0  0  2
 10 20  1  0  0  2
 10 21  1  0  0  2
 11 22  1  0  0  2
 12 23  1  0  0  2
 13 24  1  0  0  2
 14 25  1  0  0  2
 14 26  1  0  0  2
 16 27  1  0  0  2
 17 28  1  0  0  2
M  END
> <MOLECULAR_FORMULA>
C9H11N5O3

> <MOLECULAR_WEIGHT>
237.1

> <NUM_HB_ATOMS>
8  

> <NUM_ROTOR>
1  

> <XLOGP2>
-1.42

$$$$
