REMARK  11 active torsions:
REMARK  status: ('A' for Active; 'I' for Inactive)
REMARK    1  A    between atoms: C25_7  and  C24_8 
REMARK    2  A    between atoms: C24_8  and  S23_9 
REMARK    3  A    between atoms: S23_9  and  C22_10 
REMARK    4  A    between atoms: C22_10  and  C20_11 
REMARK    5  A    between atoms: C20_11  and  C21_12 
REMARK    6  A    between atoms: C20_11  and  N19_15 
REMARK       I    between atoms: N19_15  and  C19_16 
REMARK       I    between atoms: C19_16  and  N15_18 
REMARK    7  A    between atoms: N15_18  and  C16_19 
REMARK       I    between atoms: N15_18  and  C15_22 
REMARK    8  A    between atoms: C16_19  and  C17_20 
REMARK    9  A    between atoms: C15_22  and  C11_24 
REMARK   10  A    between atoms: C9_29  and  C8_30 
REMARK   11  A    between atoms: C7_31  and  C1_32 
ROOT
ATOM      1  N19 X0R d         -18.288 -27.225 -13.157  0.00  0.00    -0.327 N 
ATOM      2  C19 X0R d         -18.540 -25.954 -13.480  0.00  0.00     0.326 C 
ATOM      3  O19 X0R d         -19.518 -25.736 -14.175  0.00  0.00    -0.247 OA
ATOM      4  N15 X0R d         -17.760 -24.946 -13.031  0.00  0.00    -0.266 N 
ATOM      5  C15 X0R d         -16.520 -25.239 -12.641  0.00  0.00     0.261 C 
ATOM      6  O15 X0R d         -16.011 -26.317 -12.892  0.00  0.00    -0.267 OA
ATOM      7  H   X0R d         -17.504 -27.439 -12.575  0.00  0.00     0.165 HD
ENDROOT
BRANCH   4   8
ATOM      8  C16 X0R d         -18.333 -23.656 -12.714  0.00  0.00     0.137 C 
BRANCH   8   9
ATOM      9  C17 X0R d         -18.343 -22.929 -14.040  0.00  0.00     0.016 C 
ATOM     10  C18 X0R d         -19.267 -21.732 -13.963  0.00  0.00     0.006 C 
ENDBRANCH   8   9
ENDBRANCH   4   8
BRANCH   5  11
ATOM     11  C11 X0R d         -15.711 -24.242 -11.857  0.00  0.00     0.034 A 
ATOM     12  C10 X0R d         -14.787 -23.405 -12.495  0.00  0.00     0.037 A 
ATOM     13  C9  X0R d         -14.004 -22.489 -11.771  0.00  0.00     0.019 A 
ATOM     14  C14 X0R d         -14.177 -22.392 -10.387  0.00  0.00     0.020 A 
ATOM     15  C13 X0R d         -15.098 -23.220  -9.751  0.00  0.00     0.002 A 
ATOM     16  C12 X0R d         -15.865 -24.149 -10.472  0.00  0.00     0.017 A 
BRANCH  13  17
ATOM     17  C8  X0R d         -13.165 -21.719 -12.400  0.00  0.00    -0.061 C 
ATOM     18  C7  X0R d         -12.391 -21.011 -12.978  0.00  0.00    -0.058 C 
BRANCH  18  19
ATOM     19  C1  X0R d         -11.568 -20.255 -13.648  0.00  0.00     0.056 A 
ATOM     20  C6  X0R d         -11.657 -18.866 -13.597  0.00  0.00     0.027 A 
ATOM     21  C5  X0R d         -10.717 -18.096 -14.294  0.00  0.00     0.044 A 
ATOM     22  C4  X0R d          -9.688 -18.677 -15.052  0.00  0.00     0.119 A 
ATOM     23  F4  X0R d          -8.764 -17.950 -15.755  0.00  0.00    -0.206 F 
ATOM     24  C3  X0R d          -9.603 -20.049 -15.073  0.00  0.00     0.086 A 
ATOM     25  C2  X0R d         -10.517 -20.823 -14.368  0.00  0.00     0.138 A 
ATOM     26  F2  X0R d         -10.357 -22.162 -14.406  0.00  0.00    -0.204 F 
ENDBRANCH  18  19
ENDBRANCH  13  17
ENDBRANCH   5  11
BRANCH   1  27
ATOM     27  C20 X0R d         -19.142 -28.311 -13.642  0.00  0.00     0.196 C 
BRANCH  27  28
ATOM     28  C22 X0R d         -18.324 -29.517 -14.067  0.00  0.00     0.110 C 
BRANCH  28  29
ATOM     29  S23 X0R d         -18.271 -29.540 -15.818  0.00  0.00    -0.162 SA
BRANCH  29  30
ATOM     30  C24 X0R d         -16.802 -28.612 -15.974  0.00  0.00     0.112 C 
BRANCH  30  31
ATOM     31  C25 X0R d         -15.622 -29.469 -15.578  0.00  0.00    -0.049 A 
ATOM     32  C26 X0R d         -15.442 -30.704 -16.203  0.00  0.00     0.009 A 
ATOM     33  C27 X0R d         -14.358 -31.509 -15.866  0.00  0.00     0.019 A 
ATOM     34  C28 X0R d         -13.442 -31.043 -14.913  0.00  0.00     0.011 A 
ATOM     35 BR   X0R d         -11.964 -32.131 -14.482  0.00  0.00    -0.051 Br
ATOM     36  C29 X0R d         -13.620 -29.809 -14.270  0.00  0.00     0.019 A 
ATOM     37  C30 X0R d         -14.721 -29.012 -14.596  0.00  0.00     0.009 A 
ENDBRANCH  30  31
ENDBRANCH  29  30
ENDBRANCH  28  29
ENDBRANCH  27  28
BRANCH  27  38
ATOM     38  C21 X0R d         -20.102 -28.871 -12.640  0.00  0.00     0.197 C 
ATOM     39  O2  X0R d         -21.330 -28.796 -12.879  0.00  0.00    -0.646 OA
ATOM     40  O1  X0R d         -19.616 -29.424 -11.625  0.00  0.00    -0.646 OA
ENDBRANCH  27  38
ENDBRANCH   1  27
TORSDOF 11
