REMARK  9 active torsions:
REMARK  status: ('A' for Active; 'I' for Inactive)
REMARK    1  A    between atoms: C1_1  and  C2_4 
REMARK    2  A    between atoms: C4_6  and  NE_20 
REMARK    3  A    between atoms: C5_7  and  N5_8 
REMARK       I    between atoms: N5_8  and  C10_9 
REMARK    4  A    between atoms: C6_12  and  C7_14 
REMARK    5  A    between atoms: C7_14  and  O7_15 
REMARK    6  A    between atoms: C7_14  and  C8_16 
REMARK    7  A    between atoms: C8_16  and  O8_17 
REMARK    8  A    between atoms: C8_16  and  C9_18 
REMARK    9  A    between atoms: C9_18  and  O9_19 
REMARK       I    between atoms: NE_20  and  CZ_21 
REMARK       I    between atoms: CZ_21  and  NH1_22 
ROOT
ATOM      1  C2  ZMR d          19.822 -30.658  17.099  0.00  0.00     0.144 C 
ATOM      2  C3  ZMR d          19.653 -29.529  17.894  0.00  0.00     0.045 C 
ATOM      3  C4  ZMR d          19.271 -29.582  19.386  0.00  0.00     0.150 C 
ATOM      4  C5  ZMR d          19.331 -31.024  19.923  0.00  0.00     0.143 C 
ATOM      5  C6  ZMR d          18.934 -32.070  18.845  0.00  0.00     0.185 C 
ATOM      6  O6  ZMR d          19.643 -31.926  17.550  0.00  0.00    -0.335 OA
ENDROOT
BRANCH   3   7
ATOM      7  NE  ZMR d          20.361 -28.807  19.973  0.00  0.00    -0.217 N 
ATOM      8  CZ  ZMR d          20.242 -27.763  20.760  0.00  0.00     0.665 C 
ATOM      9  NH1 ZMR d          19.055 -27.336  21.130  0.00  0.00    -0.235 N 
ATOM     10  NH2 ZMR d          21.358 -27.162  21.201  0.00  0.00    -0.235 N 
ATOM     11  H17 ZMR d          18.972 -26.516  21.748  0.00  0.00     0.174 HD
ATOM     12  H18 ZMR d          18.208 -27.822  20.802  0.00  0.00     0.174 HD
ATOM     13  H19 ZMR d          22.281 -27.508  20.903  0.00  0.00     0.174 HD
ATOM     14  H20 ZMR d          21.291 -26.355  21.838  0.00  0.00     0.174 HD
ATOM     15  H16 ZMR d          21.319 -29.110  19.747  0.00  0.00     0.178 HD
ENDBRANCH   3   7
BRANCH   4  16
ATOM     16  N5  ZMR d          18.502 -31.213  21.144  0.00  0.00    -0.352 N 
ATOM     17  C10 ZMR d          19.009 -31.872  22.181  0.00  0.00     0.214 C 
ATOM     18  O10 ZMR d          20.149 -32.354  22.201  0.00  0.00    -0.274 OA
ATOM     19  C11 ZMR d          18.062 -32.040  23.379  0.00  0.00     0.117 C 
ATOM     20  H4  ZMR d          17.572 -30.848  21.184  0.00  0.00     0.163 HD
ENDBRANCH   4  16
BRANCH   1  21
ATOM     21  C1  ZMR d          20.248 -30.497  15.644  0.00  0.00     0.233 C 
ATOM     22  O1A ZMR d          20.337 -31.539  14.983  0.00  0.00    -0.642 OA
ATOM     23  O1B ZMR d          20.464 -29.355  15.203  0.00  0.00    -0.642 OA
ENDBRANCH   1  21
BRANCH   5  24
ATOM     24  C7  ZMR d          19.206 -33.535  19.255  0.00  0.00     0.180 C 
BRANCH  24  25
ATOM     25  O7  ZMR d          20.583 -33.665  19.691  0.00  0.00    -0.390 OA
ATOM     26  H10 ZMR d          20.734 -33.093  20.435  0.00  0.00     0.210 HD
ENDBRANCH  24  25
BRANCH  24  27
ATOM     27  C8  ZMR d          18.941 -34.537  18.124  0.00  0.00     0.173 C 
BRANCH  27  28
ATOM     28  O8  ZMR d          17.575 -34.480  17.665  0.00  0.00    -0.391 OA
ATOM     29  H12 ZMR d          17.450 -35.112  16.967  0.00  0.00     0.210 HD
ENDBRANCH  27  28
BRANCH  27  30
ATOM     30  C9  ZMR d          19.303 -35.958  18.572  0.00  0.00     0.198 C 
BRANCH  30  31
ATOM     31  O9  ZMR d          19.156 -36.864  17.484  0.00  0.00    -0.398 OA
ATOM     32  H15 ZMR d          18.255 -36.851  17.182  0.00  0.00     0.209 HD
ENDBRANCH  30  31
ENDBRANCH  27  30
ENDBRANCH  24  27
ENDBRANCH   5  24
TORSDOF 9
