REMARK  13 active torsions:
REMARK  status: ('A' for Active; 'I' for Inactive)
REMARK    1  A    between atoms: S8_10  and  C5_7 
REMARK    2  A    between atoms: N11_13  and  S8_10 
REMARK    3  A    between atoms: N11_13  and  C12_14 
REMARK    4  A    between atoms: C16_18  and  N11_13 
REMARK    5  A    between atoms: C12_14  and  C13_15 
REMARK    6  A    between atoms: C17_19  and  C16_18 
REMARK    7  A    between atoms: C17_19  and  O18_20 
REMARK    8  A    between atoms: C19_21  and  C17_19 
REMARK    9  A    between atoms: C19_21  and  N20_22 
REMARK   10  A    between atoms: C32_34  and  C19_21 
REMARK       I    between atoms: N20_22  and  C21_23 
REMARK   11  A    between atoms: C21_23  and  O23_25 
REMARK   12  A    between atoms: O23_25  and  C24_26 
REMARK   13  A    between atoms: C38_40  and  C32_34 
ROOT
ATOM      1  C17 MOL d          15.415  23.993  18.042  0.00  0.00     0.155 C 
ENDROOT
BRANCH   1   2
ATOM      2  C16 MOL d          16.561  24.869  17.534  0.00  0.00     0.141 C 
BRANCH   2   3
ATOM      3  N11 MOL d          17.800  24.095  17.537  0.00  0.00    -0.204 NA
BRANCH   3   4
ATOM      4  S8  MOL d          18.441  23.876  16.041  0.00  0.00     0.243 S 
ATOM      5  O9  MOL d          17.327  23.619  15.093  0.00  0.00    -0.206 OA
ATOM      6  O10 MOL d          19.426  22.751  16.167  0.00  0.00    -0.206 OA
BRANCH   4   7
ATOM      7  C5  MOL d          19.332  25.318  15.598  0.00  0.00     0.077 A 
ATOM      8  C4  MOL d          20.694  25.393  15.897  0.00  0.00     0.064 A 
ATOM      9  C3  MOL d          21.438  26.520  15.588  0.00  0.00     0.106 A 
ATOM     10  C2  MOL d          20.815  27.584  14.949  0.00  0.00     0.105 A 
ATOM     11  O41 MOL d          22.760  26.834  15.770  0.00  0.00    -0.323 OA
ATOM     12  O39 MOL d          21.742  28.579  14.780  0.00  0.00    -0.323 OA
ATOM     13  C7  MOL d          19.459  27.516  14.639  0.00  0.00     0.041 A 
ATOM     14  C40 MOL d          22.923  28.122  15.326  0.00  0.00     0.352 A 
ATOM     15  C6  MOL d          18.727  26.384  14.970  0.00  0.00     0.028 A 
ENDBRANCH   4   7
ENDBRANCH   3   4
BRANCH   3  16
ATOM     16  C12 MOL d          18.745  24.482  18.568  0.00  0.00     0.111 C 
BRANCH  16  17
ATOM     17  C13 MOL d          18.420  23.863  19.931  0.00  0.00    -0.009 C 
ATOM     18  C14 MOL d          18.337  22.348  19.861  0.00  0.00     0.011 C 
ATOM     19  C15 MOL d          19.483  24.259  20.966  0.00  0.00     0.011 C 
ENDBRANCH  16  17
ENDBRANCH   3  16
ENDBRANCH   2   3
ENDBRANCH   1   2
BRANCH   1  20
ATOM     20  O18 MOL d          14.242  24.749  18.323  0.00  0.00    -0.392 OA
ATOM     21  H18 MOL d          13.559  24.167  18.634  0.00  0.00     0.210 HD
ENDBRANCH   1  20
BRANCH   1  22
ATOM     22  C19 MOL d          15.105  22.831  17.099  0.00  0.00     0.120 C 
BRANCH  22  23
ATOM     23  N20 MOL d          14.216  21.920  17.820  0.00  0.00    -0.329 N 
ATOM     24  C21 MOL d          14.461  20.674  18.187  0.00  0.00     0.361 C 
ATOM     25  O22 MOL d          15.512  20.092  17.921  0.00  0.00    -0.238 OA
ATOM     26  H20 MOL d          13.317  22.283  18.064  0.00  0.00     0.165 HD
BRANCH  24  27
ATOM     27  O23 MOL d          13.437  20.099  18.873  0.00  0.00    -0.296 OA
BRANCH  27  28
ATOM     28  C24 MOL d          13.583  18.699  19.076  0.00  0.00     0.166 C 
ATOM     29  C25 MOL d          13.000  18.380  20.456  0.00  0.00     0.204 C 
ATOM     30  O26 MOL d          11.579  18.501  20.259  0.00  0.00    -0.358 OA
ATOM     31  C27 MOL d          11.292  18.012  18.955  0.00  0.00     0.266 C 
ATOM     32  O28 MOL d          10.405  18.888  18.263  0.00  0.00    -0.361 OA
ATOM     33  C31 MOL d          12.599  17.937  18.186  0.00  0.00     0.075 C 
ATOM     34  C29 MOL d          11.164  19.619  17.319  0.00  0.00     0.171 C 
ATOM     35  C30 MOL d          12.251  18.625  16.870  0.00  0.00     0.038 C 
ENDBRANCH  27  28
ENDBRANCH  24  27
ENDBRANCH  22  23
BRANCH  22  36
ATOM     36  C32 MOL d          14.399  23.265  15.821  0.00  0.00     0.066 C 
BRANCH  36  37
ATOM     37  C38 MOL d          14.014  22.073  14.947  0.00  0.00    -0.056 A 
ATOM     38  C33 MOL d          12.691  21.703  14.775  0.00  0.00     0.007 A 
ATOM     39  C34 MOL d          12.337  20.589  14.015  0.00  0.00     0.001 A 
ATOM     40  C35 MOL d          13.309  19.842  13.361  0.00  0.00     0.000 A 
ATOM     41  C36 MOL d          14.638  20.232  13.514  0.00  0.00     0.001 A 
ATOM     42  C37 MOL d          14.988  21.323  14.293  0.00  0.00     0.007 A 
ENDBRANCH  36  37
ENDBRANCH  22  36
ENDBRANCH   1  22
TORSDOF 13
