REMARK  5 active torsions:
REMARK  status: ('A' for Active; 'I' for Inactive)
REMARK    1  A    between atoms: N3_9  and  C1_10 
REMARK    2  A    between atoms: C4_12  and  C5_13 
REMARK    3  A    between atoms: C5_13  and  O5_14 
REMARK    4  A    between atoms: C3_15  and  O3_16 
REMARK    5  A    between atoms: C2_17  and  O2_18 
ROOT
ATOM      1  C1  F01 d          32.625   3.251  42.057  0.00  0.00     0.264 C 
ATOM      2  O4  F01 d          33.206   2.004  42.509  0.00  0.00    -0.353 OA
ATOM      3  C4  F01 d          32.203   0.978  42.381  0.00  0.00     0.179 C 
ATOM      4  C3  F01 d          31.389   1.399  41.166  0.00  0.00     0.182 C 
ATOM      5  C2  F01 d          31.325   2.907  41.322  0.00  0.00     0.198 C 
ENDROOT
BRANCH   1   6
ATOM      6  N3  F01 d          33.719   3.833  41.236  0.00  0.00    -0.277 N 
ATOM      7  C6  F01 d          34.077   5.188  41.384  0.00  0.00     0.330 A 
ATOM      8  O1  F01 d          33.489   5.929  42.169  0.00  0.00    -0.246 OA
ATOM      9  N1  F01 d          35.116   5.719  40.631  0.00  0.00    -0.291 N 
ATOM     10  C7  F01 d          35.799   4.941  39.736  0.00  0.00     0.164 A 
ATOM     11  H1  F01 d          35.368   6.680  40.744  0.00  0.00     0.172 HD
ATOM     12  N2  F01 d          36.778   5.486  39.041  0.00  0.00    -0.281 NA
ATOM     13  C8  F01 d          35.466   3.614  39.575  0.00  0.00     0.177 A 
ATOM     14  H2  F01 d          37.294   4.931  38.376  0.00  0.00     0.188 HD
ATOM     15  F1  F01 d          36.147   2.877  38.683  0.00  0.00    -0.201 F 
ATOM     16  C9  F01 d          34.439   3.044  40.314  0.00  0.00     0.144 A 
ENDBRANCH   1   6
BRANCH   5  17
ATOM     17  O2  F01 d          30.222   3.250  42.154  0.00  0.00    -0.388 OA
ATOM     18  H12 F01 d          29.418   2.937  41.757  0.00  0.00     0.210 HD
ENDBRANCH   5  17
BRANCH   3  19
ATOM     19  C5  F01 d          32.899  -0.364  42.075  0.00  0.00     0.198 C 
BRANCH  19  20
ATOM     20  O5  F01 d          33.586  -0.316  40.799  0.00  0.00    -0.398 OA
ATOM     21  H8  F01 d          34.243   0.370  40.820  0.00  0.00     0.209 HD
ENDBRANCH  19  20
ENDBRANCH   3  19
BRANCH   4  22
ATOM     22  O3  F01 d          30.105   0.831  41.227  0.00  0.00    -0.390 OA
ATOM     23  H10 F01 d          29.666   1.127  42.016  0.00  0.00     0.210 HD
ENDBRANCH   4  22
TORSDOF 5
