REMARK  3 active torsions:
REMARK  status: ('A' for Active; 'I' for Inactive)
REMARK    1  A    between atoms: CAV_15  and  CAR_11 
REMARK       I    between atoms: CAR_11  and  NAP_18 
REMARK    2  A    between atoms: OAQ_23  and  CAU_14 
REMARK    3  A    between atoms: OAQ_23  and  PAY_25 
ROOT
ATOM      1  CAF N3P d          47.566  38.807  58.900  0.00  0.00     0.001 A 
ATOM      2  CAG N3P d          47.718  39.833  59.828  0.00  0.00     0.001 A 
ATOM      3  CAL N3P d          46.880  39.040  57.711  0.00  0.00     0.012 A 
ATOM      4  CAM N3P d          47.182  41.091  59.571  0.00  0.00     0.012 A 
ATOM      5  CAN N3P d          45.655  40.531  56.268  0.00  0.00     0.050 A 
ATOM      6  CAO N3P d          45.959  42.581  58.122  0.00  0.00     0.032 A 
ATOM      7  CAU N3P d          45.115  41.790  56.005  0.00  0.00     0.099 A 
ATOM      8  CAV N3P d          45.267  42.812  56.933  0.00  0.00     0.067 A 
ATOM      9  CAW N3P d          46.345  40.299  57.450  0.00  0.00    -0.023 A 
ATOM     10  CAX N3P d          46.497  41.327  58.383  0.00  0.00    -0.025 A 
ENDROOT
BRANCH   8  11
ATOM     11  CAR N3P d          44.696  44.238  56.746  0.00  0.00     0.259 C 
ATOM     12  NAP N3P d          44.215  44.540  55.533  0.00  0.00    -0.323 N 
ATOM     13  CAT N3P d          43.539  45.674  55.267  0.00  0.00     0.035 A 
ATOM     14  H11 N3P d          44.365  43.891  54.787  0.00  0.00     0.169 HD
ATOM     15  CAJ N3P d          42.923  46.498  56.240  0.00  0.00     0.031 A 
ATOM     16  CAK N3P d          43.456  45.999  53.889  0.00  0.00     0.031 A 
ATOM     17  CAH N3P d          42.215  47.645  55.835  0.00  0.00     0.026 A 
ATOM     18  CAS N3P d          42.137  47.953  54.466  0.00  0.00     0.034 A 
ATOM     19  CAI N3P d          42.748  47.146  53.485  0.00  0.00     0.026 A 
ATOM     20 CLA  N3P d          41.250  49.357  53.973  0.00  0.00    -0.084 Cl
ATOM     21  OAA N3P d          44.699  45.051  57.690  0.00  0.00    -0.267 OA
ENDBRANCH   8  11
BRANCH   7  22
ATOM     22  OAQ N3P d          44.503  42.069  54.821  0.00  0.00    -0.239 OA
BRANCH  22  23
ATOM     23  PAY N3P d          43.832  40.785  54.114  0.00  0.00     0.427 P 
ATOM     24  OAB N3P d          43.015  39.985  55.053  0.00  0.00    -0.617 OA
ATOM     25  OAC N3P d          42.955  41.351  52.888  0.00  0.00    -0.617 OA
ATOM     26  OAD N3P d          45.040  39.943  53.462  0.00  0.00    -0.617 OA
ENDBRANCH  22  23
ENDBRANCH   7  22
TORSDOF 3
