REMARK  2 active torsions:
REMARK  status: ('A' for Active; 'I' for Inactive)
REMARK    1  A    between atoms: N7_6  and  C12_12 
REMARK    2  A    between atoms: C12_12  and  C13_13 
ROOT
ATOM      1  O11 MOL d          -1.003 -27.794  50.703  0.00  0.00    -0.263 OA
ATOM      2  C8  MOL d           0.172 -27.826  50.198  0.00  0.00     0.299 A 
ATOM      3  C9  MOL d           0.496 -28.642  49.047  0.00  0.00     0.252 A 
ATOM      4  O10 MOL d          -0.352 -29.377  48.432  0.00  0.00    -0.281 OA
ATOM      5  C1  MOL d           1.924 -28.402  48.790  0.00  0.00     0.047 A 
ATOM      6  N7  MOL d           1.222 -27.133  50.640  0.00  0.00    -0.306 N 
ATOM      7  C6  MOL d           2.304 -27.425  49.862  0.00  0.00     0.052 A 
ATOM      8  C5  MOL d           3.620 -26.990  49.882  0.00  0.00     0.031 A 
ATOM      9  C4  MOL d           4.529 -27.474  48.940  0.00  0.00     0.002 A 
ATOM     10  C3  MOL d           4.147 -28.395  47.941  0.00  0.00     0.001 A 
ATOM     11  C2  MOL d           2.838 -28.865  47.856  0.00  0.00     0.018 A 
ENDROOT
BRANCH   6  12
ATOM     12  C12 MOL d           1.203 -26.236  51.776  0.00  0.00     0.171 C 
BRANCH  12  13
ATOM     13  C13 MOL d          -0.170 -25.619  51.950  0.00  0.00    -0.040 A 
ATOM     14  C18 MOL d          -0.815 -25.743  53.178  0.00  0.00     0.009 A 
ATOM     15  C17 MOL d          -2.077 -25.196  53.359  0.00  0.00     0.001 A 
ATOM     16  C16 MOL d          -2.708 -24.526  52.316  0.00  0.00     0.000 A 
ATOM     17  C15 MOL d          -2.077 -24.403  51.084  0.00  0.00     0.001 A 
ATOM     18  C14 MOL d          -0.805 -24.944  50.895  0.00  0.00     0.009 A 
ENDBRANCH  12  13
ENDBRANCH   6  12
TORSDOF 2
