3sym_ligand

Created by X-TOOL on Fri Sep 26 17:34:54 2014
 37 38  0  0  0  0  0  0  0  0999 V2000
   35.4460   23.6790   28.5790  C 0  0  0  2  0  3
   37.5560   24.4340   29.2400  F 0  0  0  1  0  1
   34.0590   23.5780   28.8140  N 0  0  0  1  0  3
   36.2410   24.3630   29.4830  C 0  0  0  1  0  3
   35.6780   24.9610   30.6270  C 0  0  0  1  0  3
   36.3660   25.5960   31.4320  O 0  0  0  1  0  1
   34.3020   24.8610   30.8630  N 0  0  0  2  0  3
   33.4920   24.1670   29.9630  C 0  0  0  1  0  3
   32.2870   24.0740   30.1940  O 0  0  0  1  0  1
   33.1880   22.8650   27.8630  C 0  0  0  2  0  4
   33.5520   23.1870   26.3850  C 0  0  0  2  0  4
   33.7100   24.5930   26.1930  O 0  0  0  2  0  2
   32.4960   22.5890   25.4140  C 0  0  0  1  0  4
   32.9720   22.5240   24.0760  O 0  0  0  2  0  2
   32.2110   21.1210   25.8210  C 0  0  0  2  0  4
   31.0840   20.6420   25.0890  O 0  0  0  2  0  2
   32.0420   20.8900   27.3480  C 0  0  0  2  0  4
   33.1610   21.4250   28.0870  O 0  0  0  1  0  2
   32.0070   19.4220   27.7640  C 0  0  0  3  0  4
   33.1240   18.7230   27.2370  O 0  0  0  2  0  2
   31.2510   23.5010   25.4080  C 0  0  0  3  0  4
   30.5590   23.7770   26.6240  O 0  0  0  2  0  2
   35.8878   23.2230   27.6943  H 0  0  0  1  0  1
   33.9004   25.2857   31.6744  H 0  0  0  1  0  1
   32.1659   23.2346   28.0325  H 0  0  0  1  0  1
   34.5179   22.7093   26.1639  H 0  0  0  1  0  1
   33.9314   24.7646   25.2853  H 0  0  0  1  0  1
   32.2975   22.1539   23.5187  H 0  0  0  1  0  1
   33.0840   20.5278   25.5112  H 0  0  0  1  0  1
   31.2706   20.6851   24.1585  H 0  0  0  1  0  1
   31.1105   21.3823   27.6642  H 0  0  0  1  0  1
   31.0822   18.9618   27.3859  H 0  0  0  1  0  1
   32.0263   19.3575   28.8619  H 0  0  0  1  0  1
   33.9249   19.1158   27.5638  H 0  0  0  1  0  1
   30.5221   23.0375   24.7270  H 0  0  0  1  0  1
   31.5705   24.4706   24.9984  H 0  0  0  1  0  1
   29.8225   24.3497   26.4450  H 0  0  0  1  0  1
  1  3  1  0  0  1
  1  4  2  0  0  1
  4  2  1  0  0  2
  3  8  1  0  0  1
  3 10  1  0  0  2
  4  5  1  0  0  1
  5  6  2  0  0  2
  5  7  1  0  0  1
  7  8  1  0  0  1
  8  9  2  0  0  2
 10 11  1  0  0  1
 10 18  1  0  0  1
 11 12  1  0  0  2
 11 13  1  0  0  1
 13 14  1  0  0  2
 13 15  1  0  0  1
 13 21  1  0  0  2
 15 16  1  0  0  2
 15 17  1  0  0  1
 17 18  1  0  0  1
 17 19  1  0  0  2
 19 20  1  0  0  2
 21 22  1  0  0  2
  1 23  1  0  0  2
  7 24  1  0  0  2
 10 25  1  0  0  2
 11 26  1  0  0  2
 12 27  1  0  0  2
 14 28  1  0  0  2
 15 29  1  0  0  2
 16 30  1  0  0  2
 17 31  1  0  0  2
 19 32  1  0  0  2
 19 33  1  0  0  2
 20 34  1  0  0  2
 21 35  1  0  0  2
 21 36  1  0  0  2
 22 37  1  0  0  2
M  END
> <MOLECULAR_FORMULA>
C11H15N2O8F

> <MOLECULAR_WEIGHT>
322.1

> <NUM_HB_ATOMS>
9  

> <NUM_ROTOR>
3  

> <XLOGP2>
-3.18

$$$$
