REMARK  5 active torsions:
REMARK  status: ('A' for Active; 'I' for Inactive)
REMARK    1  A    between atoms: N1_1  and  C1_9 
REMARK    2  A    between atoms: C3_11  and  O3_13 
REMARK    3  A    between atoms: C4_12  and  C5_15 
REMARK    4  A    between atoms: C5_15  and  O5_16 
REMARK    5  A    between atoms: O5_16  and  P_17 
ROOT
ATOM      1  C1  UMP d          15.286  48.857 -54.872  0.00  0.00     0.235 C 
ATOM      2  C2  UMP d          14.909  48.341 -56.253  0.00  0.00     0.088 C 
ATOM      3  C3  UMP d          16.243  48.461 -56.973  0.00  0.00     0.153 C 
ATOM      4  C4  UMP d          16.801  49.843 -56.617  0.00  0.00     0.177 C 
ATOM      5  O4  UMP d          16.278  49.955 -55.196  0.00  0.00    -0.356 OA
ENDROOT
BRANCH   1   6
ATOM      6  N1  UMP d          14.337  48.922 -53.751  0.00  0.00    -0.282 N 
ATOM      7  C2  UMP d          13.721  47.748 -53.295  0.00  0.00     0.331 A 
ATOM      8  N3  UMP d          13.187  47.790 -52.045  0.00  0.00    -0.275 N 
ATOM      9  O2  UMP d          13.556  46.716 -53.922  0.00  0.00    -0.246 OA
ATOM     10  C4  UMP d          13.195  48.884 -51.207  0.00  0.00     0.250 A 
ATOM     11  H1  UMP d          12.752  46.956 -51.705  0.00  0.00     0.173 HD
ATOM     12  C5  UMP d          13.827  50.085 -51.773  0.00  0.00     0.092 A 
ATOM     13  O4  UMP d          12.737  48.760 -50.071  0.00  0.00    -0.268 OA
ATOM     14  C6  UMP d          14.380  50.049 -53.058  0.00  0.00     0.104 A 
ENDBRANCH   1   6
BRANCH   3  15
ATOM     15  O3  UMP d          17.072  47.419 -56.413  0.00  0.00    -0.393 OA
ATOM     16  H9  UMP d          17.095  47.508 -55.468  0.00  0.00     0.210 HD
ENDBRANCH   3  15
BRANCH   4  17
ATOM     17  C5  UMP d          16.142  50.935 -57.467  0.00  0.00     0.217 C 
BRANCH  17  18
ATOM     18  O5  UMP d          16.515  50.864 -58.888  0.00  0.00    -0.280 OA
BRANCH  18  19
ATOM     19  P   UMP d          15.787  51.827 -59.923  0.00  0.00     0.422 P 
ATOM     20  O1P UMP d          14.710  51.006 -60.467  0.00  0.00    -0.617 OA
ATOM     21  O2P UMP d          15.184  53.058 -59.417  0.00  0.00    -0.617 OA
ATOM     22  O3P UMP d          16.739  52.175 -60.998  0.00  0.00    -0.617 OA
ENDBRANCH  18  19
ENDBRANCH  17  18
ENDBRANCH   4  17
TORSDOF 5
