REMARK  16 active torsions:
REMARK  status: ('A' for Active; 'I' for Inactive)
REMARK    1  A    between atoms: S_1  and  C4_8 
REMARK    2  A    between atoms: S_1  and  N1_4 
REMARK    3  A    between atoms: C1_5  and  C7_11 
REMARK       I    between atoms: C7_11  and  N2_13 
REMARK    4  A    between atoms: N2_13  and  C8_14 
REMARK    5  A    between atoms: C8_14  and  C9_15 
REMARK    6  A    between atoms: C9_15  and  O4_16 
REMARK    7  A    between atoms: O4_16  and  C10_17 
REMARK    8  A    between atoms: C10_17  and  C11_18 
REMARK    9  A    between atoms: C11_18  and  O5_19 
REMARK   10  A    between atoms: O5_19  and  C12_20 
REMARK   11  A    between atoms: C12_20  and  C13_21 
REMARK   12  A    between atoms: C13_21  and  N3_22 
REMARK       I    between atoms: N3_22  and  C14_23 
REMARK   13  A    between atoms: C14_23  and  C15_25 
REMARK   14  A    between atoms: C15_25  and  C16_27 
REMARK   15  A    between atoms: C15_25  and  N4_26 
REMARK   16  A    between atoms: C16_27  and  C17_28 
ROOT
ATOM      1  C10 EG3 d          -1.260   9.091  15.329  0.00  0.00     0.193 C 
ENDROOT
BRANCH   1   2
ATOM      2  O4  EG3 d          -1.100   8.173  14.058  0.00  0.00    -0.387 OA
BRANCH   2   3
ATOM      3  C9  EG3 d          -1.952   8.215  13.069  0.00  0.00     0.187 C 
BRANCH   3   4
ATOM      4  C8  EG3 d          -2.360   6.880  12.504  0.00  0.00     0.149 C 
BRANCH   4   5
ATOM      5  N2  EG3 d          -2.636   5.838  13.563  0.00  0.00    -0.355 N 
ATOM      6  C7  EG3 d          -4.070   5.671  13.987  0.00  0.00     0.251 C 
ATOM      7  O3  EG3 d          -4.668   6.672  13.493  0.00  0.00    -0.268 OA
ATOM      8  H7  EG3 d          -1.903   5.287  13.962  0.00  0.00     0.162 HD
BRANCH   6   9
ATOM      9  C1  EG3 d          -4.553   4.629  14.694  0.00  0.00     0.032 A 
ATOM     10  C2  EG3 d          -3.706   3.586  15.047  0.00  0.00     0.018 A 
ATOM     11  C3  EG3 d          -4.146   2.502  15.753  0.00  0.00     0.026 A 
ATOM     12  C4  EG3 d          -5.476   2.460  16.107  0.00  0.00     0.079 A 
ATOM     13  C5  EG3 d          -6.324   3.461  15.753  0.00  0.00     0.026 A 
ATOM     14  C6  EG3 d          -5.884   4.587  15.047  0.00  0.00     0.018 A 
BRANCH  12  15
ATOM     15  S   EG3 d          -6.057   1.126  17.025  0.00  0.00     0.256 S 
ATOM     16  O2  EG3 d          -7.472   1.042  16.884  0.00  0.00    -0.201 OA
ATOM     17  O1  EG3 d          -5.657   1.084  18.438  0.00  0.00    -0.201 OA
BRANCH  15  18
ATOM     18  N1  EG3 d          -5.355  -0.042  16.460  0.00  0.00    -0.324 N 
ATOM     19  H1  EG3 d          -5.525  -0.955  16.831  0.00  0.00     0.169 HD
ATOM     20  H2  EG3 d          -4.709   0.079  15.706  0.00  0.00     0.169 HD
ENDBRANCH  15  18
ENDBRANCH  12  15
ENDBRANCH   6   9
ENDBRANCH   4   5
ENDBRANCH   3   4
ENDBRANCH   2   3
ENDBRANCH   1   2
BRANCH   1  21
ATOM     21  C11 EG3 d          -1.131  10.550  14.835  0.00  0.00     0.193 C 
BRANCH  21  22
ATOM     22  O5  EG3 d          -0.336  11.335  15.784  0.00  0.00    -0.387 OA
BRANCH  22  23
ATOM     23  C12 EG3 d           0.743  12.099  15.045  0.00  0.00     0.187 C 
BRANCH  23  24
ATOM     24  C13 EG3 d           1.477  12.951  15.949  0.00  0.00     0.148 C 
BRANCH  24  25
ATOM     25  N3  EG3 d           2.313  13.821  15.139  0.00  0.00    -0.357 N 
ATOM     26  C14 EG3 d           3.113  14.745  16.047  0.00  0.00     0.248 C 
ATOM     27  O6  EG3 d           3.003  14.674  17.276  0.00  0.00    -0.271 OA
ATOM     28  H20 EG3 d           2.356  13.814  14.140  0.00  0.00     0.162 HD
BRANCH  26  29
ATOM     29  C15 EG3 d           4.137  15.680  15.447  0.00  0.00     0.278 C 
BRANCH  29  30
ATOM     30  C16 EG3 d           5.348  15.935  16.349  0.00  0.00     0.081 C 
BRANCH  30  31
ATOM     31  C17 EG3 d           6.294  16.998  15.753  0.00  0.00    -0.056 A 
ATOM     32  C22 EG3 d           6.289  18.264  16.187  0.00  0.00     0.007 A 
ATOM     33  C21 EG3 d           7.129  19.225  15.595  0.00  0.00     0.001 A 
ATOM     34  C20 EG3 d           8.034  18.806  14.599  0.00  0.00     0.000 A 
ATOM     35  C19 EG3 d           8.072  17.526  14.187  0.00  0.00     0.001 A 
ATOM     36  C18 EG3 d           7.200  16.580  14.759  0.00  0.00     0.007 A 
ENDBRANCH  30  31
ENDBRANCH  29  30
BRANCH  29  37
ATOM     37  N4  EG3 d           3.468  16.981  15.079  0.00  0.00    -0.066 N 
ATOM     38  H22 EG3 d           4.149  17.607  14.678  0.00  0.00     0.275 HD
ATOM     39  H23 EG3 d           3.071  17.400  15.905  0.00  0.00     0.275 HD
ATOM     40  H24 EG3 d           2.737  16.805  14.408  0.00  0.00     0.275 HD
ENDBRANCH  29  37
ENDBRANCH  26  29
ENDBRANCH  24  25
ENDBRANCH  23  24
ENDBRANCH  22  23
ENDBRANCH  21  22
ENDBRANCH   1  21
TORSDOF 16
