REMARK  3 active torsions:
REMARK  status: ('A' for Active; 'I' for Inactive)
REMARK    1  A    between atoms: CAO_15  and  NAL_12 
REMARK    2  A    between atoms: NAL_12  and  CAQ_17 
REMARK    3  A    between atoms: CAM_13  and  CAP_16 
ROOT
ATOM      1 BRAC AKD d          43.945   5.997  93.940  0.00  0.00    -0.051 Br
ATOM      2  CAD AKD d          43.824   3.220  93.341  0.00  0.00     0.021 A 
ATOM      3  CAE AKD d          43.163   2.013  93.211  0.00  0.00     0.031 A 
ATOM      4  CAF AKD d          41.727   4.242  93.967  0.00  0.00     0.040 A 
ATOM      5  CAN AKD d          43.097   4.316  93.714  0.00  0.00     0.012 A 
ATOM      6  CAO AKD d          41.793   1.946  93.407  0.00  0.00     0.045 A 
ATOM      7  CAP AKD d          41.055   3.049  93.797  0.00  0.00     0.068 A 
ENDROOT
BRANCH   6   8
ATOM      8  NAL AKD d          41.223   0.738  93.292  0.00  0.00    -0.383 N 
ATOM      9  H14 AKD d          40.331   0.574  93.780  0.00  0.00     0.160 HD
BRANCH   8  10
ATOM     10  CAQ AKD d          41.794  -0.362  92.513  0.00  0.00     0.107 C 
ATOM     11  CAI AKD d          40.855  -1.551  92.662  0.00  0.00     0.028 C 
ATOM     12  CAG AKD d          39.483  -1.352  92.167  0.00  0.00     0.029 C 
ATOM     13  CAH AKD d          39.477  -0.855  90.709  0.00  0.00     0.232 C 
ATOM     14  NAK AKD d          40.397   0.265  90.578  0.00  0.00    -0.073 N 
ATOM     15  CAJ AKD d          41.785   0.114  91.045  0.00  0.00     0.257 C 
ATOM     16  H12 AKD d          39.997   1.036  91.089  0.00  0.00     0.277 HD
ATOM     17  H13 AKD d          40.440   0.498  89.598  0.00  0.00     0.277 HD
ENDBRANCH   8  10
ENDBRANCH   6   8
BRANCH   7  18
ATOM     18  CAM AKD d          39.523   2.987  94.035  0.00  0.00     0.211 C 
ATOM     19  OAA AKD d          38.986   3.753  94.832  0.00  0.00    -0.644 OA
ATOM     20  OAB AKD d          38.949   2.183  93.337  0.00  0.00    -0.644 OA
ENDBRANCH   7  18
TORSDOF 3
