REMARK  7 active torsions:
REMARK  status: ('A' for Active; 'I' for Inactive)
REMARK    1  A    between atoms: N2_23  and  C2_1 
REMARK    2  A    between atoms: C10_3  and  C11_4 
REMARK    3  A    between atoms: O6_17  and  C10_3 
REMARK    4  A    between atoms: C20_11  and  S23_26 
REMARK    5  A    between atoms: S23_26  and  N26_14 
REMARK    6  A    between atoms: C6_16  and  O6_17 
REMARK    7  A    between atoms: N2_23  and  C17_24 
ROOT
ATOM      1  C2  4SP d          -7.907 -23.450  24.237  0.00  0.00     0.731 A 
ATOM      2  C8  4SP d         -10.765 -20.912  22.330  0.00  0.00     0.209 A 
ATOM      3  N1  4SP d          -7.072 -22.787  23.456  0.00  0.00    -0.035 NA
ATOM      4  C6  4SP d          -7.465 -21.848  22.635  0.00  0.00     0.216 A 
ATOM      5  C5  4SP d          -8.773 -21.544  22.582  0.00  0.00     0.158 A 
ATOM      6  N7  4SP d          -9.531 -20.710  21.943  0.00  0.00    -0.236 NA
ATOM      7  N9  4SP d         -10.845 -21.870  23.233  0.00  0.00    -0.333 N 
ATOM      8  C4  4SP d          -9.635 -22.288  23.438  0.00  0.00     0.181 A 
ATOM      9  N3  4SP d          -9.189 -23.220  24.243  0.00  0.00    -0.042 NA
ATOM     10  H20 4SP d         -11.702 -22.218  23.687  0.00  0.00     0.168 HD
ENDROOT
BRANCH   1  11
ATOM     11  N2  4SP d          -7.481 -24.393  25.054  0.00  0.00    -0.188 N 
ATOM     12  H21 4SP d          -8.134 -24.632  25.814  0.00  0.00     0.184 HD
BRANCH  11  13
ATOM     13  C17 4SP d          -6.352 -25.083  25.058  0.00  0.00     0.049 A 
ATOM     14  C22 4SP d          -6.014 -25.738  26.210  0.00  0.00     0.031 A 
ATOM     15  C21 4SP d          -4.860 -26.478  26.304  0.00  0.00     0.027 A 
ATOM     16  C20 4SP d          -4.031 -26.601  25.229  0.00  0.00     0.079 A 
ATOM     17  C19 4SP d          -4.390 -25.949  24.067  0.00  0.00     0.027 A 
ATOM     18  C18 4SP d          -5.534 -25.199  23.980  0.00  0.00     0.031 A 
BRANCH  16  19
ATOM     19  S23 4SP d          -2.708 -27.441  25.286  0.00  0.00     0.256 S 
ATOM     20  O24 4SP d          -2.810 -28.669  24.682  0.00  0.00    -0.201 OA
ATOM     21  O25 4SP d          -2.170 -27.566  26.545  0.00  0.00    -0.201 OA
BRANCH  19  22
ATOM     22  N26 4SP d          -1.725 -26.756  24.515  0.00  0.00    -0.324 N 
ATOM     23  H18 4SP d          -0.804 -27.136  24.427  0.00  0.00     0.169 HD
ATOM     24  H19 4SP d          -1.956 -25.895  24.061  0.00  0.00     0.169 HD
ENDBRANCH  19  22
ENDBRANCH  16  19
ENDBRANCH  11  13
ENDBRANCH   1  11
BRANCH   4  25
ATOM     25  O6  4SP d          -6.586 -21.202  21.884  0.00  0.00    -0.332 OA
BRANCH  25  26
ATOM     26  C10 4SP d          -5.260 -21.308  22.246  0.00  0.00     0.182 C 
BRANCH  26  27
ATOM     27  C11 4SP d          -4.364 -21.101  21.071  0.00  0.00     0.010 C 
ATOM     28  C12 4SP d          -4.838 -21.872  19.883  0.00  0.00     0.007 C 
ATOM     29  C13 4SP d          -4.057 -21.339  18.730  0.00  0.00     0.000 C 
ATOM     30  C14 4SP d          -2.571 -21.566  18.906  0.00  0.00     0.000 C 
ATOM     31  C15 4SP d          -2.063 -21.135  20.272  0.00  0.00     0.000 C 
ATOM     32  C16 4SP d          -2.980 -21.587  21.379  0.00  0.00     0.007 C 
ENDBRANCH  26  27
ENDBRANCH  25  26
ENDBRANCH   4  25
TORSDOF 7
