REMARK  7 active torsions:
REMARK  status: ('A' for Active; 'I' for Inactive)
REMARK    1  A    between atoms: C6_6  and  C7_7 
REMARK    2  A    between atoms: C7_7  and  C8_8 
REMARK    3  A    between atoms: C8_8  and  N2_9 
REMARK    4  A    between atoms: N2_9  and  C9_10 
REMARK    5  A    between atoms: C9_10  and  C10_11 
REMARK    6  A    between atoms: C17_19  and  N4_20 
REMARK    7  A    between atoms: C18_23  and  N6_24 
ROOT
ATOM      1  N1  AAQ d          19.194  17.783  18.084  0.00  0.00    -0.063 NA
ATOM      2  C3  AAQ d          18.463  17.424  19.190  0.00  0.00     0.104 A 
ATOM      3  C2  AAQ d          18.739  17.446  20.556  0.00  0.00     0.054 A 
ATOM      4  C4  AAQ d          17.690  17.093  21.402  0.00  0.00     0.063 A 
ATOM      5  C5  AAQ d          16.455  16.617  20.913  0.00  0.00     0.073 A 
ATOM      6  C6  AAQ d          16.241  16.521  19.519  0.00  0.00     0.001 A 
ATOM      7  C16 AAQ d          17.266  16.966  18.665  0.00  0.00     0.087 A 
ATOM      8  N3  AAQ d          17.259  17.056  17.295  0.00  0.00    -0.187 N 
ATOM      9  C17 AAQ d          18.381  17.653  16.979  0.00  0.00     0.701 C 
ATOM     10  N5  AAQ d          15.421  16.318  21.832  0.00  0.00    -0.190 N 
ATOM     11  C18 AAQ d          15.564  16.504  23.118  0.00  0.00     0.679 A 
ATOM     12  N7  AAQ d          16.765  16.943  23.646  0.00  0.00    -0.156 N 
ATOM     13  C19 AAQ d          17.876  17.206  22.855  0.00  0.00     0.272 A 
ATOM     14  O1  AAQ d          18.978  17.515  23.313  0.00  0.00    -0.267 OA
ATOM     15  H15 AAQ d          16.526  16.724  16.652  0.00  0.00     0.184 HD
ATOM     16  H20 AAQ d          14.530  15.943  21.477  0.00  0.00     0.184 HD
ATOM     17  H23 AAQ d          16.836  17.076  24.635  0.00  0.00     0.187 HD
ENDROOT
BRANCH   6  18
ATOM     18  C7  AAQ d          14.917  16.143  18.899  0.00  0.00     0.070 C 
BRANCH  18  19
ATOM     19  C8  AAQ d          15.048  14.727  18.361  0.00  0.00     0.237 C 
BRANCH  19  20
ATOM     20  N2  AAQ d          14.173  14.501  17.195  0.00  0.00    -0.071 N 
ATOM     21  H6  AAQ d          14.486  13.672  16.714  0.00  0.00     0.277 HD
ATOM     22  H7  AAQ d          14.246  15.295  16.579  0.00  0.00     0.277 HD
BRANCH  20  23
ATOM     23  C9  AAQ d          12.739  14.321  17.573  0.00  0.00     0.270 C 
BRANCH  23  24
ATOM     24  C10 AAQ d          11.952  15.477  17.037  0.00  0.00    -0.033 A 
ATOM     25  C11 AAQ d          11.708  16.589  17.834  0.00  0.00     0.009 A 
ATOM     26  C12 AAQ d          10.980  17.680  17.363  0.00  0.00     0.001 A 
ATOM     27  C13 AAQ d          10.496  17.627  16.062  0.00  0.00     0.000 A 
ATOM     28  C14 AAQ d          10.735  16.518  15.253  0.00  0.00     0.001 A 
ATOM     29  C15 AAQ d          11.464  15.432  15.731  0.00  0.00     0.009 A 
ENDBRANCH  23  24
ENDBRANCH  20  23
ENDBRANCH  19  20
ENDBRANCH  18  19
ENDBRANCH   6  18
BRANCH  11  30
ATOM     30  N6  AAQ d          14.612  16.081  24.030  0.00  0.00    -0.234 N 
ATOM     31  H21 AAQ d          14.756  16.243  25.037  0.00  0.00     0.174 HD
ATOM     32  H22 AAQ d          13.760  15.604  23.701  0.00  0.00     0.174 HD
ENDBRANCH  11  30
BRANCH   9  33
ATOM     33  N4  AAQ d          18.910  17.863  15.762  0.00  0.00    -0.229 N 
ATOM     34  C1  AAQ d          18.074  17.724  14.599  0.00  0.00     0.165 C 
ATOM     35  H16 AAQ d          19.902  18.120  15.663  0.00  0.00     0.177 HD
ENDBRANCH   9  33
TORSDOF 7
