REMARK  25 active torsions:
REMARK  status: ('A' for Active; 'I' for Inactive)
REMARK    1  A    between atoms: OAF_1  and  CAG_2 
REMARK    2  A    between atoms: N_16  and  OAF_1 
REMARK    3  A    between atoms: CAG_2  and  CAH_3 
REMARK    4  A    between atoms: CAH_3  and  O1_4 
REMARK    5  A    between atoms: O1_4  and  C1_5 
REMARK    6  A    between atoms: C5_7  and  C6_8 
REMARK    7  A    between atoms: C6_8  and  O6_9 
REMARK    8  A    between atoms: C4_10  and  O4_11 
REMARK    9  A    between atoms: C3_12  and  O3_13 
REMARK   10  A    between atoms: C2_14  and  O2_15 
REMARK   11  A    between atoms: CA_17  and  N_16 
REMARK   12  A    between atoms: C_18  and  CA_17 
REMARK       I    between atoms: N_20  and  C_18 
REMARK   13  A    between atoms: CA_21  and  N_20 
REMARK   14  A    between atoms: C_22  and  CA_21 
REMARK   15  A    between atoms: CA_21  and  CB_24 
REMARK       I    between atoms: N_34  and  C_22 
REMARK   16  A    between atoms: CB_24  and  CG_25 
REMARK   17  A    between atoms: CA_35  and  N_34 
REMARK   18  A    between atoms: C_36  and  CA_35 
REMARK   19  A    between atoms: CA_35  and  CB_38 
REMARK       I    between atoms: N_47  and  C_36 
REMARK   20  A    between atoms: CB_38  and  CG_39 
REMARK   21  A    between atoms: CZ_44  and  OH_45 
REMARK   22  A    between atoms: CA_49  and  C_46 
REMARK       I    between atoms: C_46  and  N1_54 
REMARK   23  A    between atoms: N_47  and  CA_49 
REMARK   24  A    between atoms: CA_49  and  CB_50 
REMARK   25  A    between atoms: CB_50  and  CG_51 
ROOT
ATOM      1  CA  MOL d         -90.509 -79.675  50.231  0.00  0.00     0.180 C 
ENDROOT
BRANCH   1   2
ATOM      2  N   MOL d         -90.143 -79.429  51.609  0.00  0.00    -0.346 N 
ATOM      3  C   MOL d         -90.432 -80.378  52.667  0.00  0.00     0.246 C 
ATOM      4  O   MOL d         -90.985 -81.457  52.413  0.00  0.00    -0.272 OA
ATOM      5  H20 MOL d         -89.675 -78.576  51.840  0.00  0.00     0.163 HD
BRANCH   3   6
ATOM      6  CA  MOL d         -90.035 -80.036  54.081  0.00  0.00     0.370 C 
BRANCH   6   7
ATOM      7  N   MOL d         -90.303 -78.637  54.297  0.00  0.00     0.047 N 
ATOM      8  H16 MOL d         -89.734 -78.089  53.670  0.00  0.00     0.315 HD
ATOM      9  H17 MOL d         -91.277 -78.454  54.114  0.00  0.00     0.315 HD
BRANCH   7  10
ATOM     10  OAF MOL d         -90.007 -78.282  55.616  0.00  0.00    -0.203 OA
BRANCH  10  11
ATOM     11  CAG MOL d         -89.915 -76.857  55.744  0.00  0.00     0.233 C 
BRANCH  11  12
ATOM     12  CAH MOL d         -88.417 -76.525  55.898  0.00  0.00     0.199 C 
BRANCH  12  13
ATOM     13  O1  MOL d         -88.216 -75.106  56.041  0.00  0.00    -0.356 OA
BRANCH  13  14
ATOM     14  C1  MOL d         -86.899 -74.794  56.424  0.00  0.00     0.291 C 
ATOM     15  O5  MOL d         -85.963 -75.290  55.388  0.00  0.00    -0.348 OA
ATOM     16  C5  MOL d         -86.211 -74.624  54.099  0.00  0.00     0.179 C 
ATOM     17  C4  MOL d         -86.057 -73.135  54.233  0.00  0.00     0.180 C 
ATOM     18  C3  MOL d         -86.991 -72.646  55.282  0.00  0.00     0.183 C 
ATOM     19  C2  MOL d         -86.765 -73.309  56.572  0.00  0.00     0.204 C 
BRANCH  16  20
ATOM     20  C6  MOL d         -85.244 -75.202  53.086  0.00  0.00     0.198 C 
BRANCH  20  21
ATOM     21  O6  MOL d         -83.940 -75.083  53.622  0.00  0.00    -0.398 OA
ATOM     22  H9  MOL d         -83.746 -74.166  53.780  0.00  0.00     0.209 HD
ENDBRANCH  20  21
ENDBRANCH  16  20
BRANCH  17  23
ATOM     23  O4  MOL d         -86.385 -72.473  52.988  0.00  0.00    -0.390 OA
ATOM     24  H11 MOL d         -85.803 -72.782  52.303  0.00  0.00     0.210 HD
ENDBRANCH  17  23
BRANCH  18  25
ATOM     25  O3  MOL d         -86.821 -71.201  55.494  0.00  0.00    -0.390 OA
ATOM     26  H13 MOL d         -87.425 -70.907  56.166  0.00  0.00     0.210 HD
ENDBRANCH  18  25
BRANCH  19  27
ATOM     27  O2  MOL d         -85.418 -73.049  57.058  0.00  0.00    -0.388 OA
ATOM     28  H15 MOL d         -85.298 -72.113  57.169  0.00  0.00     0.210 HD
ENDBRANCH  19  27
ENDBRANCH  13  14
ENDBRANCH  12  13
ENDBRANCH  11  12
ENDBRANCH  10  11
ENDBRANCH   7  10
ENDBRANCH   6   7
ENDBRANCH   3   6
ENDBRANCH   1   2
BRANCH   1  29
ATOM     29  C   MOL d         -90.113 -81.056  49.692  0.00  0.00     0.241 C 
ATOM     30  O   MOL d         -90.936 -81.771  49.124  0.00  0.00    -0.271 OA
ATOM     31  N   MOL d         -88.777 -81.521  49.837  0.00  0.00    -0.346 N 
ATOM     32  H30 MOL d         -88.095 -80.971  50.320  0.00  0.00     0.163 HD
BRANCH  31  33
ATOM     33  CA  MOL d         -88.429 -82.786  49.281  0.00  0.00     0.180 C 
BRANCH  33  34
ATOM     34  C   MOL d         -88.921 -83.960  50.092  0.00  0.00     0.241 C 
ATOM     35  O   MOL d         -88.957 -85.058  49.549  0.00  0.00    -0.271 OA
ATOM     36  N   MOL d         -89.270 -83.724  51.510  0.00  0.00    -0.346 N 
ATOM     37  H39 MOL d         -89.211 -82.784  51.846  0.00  0.00     0.163 HD
BRANCH  36  38
ATOM     38  CA  MOL d         -89.685 -84.729  52.440  0.00  0.00     0.186 C 
BRANCH  38  39
ATOM     39  C   MOL d         -88.444 -85.466  52.885  0.00  0.00     0.238 C 
ATOM     40  O   MOL d         -87.639 -84.908  53.632  0.00  0.00    -0.271 OA
ATOM     41  N1  MOL d         -88.190 -86.820  52.420  0.00  0.00    -0.368 N 
ATOM     42  H43 MOL d         -88.845 -87.272  51.814  0.00  0.00     0.159 HD
ATOM     43  H44 MOL d         -87.361 -87.300  52.707  0.00  0.00     0.159 HD
ENDBRANCH  38  39
BRANCH  38  44
ATOM     44  CB  MOL d         -90.690 -85.662  51.813  0.00  0.00     0.147 C 
BRANCH  44  45
ATOM     45  CG  MOL d         -92.032 -84.983  51.880  0.00  0.00     0.175 C 
ATOM     46  OD1 MOL d         -92.828 -85.325  52.819  0.00  0.00    -0.648 OA
ATOM     47  OD2 MOL d         -92.333 -84.084  51.023  0.00  0.00    -0.648 OA
ENDBRANCH  44  45
ENDBRANCH  38  44
ENDBRANCH  36  38
ENDBRANCH  33  34
BRANCH  33  48
ATOM     48  CB  MOL d         -86.927 -82.908  49.319  0.00  0.00     0.073 C 
BRANCH  48  49
ATOM     49  CG  MOL d         -86.283 -81.719  48.617  0.00  0.00    -0.056 A 
ATOM     50  CD1 MOL d         -86.241 -81.706  47.227  0.00  0.00     0.010 A 
ATOM     51  CE1 MOL d         -85.663 -80.639  46.573  0.00  0.00     0.037 A 
ATOM     52  CZ  MOL d         -85.130 -79.593  47.312  0.00  0.00     0.065 A 
ATOM     53  CE2 MOL d         -85.170 -79.604  48.697  0.00  0.00     0.037 A 
ATOM     54  CD2 MOL d         -85.760 -80.677  49.353  0.00  0.00     0.010 A 
BRANCH  52  55
ATOM     55  OH  MOL d         -84.528 -78.474  46.605  0.00  0.00    -0.361 OA
ATOM     56  H38 MOL d         -83.616 -78.393  46.860  0.00  0.00     0.217 HD
ENDBRANCH  52  55
ENDBRANCH  48  49
ENDBRANCH  33  48
ENDBRANCH  31  33
ENDBRANCH   1  29
BRANCH   1  57
ATOM     57  CB  MOL d         -89.788 -78.658  49.440  0.00  0.00     0.075 C 
BRANCH  57  58
ATOM     58  CG  MOL d         -90.126 -78.728  47.885  0.00  0.00    -0.028 A 
ATOM     59  CD1 MOL d         -89.339 -79.278  46.856  0.00  0.00     0.096 A 
ATOM     60  NE1 MOL d         -89.970 -79.110  45.705  0.00  0.00    -0.365 N 
ATOM     61  CE2 MOL d         -91.146 -78.463  45.900  0.00  0.00     0.042 A 
ATOM     62  H25 MOL d         -89.618 -79.426  44.790  0.00  0.00     0.165 HD
ATOM     63  CD2 MOL d         -91.305 -78.191  47.257  0.00  0.00    -0.002 A 
ATOM     64  CZ2 MOL d         -92.161 -78.069  44.972  0.00  0.00     0.030 A 
ATOM     65  CE3 MOL d         -92.440 -77.516  47.732  0.00  0.00     0.014 A 
ATOM     66  CZ3 MOL d         -93.444 -77.124  46.821  0.00  0.00     0.001 A 
ATOM     67  CH2 MOL d         -93.291 -77.409  45.443  0.00  0.00     0.002 A 
ENDBRANCH  57  58
ENDBRANCH   1  57
TORSDOF 25
