REMARK  16 active torsions:
REMARK  status: ('A' for Active; 'I' for Inactive)
REMARK    1  A    between atoms: S8_2  and  C5_4 
REMARK    2  A    between atoms: S8_2  and  N11_13 
REMARK    3  A    between atoms: N11_13  and  C12_14 
REMARK    4  A    between atoms: N11_13  and  C16_19 
REMARK    5  A    between atoms: C12_14  and  C13_15 
REMARK    6  A    between atoms: C13_15  and  C14_16 
REMARK    7  A    between atoms: C14_16  and  C15_17 
REMARK    8  A    between atoms: C16_19  and  C17_20 
REMARK    9  A    between atoms: C17_20  and  O18_21 
REMARK   10  A    between atoms: C17_20  and  C19_22 
REMARK   11  A    between atoms: C19_22  and  N20_23 
REMARK   12  A    between atoms: C19_22  and  C32_34 
REMARK       I    between atoms: N20_23  and  C21_24 
REMARK   13  A    between atoms: C21_24  and  C22_26 
REMARK   14  A    between atoms: C22_26  and  C23_27 
REMARK   15  A    between atoms: C22_26  and  N26_30 
REMARK       I    between atoms: N26_30  and  C27_31 
REMARK   16  A    between atoms: C32_34  and  C38_35 
ROOT
ATOM      1  C17 MZ7 d          20.051  29.454  15.508  0.00  0.00     0.155 C 
ENDROOT
BRANCH   1   2
ATOM      2  C16 MZ7 d          19.140  30.537  16.096  0.00  0.00     0.141 C 
BRANCH   2   3
ATOM      3  N11 MZ7 d          19.428  31.830  15.436  0.00  0.00    -0.204 NA
BRANCH   3   4
ATOM      4  S8  MZ7 d          18.146  32.448  14.671  0.00  0.00     0.243 S 
ATOM      5  O9  MZ7 d          18.624  33.256  13.597  0.00  0.00    -0.206 OA
ATOM      6  O10 MZ7 d          17.400  31.325  14.164  0.00  0.00    -0.206 OA
BRANCH   4   7
ATOM      7  C5  MZ7 d          17.208  33.297  15.680  0.00  0.00     0.076 A 
ATOM      8  C6  MZ7 d          16.222  32.610  16.383  0.00  0.00     0.027 A 
ATOM      9  C7  MZ7 d          15.393  33.271  17.286  0.00  0.00     0.034 A 
ATOM     10  C2  MZ7 d          15.520  34.635  17.503  0.00  0.00     0.074 A 
ATOM     11  C3  MZ7 d          16.490  35.351  16.807  0.00  0.00     0.036 A 
ATOM     12  N1  MZ7 d          14.843  35.460  18.342  0.00  0.00    -0.253 NA
ATOM     13  C4  MZ7 d          17.337  34.676  15.910  0.00  0.00     0.046 A 
ATOM     14  S1  MZ7 d          16.566  37.022  17.135  0.00  0.00    -0.081 SA
ATOM     15  C1  MZ7 d          15.263  36.747  18.253  0.00  0.00     0.167 A 
ENDBRANCH   4   7
ENDBRANCH   3   4
BRANCH   3  16
ATOM     16  C12 MZ7 d          20.093  32.804  16.314  0.00  0.00     0.107 C 
BRANCH  16  17
ATOM     17  C13 MZ7 d          21.597  32.509  16.367  0.00  0.00     0.015 C 
BRANCH  17  18
ATOM     18  C14 MZ7 d          22.343  33.649  17.067  0.00  0.00     0.001 C 
BRANCH  18  19
ATOM     19  C15 MZ7 d          22.290  35.028  16.401  0.00  0.00    -0.005 C 
ATOM     20  C18 MZ7 d          22.711  34.997  14.946  0.00  0.00     0.005 C 
ENDBRANCH  18  19
ENDBRANCH  17  18
ENDBRANCH  16  17
ENDBRANCH   3  16
ENDBRANCH   2   3
ENDBRANCH   1   2
BRANCH   1  21
ATOM     21  O18 MZ7 d          20.053  28.348  16.418  0.00  0.00    -0.392 OA
ATOM     22  H19 MZ7 d          20.612  27.660  16.077  0.00  0.00     0.210 HD
ENDBRANCH   1  21
BRANCH   1  23
ATOM     23  C19 MZ7 d          19.650  29.006  14.092  0.00  0.00     0.118 C 
BRANCH  23  24
ATOM     24  N20 MZ7 d          20.712  28.239  13.459  0.00  0.00    -0.352 N 
ATOM     25  C21 MZ7 d          21.493  28.633  12.447  0.00  0.00     0.241 C 
ATOM     26  O22 MZ7 d          21.483  29.726  11.915  0.00  0.00    -0.271 OA
ATOM     27  H21 MZ7 d          20.875  27.320  13.818  0.00  0.00     0.163 HD
BRANCH  25  28
ATOM     28  C22 MZ7 d          22.438  27.566  11.958  0.00  0.00     0.179 C 
BRANCH  28  29
ATOM     29  C23 MZ7 d          23.842  28.073  11.699  0.00  0.00     0.009 C 
ATOM     30  C25 MZ7 d          24.772  26.932  11.263  0.00  0.00     0.012 C 
ATOM     31  C24 MZ7 d          24.363  28.767  12.948  0.00  0.00     0.012 C 
ENDBRANCH  28  29
BRANCH  28  32
ATOM     32  N26 MZ7 d          21.930  26.871  10.787  0.00  0.00    -0.348 N 
ATOM     33  C27 MZ7 d          21.685  25.563  10.805  0.00  0.00     0.214 C 
ATOM     34  O28 MZ7 d          21.835  24.859  11.805  0.00  0.00    -0.274 OA
ATOM     35  C29 MZ7 d          21.218  25.019   9.488  0.00  0.00     0.117 C 
ATOM     36  H30 MZ7 d          21.761  27.388   9.948  0.00  0.00     0.163 HD
ENDBRANCH  28  32
ENDBRANCH  25  28
ENDBRANCH  23  24
BRANCH  23  37
ATOM     37  C32 MZ7 d          18.361  28.181  14.061  0.00  0.00     0.066 C 
BRANCH  37  38
ATOM     38  C38 MZ7 d          17.999  27.808  12.643  0.00  0.00    -0.056 A 
ATOM     39  C33 MZ7 d          18.231  26.515  12.185  0.00  0.00     0.007 A 
ATOM     40  C34 MZ7 d          17.923  26.167  10.873  0.00  0.00     0.001 A 
ATOM     41  C35 MZ7 d          17.364  27.107  10.022  0.00  0.00     0.000 A 
ATOM     42  C36 MZ7 d          17.122  28.399  10.472  0.00  0.00     0.001 A 
ATOM     43  C37 MZ7 d          17.439  28.745  11.783  0.00  0.00     0.007 A 
ENDBRANCH  37  38
ENDBRANCH  23  37
ENDBRANCH   1  23
TORSDOF 16
