REMARK  20 active torsions:
REMARK  status: ('A' for Active; 'I' for Inactive)
REMARK       I    between atoms: C3_7  and  N1_2 
REMARK    1  A    between atoms: N1_2  and  C4_9 
REMARK    2  A    between atoms: C2_4  and  C3_7 
REMARK    3  A    between atoms: N5_12  and  C2_4 
REMARK       I    between atoms: C9_17  and  N2_5 
REMARK    4  A    between atoms: N2_5  and  C10_19 
REMARK    5  A    between atoms: C5_11  and  O2_6 
REMARK    6  A    between atoms: O2_6  and  C6_13 
REMARK    7  A    between atoms: C7_15  and  O3_8 
REMARK    8  A    between atoms: O3_8  and  C8_16 
REMARK    9  A    between atoms: C4_9  and  C5_11 
REMARK       I    between atoms: C39_24  and  N5_12 
REMARK   10  A    between atoms: C6_13  and  C7_15 
REMARK   11  A    between atoms: C41_26  and  N6_14 
REMARK   12  A    between atoms: C8_16  and  C9_17 
REMARK   13  A    between atoms: C46_31  and  O10_20 
REMARK   14  A    between atoms: O10_20  and  C49_34 
REMARK   15  A    between atoms: C40_25  and  O11_22 
REMARK   16  A    between atoms: C40_25  and  C39_24 
REMARK   17  A    between atoms: C41_26  and  C40_25 
REMARK   18  A    between atoms: C42_27  and  C41_26 
REMARK   19  A    between atoms: C43_28  and  C42_27 
REMARK   20  A    between atoms: C49_34  and  C50_35 
ROOT
ATOM      1  N5  BTJ d          15.343  11.202  10.435  0.00  0.00    -0.346 N 
ATOM      2  O9  BTJ d          14.400   9.879  11.720  0.00  0.00    -0.271 OA
ATOM      3  C39 BTJ d          14.513  10.986  11.186  0.00  0.00     0.249 C 
ATOM      4  H11 BTJ d          15.337  12.016   9.855  0.00  0.00     0.163 HD
ENDROOT
BRANCH   3   5
ATOM      5  C40 BTJ d          13.822  12.262  11.321  0.00  0.00     0.240 C 
BRANCH   5   6
ATOM      6  O11 BTJ d          13.140  12.717  10.353  0.00  0.00    -0.384 OA
ATOM      7  H25 BTJ d          12.757  13.550  10.601  0.00  0.00     0.210 HD
ENDBRANCH   5   6
BRANCH   5   8
ATOM      8  C41 BTJ d          13.025  12.051  12.468  0.00  0.00     0.225 C 
BRANCH   8   9
ATOM      9  N6  BTJ d          11.696  11.949  12.385  0.00  0.00    -0.072 N 
ATOM     10  H14 BTJ d          11.312  11.801  13.305  0.00  0.00     0.274 HD
ATOM     11  H15 BTJ d          11.455  11.171  11.792  0.00  0.00     0.274 HD
ATOM     12  H16 BTJ d          11.318  12.798  11.995  0.00  0.00     0.274 HD
ENDBRANCH   8   9
BRANCH   8  13
ATOM     13  C42 BTJ d          13.332  13.021  13.550  0.00  0.00     0.074 C 
BRANCH  13  14
ATOM     14  C43 BTJ d          13.021  12.513  14.980  0.00  0.00    -0.056 A 
ATOM     15  C44 BTJ d          12.893  13.322  15.991  0.00  0.00     0.010 A 
ATOM     16  C45 BTJ d          12.620  12.721  17.186  0.00  0.00     0.037 A 
ATOM     17  C46 BTJ d          12.508  11.446  17.554  0.00  0.00     0.069 A 
ATOM     18  C47 BTJ d          12.588  10.640  16.648  0.00  0.00     0.037 A 
ATOM     19  C48 BTJ d          12.812  11.147  15.423  0.00  0.00     0.010 A 
BRANCH  17  20
ATOM     20  O10 BTJ d          12.230  11.229  18.731  0.00  0.00    -0.347 OA
BRANCH  20  21
ATOM     21  C49 BTJ d          11.927  10.096  19.465  0.00  0.00     0.214 C 
BRANCH  21  22
ATOM     22  C50 BTJ d          13.236   9.366  19.694  0.00  0.00    -0.034 A 
ATOM     23  C51 BTJ d          13.337   7.902  19.805  0.00  0.00     0.009 A 
ATOM     24  C52 BTJ d          14.552   7.347  20.175  0.00  0.00     0.001 A 
ATOM     25  C53 BTJ d          15.687   8.162  20.400  0.00  0.00     0.000 A 
ATOM     26  C54 BTJ d          15.579   9.552  20.300  0.00  0.00     0.001 A 
ATOM     27  C55 BTJ d          14.460  10.159  19.925  0.00  0.00     0.009 A 
ENDBRANCH  21  22
ENDBRANCH  20  21
ENDBRANCH  17  20
ENDBRANCH  13  14
ENDBRANCH   8  13
ENDBRANCH   5   8
ENDBRANCH   3   5
BRANCH   1  28
ATOM     28  C2  BTJ d          16.417  10.212  10.375  0.00  0.00     0.172 C 
ATOM     29  C1  BTJ d          17.181  10.160   9.102  0.00  0.00     0.042 C 
BRANCH  28  30
ATOM     30  C3  BTJ d          17.290   9.839  11.630  0.00  0.00     0.240 C 
ATOM     31  N1  BTJ d          17.700   8.533  11.665  0.00  0.00    -0.357 N 
ATOM     32  H4  BTJ d          17.258   7.932  10.999  0.00  0.00     0.162 HD
ATOM     33  O1  BTJ d          17.512  10.588  12.418  0.00  0.00    -0.271 OA
BRANCH  31  34
ATOM     34  C4  BTJ d          18.674   7.890  12.517  0.00  0.00     0.148 C 
BRANCH  34  35
ATOM     35  C5  BTJ d          18.008   7.751  13.837  0.00  0.00     0.187 C 
BRANCH  35  36
ATOM     36  O2  BTJ d          16.637   7.432  13.724  0.00  0.00    -0.387 OA
BRANCH  36  37
ATOM     37  C6  BTJ d          16.347   6.144  14.083  0.00  0.00     0.193 C 
BRANCH  37  38
ATOM     38  C7  BTJ d          14.995   6.027  14.750  0.00  0.00     0.194 C 
BRANCH  38  39
ATOM     39  O3  BTJ d          15.007   6.678  15.958  0.00  0.00    -0.380 OA
BRANCH  39  40
ATOM     40  C8  BTJ d          14.987   6.137  17.315  0.00  0.00     0.270 C 
BRANCH  40  41
ATOM     41  C9  BTJ d          15.909   5.074  17.853  0.00  0.00     0.241 C 
ATOM     42  N2  BTJ d          15.361   3.768  18.232  0.00  0.00    -0.355 N 
ATOM     43  H6  BTJ d          15.313   3.092  17.496  0.00  0.00     0.162 HD
ATOM     44  O4  BTJ d          17.063   5.408  17.954  0.00  0.00    -0.271 OA
BRANCH  42  45
ATOM     45  C10 BTJ d          14.854   3.295  19.588  0.00  0.00     0.076 C 
ATOM     46  C11 BTJ d          15.745   2.466  20.403  0.00  0.00     0.032 C 
ATOM     47  C25 BTJ d          13.467   2.870  20.024  0.00  0.00     0.032 C 
ENDBRANCH  42  45
ENDBRANCH  40  41
ENDBRANCH  39  40
ENDBRANCH  38  39
ENDBRANCH  37  38
ENDBRANCH  36  37
ENDBRANCH  35  36
ENDBRANCH  34  35
ENDBRANCH  31  34
ENDBRANCH  28  30
ENDBRANCH   1  28
TORSDOF 20
