REMARK  4 active torsions:
REMARK  status: ('A' for Active; 'I' for Inactive)
REMARK    1  A    between atoms: S7_2  and  N10_4 
REMARK    2  A    between atoms: S7_2  and  C3_5 
REMARK    3  A    between atoms: C6_9  and  N11_11 
REMARK    4  A    between atoms: N12_12  and  N13_13 
ROOT
ATOM      1  C3  WW3 d          -5.408   2.238  15.948  0.00  0.00     0.079 A 
ATOM      2  C2  WW3 d          -6.284   3.241  15.543  0.00  0.00     0.027 A 
ATOM      3  C4  WW3 d          -4.016   2.390  15.660  0.00  0.00     0.027 A 
ATOM      4  C5  WW3 d          -3.580   3.538  14.956  0.00  0.00     0.035 A 
ATOM      5  C6  WW3 d          -4.506   4.495  14.560  0.00  0.00     0.080 A 
ATOM      6  C1  WW3 d          -5.832   4.349  14.851  0.00  0.00     0.035 A 
ENDROOT
BRANCH   5   7
ATOM      7  N11 WW3 d          -4.119   5.621  13.812  0.00  0.00    -0.133 NA
ATOM      8  N12 WW3 d          -2.892   5.896  13.848  0.00  0.00    -0.070 NA
BRANCH   8   9
ATOM      9  N13 WW3 d          -2.392   7.011  13.295  0.00  0.00    -0.287 N 
ATOM     10  C16 WW3 d          -1.326   7.455  14.165  0.00  0.00     0.146 C 
ATOM     11  C15 WW3 d          -0.313   8.528  13.842  0.00  0.00     0.021 C 
ATOM     12  C17 WW3 d          -1.093   9.785  14.150  0.00  0.00     0.002 C 
ATOM     13  C18 WW3 d          -2.135  10.025  13.060  0.00  0.00     0.002 C 
ATOM     14  C19 WW3 d          -2.382   9.003  11.931  0.00  0.00     0.021 C 
ATOM     15  C14 WW3 d          -3.136   7.753  12.334  0.00  0.00     0.146 C 
ENDBRANCH   8   9
ENDBRANCH   5   7
BRANCH   1  16
ATOM     16  S7  WW3 d          -5.956   0.810  16.789  0.00  0.00     0.256 S 
ATOM     17  O9  WW3 d          -7.384   0.853  16.677  0.00  0.00    -0.201 OA
ATOM     18  O8  WW3 d          -5.393   0.894  18.122  0.00  0.00    -0.201 OA
BRANCH  16  19
ATOM     19  N10 WW3 d          -5.384  -0.497  16.034  0.00  0.00    -0.324 N 
ATOM     20  H   WW3 d          -5.675  -0.702  15.100  0.00  0.00     0.169 HD
ATOM     21  H   WW3 d          -4.738  -1.102  16.501  0.00  0.00     0.169 HD
ENDBRANCH  16  19
ENDBRANCH   1  16
TORSDOF 4
