REMARK  13 active torsions:
REMARK  status: ('A' for Active; 'I' for Inactive)
REMARK    1  A    between atoms: N1_2  and  C5_11 
REMARK       I    between atoms: C6_13  and  N1_2 
REMARK    2  A    between atoms: C4_9  and  C2_4 
REMARK    3  A    between atoms: C8_15  and  N2_5 
REMARK    4  A    between atoms: C7_14  and  O2_6 
REMARK    5  A    between atoms: C13_20  and  O3_8 
REMARK    6  A    between atoms: O3_8  and  C14_21 
REMARK    7  A    between atoms: C5_11  and  C4_9 
REMARK    8  A    between atoms: C5_11  and  C23_30 
REMARK    9  A    between atoms: C7_14  and  C6_13 
REMARK   10  A    between atoms: C8_15  and  C7_14 
REMARK   11  A    between atoms: C9_16  and  C8_15 
REMARK   12  A    between atoms: C10_17  and  C9_16 
REMARK   13  A    between atoms: C14_21  and  C15_22 
ROOT
ATOM      1  C8  D50 d          12.436  11.906  12.317  0.00  0.00     0.225 C 
ENDROOT
BRANCH   1   2
ATOM      2  N2  D50 d          11.246  12.743  11.984  0.00  0.00    -0.072 N 
ATOM      3  H6  D50 d          10.577  12.690  12.736  0.00  0.00     0.274 HD
ATOM      4  H7  D50 d          10.824  12.404  11.134  0.00  0.00     0.274 HD
ATOM      5  H8  D50 d          11.534  13.701  11.857  0.00  0.00     0.274 HD
ENDBRANCH   1   2
BRANCH   1   6
ATOM      6  C7  D50 d          13.449  11.982  11.186  0.00  0.00     0.240 C 
BRANCH   6   7
ATOM      7  O2  D50 d          12.817  12.197   9.893  0.00  0.00    -0.384 OA
ATOM      8  H9  D50 d          12.315  13.003   9.917  0.00  0.00     0.210 HD
ENDBRANCH   6   7
BRANCH   6   9
ATOM      9  C6  D50 d          14.266  10.685  11.169  0.00  0.00     0.249 C 
ATOM     10  N1  D50 d          15.425  10.778  10.582  0.00  0.00    -0.344 N 
ATOM     11  H4  D50 d          15.674  11.605  10.079  0.00  0.00     0.163 HD
ATOM     12  O1  D50 d          13.939   9.619  11.724  0.00  0.00    -0.271 OA
BRANCH  10  13
ATOM     13  C5  D50 d          16.349   9.664  10.669  0.00  0.00     0.185 C 
BRANCH  13  14
ATOM     14  C4  D50 d          17.169   9.540   9.417  0.00  0.00     0.040 C 
BRANCH  14  15
ATOM     15  C2  D50 d          16.342   9.029   8.241  0.00  0.00    -0.020 C 
ATOM     16  C1  D50 d          17.242   9.078   7.036  0.00  0.00     0.009 C 
ATOM     17  C3  D50 d          15.812   7.600   8.450  0.00  0.00     0.009 C 
ENDBRANCH  14  15
ENDBRANCH  13  14
BRANCH  13  18
ATOM     18  C23 D50 d          17.205   9.775  11.894  0.00  0.00     0.196 C 
ATOM     19  O4  D50 d          17.102  10.743  12.649  0.00  0.00    -0.646 OA
ATOM     20  O5  D50 d          18.075   8.816  12.141  0.00  0.00    -0.646 OA
ENDBRANCH  13  18
ENDBRANCH  10  13
ENDBRANCH   6   9
ENDBRANCH   1   6
BRANCH   1  21
ATOM     21  C9  D50 d          13.131  12.511  13.514  0.00  0.00     0.074 C 
BRANCH  21  22
ATOM     22  C10 D50 d          12.838  11.865  14.841  0.00  0.00    -0.056 A 
ATOM     23  C11 D50 d          13.269  10.560  15.131  0.00  0.00     0.010 A 
ATOM     24  C12 D50 d          13.023  10.008  16.384  0.00  0.00     0.037 A 
ATOM     25  C13 D50 d          12.369  10.742  17.348  0.00  0.00     0.069 A 
ATOM     26  C21 D50 d          11.962  12.037  17.060  0.00  0.00     0.037 A 
ATOM     27  C22 D50 d          12.193  12.621  15.807  0.00  0.00     0.010 A 
BRANCH  25  28
ATOM     28  O3  D50 d          12.154  10.180  18.604  0.00  0.00    -0.347 OA
BRANCH  28  29
ATOM     29  C14 D50 d          11.028  10.406  19.446  0.00  0.00     0.214 C 
BRANCH  29  30
ATOM     30  C15 D50 d          11.128   9.411  20.578  0.00  0.00    -0.034 A 
ATOM     31  C16 D50 d          10.814   9.790  21.887  0.00  0.00     0.009 A 
ATOM     32  C17 D50 d          10.911   8.866  22.927  0.00  0.00     0.001 A 
ATOM     33  C18 D50 d          11.327   7.562  22.660  0.00  0.00     0.000 A 
ATOM     34  C19 D50 d          11.654   7.162  21.358  0.00  0.00     0.001 A 
ATOM     35  C20 D50 d          11.546   8.102  20.321  0.00  0.00     0.009 A 
ENDBRANCH  29  30
ENDBRANCH  28  29
ENDBRANCH  25  28
ENDBRANCH  21  22
ENDBRANCH   1  21
TORSDOF 13
