REMARK  10 active torsions:
REMARK  status: ('A' for Active; 'I' for Inactive)
REMARK    1  A    between atoms: O3B_8  and  PG_1 
REMARK    2  A    between atoms: PB_5  and  O3B_8 
REMARK    3  A    between atoms: O3A_12  and  PB_5 
REMARK    4  A    between atoms: PA_9  and  O3A_12 
REMARK    5  A    between atoms: PA_9  and  O5_13 
REMARK    6  A    between atoms: O5_13  and  C5_14 
REMARK    7  A    between atoms: C5_14  and  C4_15 
REMARK    8  A    between atoms: C3_17  and  O3_18 
REMARK    9  A    between atoms: C2_19  and  O2_20 
REMARK   10  A    between atoms: C1_21  and  N9_22 
ROOT
ATOM      1  C4  ATP d          10.342  34.823  32.686  0.00  0.00     0.180 C 
ATOM      2  O4  ATP d          10.220  35.518  33.969  0.00  0.00    -0.353 OA
ATOM      3  C3  ATP d          10.353  35.875  31.597  0.00  0.00     0.182 C 
ATOM      4  C2  ATP d          10.455  37.187  32.317  0.00  0.00     0.198 C 
ATOM      5  C1  ATP d           9.902  36.905  33.684  0.00  0.00     0.262 C 
ENDROOT
BRANCH   1   6
ATOM      6  C5  ATP d          11.620  34.017  32.665  0.00  0.00     0.216 C 
BRANCH   6   7
ATOM      7  O5  ATP d          11.558  33.095  31.575  0.00  0.00    -0.287 OA
BRANCH   7   8
ATOM      8  PA  ATP d          12.854  32.251  31.152  0.00  0.00     0.417 P 
ATOM      9  O1A ATP d          14.040  33.146  31.133  0.00  0.00    -0.624 OA
ATOM     10  O2A ATP d          12.520  31.490  29.924  0.00  0.00    -0.624 OA
BRANCH   8  11
ATOM     11  O3A ATP d          12.987  31.247  32.411  0.00  0.00    -0.180 OA
BRANCH  11  12
ATOM     12  PB  ATP d          12.064  30.085  33.044  0.00  0.00     0.428 P 
ATOM     13  O1B ATP d          10.683  30.287  32.535  0.00  0.00    -0.624 OA
ATOM     14  O2B ATP d          12.710  28.796  32.803  0.00  0.00    -0.624 OA
BRANCH  12  15
ATOM     15  O3B ATP d          12.090  30.359  34.636  0.00  0.00    -0.173 OA
BRANCH  15  16
ATOM     16  PG  ATP d          12.402  29.424  35.975  0.00  0.00     0.431 P 
ATOM     17  O1G ATP d          12.183  28.013  35.545  0.00  0.00    -0.616 OA
ATOM     18  O2G ATP d          13.820  29.727  36.340  0.00  0.00    -0.616 OA
ATOM     19  O3G ATP d          11.416  29.869  37.006  0.00  0.00    -0.616 OA
ENDBRANCH  15  16
ENDBRANCH  12  15
ENDBRANCH  11  12
ENDBRANCH   8  11
ENDBRANCH   7   8
ENDBRANCH   6   7
ENDBRANCH   1   6
BRANCH   3  20
ATOM     20  O3  ATP d           9.127  35.814  30.816  0.00  0.00    -0.390 OA
ATOM     21  H5  ATP d           9.151  36.480  30.139  0.00  0.00     0.210 HD
ENDBRANCH   3  20
BRANCH   5  22
ATOM     22  N9  ATP d          10.425  37.819  34.723  0.00  0.00    -0.294 N 
ATOM     23  C8  ATP d          11.744  38.151  34.982  0.00  0.00     0.214 A 
ATOM     24  N7  ATP d          11.769  39.052  35.997  0.00  0.00    -0.236 NA
ATOM     25  C5  ATP d          10.507  39.223  36.304  0.00  0.00     0.149 A 
ATOM     26  C6  ATP d          10.105  40.087  37.301  0.00  0.00     0.155 A 
ATOM     27  C4  ATP d           9.667  38.496  35.563  0.00  0.00     0.167 A 
ATOM     28  N6  ATP d          10.979  40.798  38.007  0.00  0.00    -0.382 N 
ATOM     29  N1  ATP d           8.758  40.184  37.527  0.00  0.00    -0.222 NA
ATOM     30  H10 ATP d          10.648  41.435  38.745  0.00  0.00     0.157 HD
ATOM     31  H11 ATP d          11.987  40.712  37.816  0.00  0.00     0.157 HD
ATOM     32  C2  ATP d           7.868  39.443  36.781  0.00  0.00     0.237 A 
ATOM     33  N3  ATP d           8.315  38.598  35.798  0.00  0.00    -0.222 NA
ENDBRANCH   5  22
BRANCH   4  34
ATOM     34  O2  ATP d           9.720  38.216  31.643  0.00  0.00    -0.388 OA
ATOM     35  H7  ATP d           8.804  37.970  31.595  0.00  0.00     0.210 HD
ENDBRANCH   4  34
TORSDOF 10
