REMARK  6 active torsions:
REMARK  status: ('A' for Active; 'I' for Inactive)
REMARK    1  A    between atoms: C11_16  and  C13_1 
REMARK    2  A    between atoms: C13_1  and  C14_18 
REMARK    3  A    between atoms: S02_7  and  N1_6 
REMARK    4  A    between atoms: C5_10  and  S02_7 
REMARK    5  A    between atoms: C9_14  and  C8_13 
REMARK    6  A    between atoms: N10_15  and  C9_14 
REMARK       I    between atoms: N10_15  and  C11_16 
ROOT
ATOM      1  C20 MOL d          17.856   3.211  14.797  0.00  0.00     0.010 A 
ATOM      2  C21 MOL d          17.304   2.150  15.567  0.00  0.00     0.026 A 
ATOM      3  C5  MOL d          15.948   2.062  15.924  0.00  0.00     0.079 A 
ATOM      4  C6  MOL d          15.201   3.130  15.479  0.00  0.00     0.026 A 
ATOM      5  C7  MOL d          15.685   4.189  14.730  0.00  0.00     0.010 A 
ATOM      6  C8  MOL d          17.015   4.269  14.380  0.00  0.00    -0.040 A 
ENDROOT
BRANCH   6   7
ATOM      7  C9  MOL d          17.595   5.369  13.520  0.00  0.00     0.161 C 
BRANCH   7   8
ATOM      8  N10 MOL d          18.673   6.200  14.077  0.00  0.00    -0.357 N 
ATOM      9  C11 MOL d          19.441   6.845  13.077  0.00  0.00     0.222 C 
ATOM     10  O12 MOL d          19.195   6.708  11.916  0.00  0.00    -0.273 OA
ATOM     11  H   MOL d          18.845   6.299  15.057  0.00  0.00     0.162 HD
BRANCH   9  12
ATOM     12  C13 MOL d          20.597   7.790  13.497  0.00  0.00     0.141 C 
BRANCH  12  13
ATOM     13  C14 MOL d          20.234   9.240  13.398  0.00  0.00    -0.050 A 
ATOM     14  C15 MOL d          20.717  10.117  14.389  0.00  0.00     0.007 A 
ATOM     15  C16 MOL d          20.336  11.483  14.277  0.00  0.00     0.001 A 
ATOM     16  C17 MOL d          19.513  11.957  13.249  0.00  0.00     0.000 A 
ATOM     17  C18 MOL d          19.063  11.026  12.308  0.00  0.00     0.001 A 
ATOM     18  C19 MOL d          19.422   9.710  12.400  0.00  0.00     0.007 A 
ENDBRANCH  12  13
ENDBRANCH   9  12
ENDBRANCH   7   8
ENDBRANCH   6   7
BRANCH   3  19
ATOM     19  S02 MOL d          15.305   0.769  16.870  0.00  0.00     0.256 S 
ATOM     20  O3  MOL d          15.807   0.860  18.186  0.00  0.00    -0.201 OA
ATOM     21  O4  MOL d          13.879   0.786  16.715  0.00  0.00    -0.201 OA
BRANCH  19  22
ATOM     22  N1  MOL d          15.877  -0.604  16.133  0.00  0.00    -0.324 N 
ATOM     23  H   MOL d          16.858  -0.799  16.132  0.00  0.00     0.169 HD
ATOM     24  H   MOL d          15.241  -1.236  15.690  0.00  0.00     0.169 HD
ENDBRANCH  19  22
ENDBRANCH   3  19
TORSDOF 6
