REMARK  7 active torsions:
REMARK  status: ('A' for Active; 'I' for Inactive)
REMARK    1  A    between atoms: C16_3  and  C15_4 
REMARK    2  A    between atoms: C15_4  and  S_5 
REMARK    3  A    between atoms: S_5  and  C14_6 
REMARK    4  A    between atoms: C10_9  and  O_10 
REMARK    5  A    between atoms: C4_18  and  C3_19 
REMARK    6  A    between atoms: C3_19  and  C2_20 
REMARK    7  A    between atoms: C2_20  and  C1_21 
ROOT
ATOM      1  N1  MOL d          20.202  43.994  62.390  0.00  0.00    -0.197 NA
ATOM      2  C17 MOL d          21.252  44.424  62.706  0.00  0.00     0.059 C 
ATOM      3  C16 MOL d          22.577  44.891  63.132  0.00  0.00     0.134 C 
ENDROOT
BRANCH   3   4
ATOM      4  C15 MOL d          23.390  45.249  61.882  0.00  0.00     0.093 C 
BRANCH   4   5
ATOM      5  S   MOL d          22.766  46.696  61.063  0.00  0.00    -0.128 SA
BRANCH   5   6
ATOM      6  C14 MOL d          22.682  47.928  62.294  0.00  0.00     0.021 A 
ATOM      7  C13 MOL d          23.807  48.307  63.021  0.00  0.00     0.013 A 
ATOM      8  C12 MOL d          25.076  47.799  62.656  0.00  0.00     0.052 A 
ATOM      9  C7  MOL d          23.649  49.181  64.088  0.00  0.00     0.069 A 
ATOM     10  C10 MOL d          26.162  48.242  63.396  0.00  0.00     0.069 A 
ATOM     11  C9  MOL d          25.969  49.096  64.485  0.00  0.00     0.039 A 
ATOM     12  C8  MOL d          24.743  49.643  64.833  0.00  0.00     0.035 A 
ATOM     13  N   MOL d          22.439  49.667  64.457  0.00  0.00    -0.253 NA
ATOM     14  C5  MOL d          21.321  49.359  63.774  0.00  0.00     0.039 A 
ATOM     15  C6  MOL d          20.035  50.007  64.295  0.00  0.00     0.071 C 
ATOM     16  C4  MOL d          21.443  48.451  62.685  0.00  0.00    -0.016 A 
BRANCH  10  17
ATOM     17  O   MOL d          27.428  47.752  63.086  0.00  0.00    -0.356 OA
ATOM     18  C11 MOL d          27.607  47.061  61.812  0.00  0.00     0.210 C 
ENDBRANCH  10  17
BRANCH  16  19
ATOM     19  C3  MOL d          20.298  47.982  61.796  0.00  0.00     0.042 C 
BRANCH  19  20
ATOM     20  C2  MOL d          18.915  47.812  62.318  0.00  0.00     0.004 C 
BRANCH  20  21
ATOM     21  C1  MOL d          17.854  48.046  61.253  0.00  0.00    -0.004 C 
ATOM     22  C   MOL d          17.147  49.371  61.463  0.00  0.00     0.005 C 
ENDBRANCH  20  21
ENDBRANCH  19  20
ENDBRANCH  16  19
ENDBRANCH   5   6
ENDBRANCH   4   5
ENDBRANCH   3   4
TORSDOF 7
