REMARK  8 active torsions:
REMARK  status: ('A' for Active; 'I' for Inactive)
REMARK    1  A    between atoms: C5_2  and  C4_3 
REMARK       I    between atoms: C5_2  and  N3_17 
REMARK    2  A    between atoms: C4_3  and  C12_4 
REMARK    3  A    between atoms: C4_3  and  N2_10 
REMARK       I    between atoms: N2_10  and  C3_11 
REMARK    4  A    between atoms: C3_11  and  C2_13 
REMARK    5  A    between atoms: C2_13  and  N1_15 
REMARK    6  A    between atoms: C6_22  and  C10_23 
REMARK       I    between atoms: C10_23  and  N4_25 
REMARK    7  A    between atoms: N4_25  and  C11_26 
REMARK    8  A    between atoms: C19_31  and  C20_32 
ROOT
ATOM      1  O3  MOL d           9.784  12.460 -19.700  0.00  0.00    -0.271 OA
ATOM      2  C5  MOL d           8.763  12.368 -20.372  0.00  0.00     0.243 C 
ATOM      3  N3  MOL d           8.077  11.224 -20.518  0.00  0.00    -0.337 N 
ATOM      4  C9  MOL d           6.845  11.030 -21.296  0.00  0.00     0.127 C 
ATOM      5  C8  MOL d           6.293   9.701 -20.805  0.00  0.00     0.027 C 
ATOM      6  C7  MOL d           7.531   8.934 -20.412  0.00  0.00     0.015 C 
ATOM      7  C28 MOL d           7.265   7.777 -19.456  0.00  0.00     0.012 C 
ATOM      8  C6  MOL d           8.499   9.980 -19.864  0.00  0.00     0.183 C 
ENDROOT
BRANCH   2   9
ATOM      9  C4  MOL d           8.241  13.579 -21.101  0.00  0.00     0.181 C 
BRANCH   9  10
ATOM     10  C12 MOL d           8.757  13.556 -22.555  0.00  0.00     0.018 C 
ATOM     11  C18 MOL d          10.285  13.662 -22.699  0.00  0.00     0.007 C 
ATOM     12  C17 MOL d          10.728  13.519 -24.160  0.00  0.00     0.000 C 
ATOM     13  C16 MOL d           9.980  14.484 -25.084  0.00  0.00     0.000 C 
ATOM     14  C15 MOL d           8.463  14.359 -24.915  0.00  0.00     0.000 C 
ATOM     15  C14 MOL d           8.054  14.574 -23.459  0.00  0.00     0.007 C 
ENDBRANCH   9  10
BRANCH   9  16
ATOM     16  N2  MOL d           8.662  14.822 -20.461  0.00  0.00    -0.346 N 
ATOM     17  C3  MOL d           7.850  15.868 -20.317  0.00  0.00     0.248 C 
ATOM     18  O2  MOL d           6.696  15.900 -20.729  0.00  0.00    -0.271 OA
ATOM     19  H13 MOL d           9.598  14.891 -20.117  0.00  0.00     0.163 HD
BRANCH  17  20
ATOM     20  C2  MOL d           8.443  17.064 -19.633  0.00  0.00     0.272 C 
ATOM     21  C13 MOL d           8.405  16.855 -18.122  0.00  0.00     0.050 C 
BRANCH  20  22
ATOM     22  N1  MOL d           7.754  18.289 -20.014  0.00  0.00    -0.067 N 
ATOM     23  C1  MOL d           7.922  18.807 -21.361  0.00  0.00     0.267 C 
ATOM     24  H18 MOL d           8.063  19.010 -19.381  0.00  0.00     0.277 HD
ATOM     25  H19 MOL d           6.768  18.126 -19.882  0.00  0.00     0.277 HD
ENDBRANCH  20  22
ENDBRANCH  17  20
ENDBRANCH   9  16
ENDBRANCH   2   9
BRANCH   8  26
ATOM     26  C10 MOL d           9.867   9.494 -20.235  0.00  0.00     0.245 C 
ATOM     27  O1  MOL d          10.525   8.913 -19.387  0.00  0.00    -0.271 OA
ATOM     28  N4  MOL d          10.288   9.719 -21.489  0.00  0.00    -0.324 N 
ATOM     29  H32 MOL d           9.694  10.232 -22.109  0.00  0.00     0.169 HD
BRANCH  28  30
ATOM     30  C11 MOL d          11.527   9.265 -21.968  0.00  0.00     0.049 A 
ATOM     31  C27 MOL d          12.652   9.201 -21.137  0.00  0.00     0.030 A 
ATOM     32  C26 MOL d          13.862   8.714 -21.622  0.00  0.00     0.002 A 
ATOM     33  C25 MOL d          13.960   8.281 -22.942  0.00  0.00     0.001 A 
ATOM     34  C24 MOL d          12.842   8.328 -23.770  0.00  0.00     0.018 A 
ATOM     35  C19 MOL d          11.622   8.815 -23.289  0.00  0.00     0.038 A 
BRANCH  35  36
ATOM     36  C20 MOL d          10.464   8.856 -24.231  0.00  0.00     0.161 A 
ATOM     37  N6  MOL d          10.396   7.955 -25.247  0.00  0.00    -0.241 NA
ATOM     38  C23 MOL d           9.376   7.975 -26.119  0.00  0.00     0.120 A 
ATOM     39  C22 MOL d           8.379   8.938 -25.992  0.00  0.00     0.038 A 
ATOM     40  C21 MOL d           8.463   9.862 -24.952  0.00  0.00     0.120 A 
ATOM     41  N5  MOL d           9.501   9.807 -24.100  0.00  0.00    -0.241 NA
ENDBRANCH  35  36
ENDBRANCH  28  30
ENDBRANCH   8  26
TORSDOF 8
