REMARK  10 active torsions:
REMARK  status: ('A' for Active; 'I' for Inactive)
REMARK    1  A    between atoms: SAJ_2  and  CAK_4 
REMARK    2  A    between atoms: SAJ_2  and  CAI_10 
REMARK    3  A    between atoms: CAI_10  and  CAB_11 
REMARK    4  A    between atoms: CAD_16  and  OAH_18 
REMARK    5  A    between atoms: OAH_18  and  CAL_19 
REMARK    6  A    between atoms: CAL_19  and  CAM_20 
REMARK    7  A    between atoms: CAU_23  and  CAX_26 
REMARK    8  A    between atoms: CAX_26  and  NAY_27 
REMARK    9  A    between atoms: CAZ_28  and  CBD_29 
REMARK   10  A    between atoms: CBD_29  and  OBE_30 
ROOT
ATOM      1  OAH GYR d         -25.347   9.804 -15.428  0.00  0.00    -0.347 OA
ENDROOT
BRANCH   1   2
ATOM      2  CAD GYR d         -25.710  10.623 -16.491  0.00  0.00     0.070 A 
ATOM      3  CAE GYR d         -25.698  10.261 -17.833  0.00  0.00     0.043 A 
ATOM      4  CAF GYR d         -25.974  11.211 -18.819  0.00  0.00    -0.059 A 
ATOM      5  CAA GYR d         -26.267  12.507 -18.431  0.00  0.00     0.015 A 
ATOM      6  CAG GYR d         -25.881  10.857 -20.283  0.00  0.00     0.048 C 
ATOM      7  CAB GYR d         -26.273  12.881 -17.094  0.00  0.00    -0.041 A 
ATOM      8  CAC GYR d         -26.027  11.922 -16.115  0.00  0.00     0.044 A 
BRANCH   7   9
ATOM      9  CAI GYR d         -26.302  14.343 -16.747  0.00  0.00     0.184 C 
BRANCH   9  10
ATOM     10  SAJ GYR d         -27.949  15.044 -16.670  0.00  0.00     0.179 S 
ATOM     11  OBG GYR d         -27.805  16.483 -16.730  0.00  0.00    -0.222 OA
ATOM     12  OBF GYR d         -28.783  14.371 -17.628  0.00  0.00    -0.222 OA
BRANCH  10  13
ATOM     13  CAK GYR d         -28.523  14.636 -15.048  0.00  0.00     0.059 A 
ATOM     14  CAR GYR d         -28.174  15.445 -13.983  0.00  0.00     0.023 A 
ATOM     15  CAQ GYR d         -28.681  15.160 -12.729  0.00  0.00     0.002 A 
ATOM     16  CAP GYR d         -29.496  14.081 -12.540  0.00  0.00     0.000 A 
ATOM     17  CAO GYR d         -29.842  13.278 -13.606  0.00  0.00     0.002 A 
ATOM     18  CAN GYR d         -29.362  13.551 -14.872  0.00  0.00     0.023 A 
ENDBRANCH  10  13
ENDBRANCH   9  10
ENDBRANCH   7   9
ENDBRANCH   1   2
BRANCH   1  19
ATOM     19  CAL GYR d         -24.949   8.433 -15.698  0.00  0.00     0.214 C 
BRANCH  19  20
ATOM     20  CAM GYR d         -24.411   7.746 -14.464  0.00  0.00    -0.034 A 
ATOM     21  CAS GYR d         -24.653   6.403 -14.244  0.00  0.00     0.010 A 
ATOM     22  CAT GYR d         -24.285   5.792 -13.052  0.00  0.00     0.009 A 
ATOM     23  CAU GYR d         -23.653   6.505 -12.044  0.00  0.00    -0.033 A 
ATOM     24  CAV GYR d         -23.375   7.840 -12.280  0.00  0.00     0.009 A 
ATOM     25  CAW GYR d         -23.748   8.452 -13.470  0.00  0.00     0.010 A 
BRANCH  23  26
ATOM     26  CAX GYR d         -23.275   5.852 -10.723  0.00  0.00     0.274 C 
BRANCH  26  27
ATOM     27  NAY GYR d         -24.428   5.233  -9.900  0.00  0.00    -0.061 N 
ATOM     28  CAZ GYR d         -25.430   6.164  -9.191  0.00  0.00     0.212 C 
ATOM     29  CBA GYR d         -25.442   5.865  -7.691  0.00  0.00     0.037 C 
ATOM     30  CBB GYR d         -24.162   5.139  -7.487  0.00  0.00     0.030 C 
ATOM     31  CBC GYR d         -23.995   4.330  -8.764  0.00  0.00     0.236 C 
ATOM     32  H   GYR d         -24.949   4.679 -10.562  0.00  0.00     0.280 HD
BRANCH  28  33
ATOM     33  CBD GYR d         -26.823   6.083  -9.787  0.00  0.00     0.197 C 
BRANCH  33  34
ATOM     34  OBE GYR d         -27.424   4.806  -9.602  0.00  0.00    -0.399 OA
ATOM     35  H   GYR d         -26.888   4.142 -10.020  0.00  0.00     0.209 HD
ENDBRANCH  33  34
ENDBRANCH  28  33
ENDBRANCH  26  27
ENDBRANCH  23  26
ENDBRANCH  19  20
ENDBRANCH   1  19
TORSDOF 10
