REMARK  5 active torsions:
REMARK  status: ('A' for Active; 'I' for Inactive)
REMARK    1  A    between atoms: N_1  and  CA_2 
REMARK    2  A    between atoms: CA_2  and  C_3 
REMARK    3  A    between atoms: CA_2  and  CB_5 
REMARK    4  A    between atoms: C_3  and  O_4 
REMARK    5  A    between atoms: CB_5  and  CG_6 
ROOT
ATOM      1  CG  TR7 d          21.250   7.998  -2.956  0.00  0.00    -0.028 A 
ATOM      2  CD1 TR7 d          20.642   9.170  -2.754  0.00  0.00     0.096 A 
ATOM      3  CD2 TR7 d          20.384   7.009  -2.515  0.00  0.00    -0.002 A 
ATOM      4  NE1 TR7 d          19.434   8.973  -2.201  0.00  0.00    -0.365 N 
ATOM      5  CE2 TR7 d          19.257   7.666  -2.042  0.00  0.00     0.042 A 
ATOM      6  CE3 TR7 d          20.464   5.622  -2.473  0.00  0.00     0.014 A 
ATOM      7  CZ2 TR7 d          18.200   6.938  -1.523  0.00  0.00     0.030 A 
ATOM      8  CZ3 TR7 d          19.399   4.891  -1.949  0.00  0.00     0.001 A 
ATOM      9  CH2 TR7 d          18.283   5.560  -1.483  0.00  0.00     0.002 A 
ATOM     10  H8  TR7 d          18.761   9.709  -1.944  0.00  0.00     0.165 HD
ENDROOT
BRANCH   1  11
ATOM     11  CB  TR7 d          22.645   7.765  -3.563  0.00  0.00     0.084 C 
BRANCH  11  12
ATOM     12  CA  TR7 d          22.549   7.377  -5.036  0.00  0.00     0.286 C 
BRANCH  12  13
ATOM     13  N   TR7 d          23.901   7.151  -5.577  0.00  0.00    -0.066 N 
ATOM     14  H1  TR7 d          24.346   6.404  -5.067  0.00  0.00     0.275 HD
ATOM     15  H2  TR7 d          24.446   7.994  -5.482  0.00  0.00     0.275 HD
ATOM     16  H3  TR7 d          23.836   6.901  -6.551  0.00  0.00     0.275 HD
ENDBRANCH  12  13
BRANCH  12  17
ATOM     17  C   TR7 d          21.856   8.511  -5.800  0.00  0.00     0.289 C 
ATOM     18  OXT TR7 d          22.511   9.421  -6.312  0.00  0.00    -0.263 OA
BRANCH  17  19
ATOM     19  O   TR7 d          20.499   8.502  -5.913  0.00  0.00    -0.325 OA
ATOM     20  CAJ TR7 d          20.049   9.636  -6.655  0.00  0.00     0.213 C 
ENDBRANCH  17  19
ENDBRANCH  12  17
ENDBRANCH  11  12
ENDBRANCH   1  11
TORSDOF 5
