REMARK  1 active torsions:
REMARK  status: ('A' for Active; 'I' for Inactive)
REMARK    1  A    between atoms: C2_3  and  C6_8 
ROOT
ATOM      1  N2  NCT d          84.773  70.488 -11.317  0.00  0.00    -0.067 N 
ATOM      2  C6  NCT d          84.348  69.212 -10.639  0.00  0.00     0.222 C 
ATOM      3  C7  NCT d          85.537  68.745  -9.801  0.00  0.00     0.040 C 
ATOM      4  C8  NCT d          86.737  69.434 -10.424  0.00  0.00     0.030 C 
ATOM      5  C9  NCT d          86.233  70.625 -11.235  0.00  0.00     0.235 C 
ATOM      6  C10 NCT d          84.502  70.486 -12.756  0.00  0.00     0.270 C 
ATOM      7  H5  NCT d          84.311  71.268 -10.875  0.00  0.00     0.280 HD
ENDROOT
BRANCH   2   8
ATOM      8  C2  NCT d          83.069  69.256  -9.857  0.00  0.00    -0.010 A 
ATOM      9  C1  NCT d          82.926  69.909  -8.615  0.00  0.00     0.125 A 
ATOM     10  N1  NCT d          81.726  69.981  -7.943  0.00  0.00    -0.273 NA
ATOM     11  C5  NCT d          80.636  69.345  -8.441  0.00  0.00     0.116 A 
ATOM     12  C4  NCT d          80.705  68.617  -9.641  0.00  0.00     0.020 A 
ATOM     13  C3  NCT d          81.922  68.611 -10.371  0.00  0.00     0.012 A 
ENDBRANCH   2   8
TORSDOF 1
