REMARK  20 active torsions:
REMARK  status: ('A' for Active; 'I' for Inactive)
REMARK       I    between atoms: C1_1  and  N3_3 
REMARK       I    between atoms: N22_12  and  C1_1 
REMARK    1  A    between atoms: N3_3  and  C5_5 
REMARK    2  A    between atoms: C5_5  and  C6_6 
REMARK    3  A    between atoms: C23_13  and  N22_12 
REMARK    4  A    between atoms: C24_14  and  C23_13 
REMARK    5  A    between atoms: C23_13  and  C26_16 
REMARK       I    between atoms: N38_19  and  C24_14 
REMARK    6  A    between atoms: C39_20  and  N38_19 
REMARK    7  A    between atoms: C39_20  and  C40_21 
REMARK    8  A    between atoms: C47_28  and  C39_20 
REMARK    9  A    between atoms: C40_21  and  C41_22 
REMARK   10  A    between atoms: C49_30  and  C47_28 
REMARK   11  A    between atoms: C49_30  and  O48_29 
REMARK   12  A    between atoms: C51_32  and  C49_30 
REMARK       I    between atoms: N50_31  and  C83_42 
REMARK   13  A    between atoms: C51_32  and  N50_31 
REMARK   14  A    between atoms: C51_32  and  C52_33 
REMARK   15  A    between atoms: C52_33  and  C53_34 
REMARK   16  A    between atoms: C82_41  and  N81_40 
REMARK       I    between atoms: N81_40  and  C97_47 
REMARK   17  A    between atoms: C83_42  and  C82_41 
REMARK   18  A    between atoms: C82_41  and  C85_44 
REMARK       I    between atoms: C97_47  and  N99_49 
REMARK   19  A    between atoms: N99_49  and  C3_51 
REMARK   20  A    between atoms: C3_51  and  C8_52 
ROOT
ATOM      1  C49 A78 d           4.947  -0.439  15.906  0.00  0.00     0.143 C 
ENDROOT
BRANCH   1   2
ATOM      2  C47 A78 d           6.200   0.122  15.283  0.00  0.00     0.059 C 
BRANCH   2   3
ATOM      3  C39 A78 d           6.168   0.222  13.783  0.00  0.00     0.091 C 
BRANCH   3   4
ATOM      4  N38 A78 d           4.974   0.964  13.308  0.00  0.00    -0.354 N 
ATOM      5  C24 A78 d           4.064   0.448  12.454  0.00  0.00     0.241 C 
ATOM      6  O25 A78 d           4.113  -0.690  12.027  0.00  0.00    -0.271 OA
ATOM      7  H19 A78 d           4.836   1.898  13.639  0.00  0.00     0.162 HD
BRANCH   5   8
ATOM      8  C23 A78 d           2.907   1.346  11.989  0.00  0.00     0.181 C 
BRANCH   8   9
ATOM      9  N22 A78 d           3.269   2.045  10.734  0.00  0.00    -0.329 N 
ATOM     10  C1  A78 d           3.527   3.346  10.758  0.00  0.00     0.319 C 
ATOM     11  O2  A78 d           3.335   4.009  11.766  0.00  0.00    -0.247 OA
ATOM     12  N3  A78 d           4.010   3.909   9.633  0.00  0.00    -0.333 N 
ATOM     13  C4  A78 d           4.205   3.139   8.401  0.00  0.00     0.154 C 
ATOM     14  H10 A78 d           3.319   1.539   9.873  0.00  0.00     0.165 HD
BRANCH  12  15
ATOM     15  C5  A78 d           4.400   5.336   9.691  0.00  0.00     0.186 C 
BRANCH  15  16
ATOM     16  C6  A78 d           5.886   5.581   9.529  0.00  0.00     0.052 A 
ATOM     17  C7  A78 d           6.406   5.723   8.242  0.00  0.00     0.029 A 
ATOM     18  C9  A78 d           7.780   5.941   8.112  0.00  0.00     0.003 A 
ATOM     19  C11 A78 d           8.573   5.997   9.264  0.00  0.00     0.019 A 
ATOM     20  C10 A78 d           7.952   5.847  10.507  0.00  0.00     0.117 A 
ATOM     21  N8  A78 d           6.635   5.652  10.639  0.00  0.00    -0.264 NA
ENDBRANCH  15  16
ENDBRANCH  12  15
ENDBRANCH   8   9
BRANCH   8  22
ATOM     22  C26 A78 d           1.582   0.556  11.790  0.00  0.00     0.009 C 
ATOM     23  C27 A78 d           1.155  -0.239  13.031  0.00  0.00     0.012 C 
ATOM     24  C28 A78 d           0.417   1.447  11.306  0.00  0.00     0.012 C 
ENDBRANCH   8  22
ENDBRANCH   5   8
ENDBRANCH   3   4
BRANCH   3  25
ATOM     25  C40 A78 d           7.438   0.969  13.419  0.00  0.00     0.063 C 
BRANCH  25  26
ATOM     26  C41 A78 d           7.688   0.971  11.948  0.00  0.00    -0.056 A 
ATOM     27  C42 A78 d           7.246   2.035  11.156  0.00  0.00     0.007 A 
ATOM     28  C43 A78 d           7.467   2.011   9.773  0.00  0.00     0.001 A 
ATOM     29  C44 A78 d           8.123   0.932   9.194  0.00  0.00     0.000 A 
ATOM     30  C45 A78 d           8.572  -0.125   9.997  0.00  0.00     0.001 A 
ATOM     31  C46 A78 d           8.357  -0.111  11.379  0.00  0.00     0.007 A 
ENDBRANCH  25  26
ENDBRANCH   3  25
ENDBRANCH   2   3
ENDBRANCH   1   2
BRANCH   1  32
ATOM     32  C51 A78 d           4.725  -1.934  15.616  0.00  0.00     0.117 C 
BRANCH  32  33
ATOM     33  C52 A78 d           3.372  -2.422  16.165  0.00  0.00     0.066 C 
BRANCH  33  34
ATOM     34  C53 A78 d           3.125  -3.907  16.027  0.00  0.00    -0.056 A 
ATOM     35  C54 A78 d           3.391  -4.776  17.098  0.00  0.00     0.007 A 
ATOM     36  C55 A78 d           3.155  -6.150  16.955  0.00  0.00     0.001 A 
ATOM     37  C56 A78 d           2.656  -6.669  15.752  0.00  0.00     0.000 A 
ATOM     38  C57 A78 d           2.384  -5.809  14.686  0.00  0.00     0.001 A 
ATOM     39  C58 A78 d           2.619  -4.428  14.822  0.00  0.00     0.007 A 
ENDBRANCH  33  34
ENDBRANCH  32  33
BRANCH  32  40
ATOM     40  N50 A78 d           5.812  -2.736  16.180  0.00  0.00    -0.352 N 
ATOM     41  C83 A78 d           6.451  -3.712  15.529  0.00  0.00     0.241 C 
ATOM     42  O84 A78 d           6.267  -3.961  14.350  0.00  0.00    -0.271 OA
ATOM     43  H32 A78 d           6.096  -2.539  17.118  0.00  0.00     0.163 HD
BRANCH  41  44
ATOM     44  C82 A78 d           7.476  -4.481  16.382  0.00  0.00     0.181 C 
BRANCH  44  45
ATOM     45  N81 A78 d           7.053  -5.853  16.709  0.00  0.00    -0.329 N 
ATOM     46  C97 A78 d           6.929  -6.364  17.926  0.00  0.00     0.319 C 
ATOM     47  O98 A78 d           7.255  -5.760  18.936  0.00  0.00    -0.247 OA
ATOM     48  N99 A78 d           6.402  -7.611  17.999  0.00  0.00    -0.333 N 
ATOM     49  C2  A78 d           6.012  -8.380  16.812  0.00  0.00     0.154 C 
ATOM     50  H41 A78 d           6.839  -6.456  15.941  0.00  0.00     0.165 HD
BRANCH  48  51
ATOM     51  C3  A78 d           6.142  -8.234  19.299  0.00  0.00     0.186 C 
BRANCH  51  52
ATOM     52  C8  A78 d           4.815  -7.811  19.875  0.00  0.00     0.052 A 
ATOM     53  C12 A78 d           3.714  -8.679  19.817  0.00  0.00     0.029 A 
ATOM     54  C13 A78 d           2.500  -8.242  20.357  0.00  0.00     0.003 A 
ATOM     55  C15 A78 d           2.432  -6.969  20.932  0.00  0.00     0.019 A 
ATOM     56  C14 A78 d           3.592  -6.184  20.934  0.00  0.00     0.117 A 
ATOM     57  N10 A78 d           4.767  -6.587  20.423  0.00  0.00    -0.264 NA
ENDBRANCH  51  52
ENDBRANCH  48  51
ENDBRANCH  44  45
BRANCH  44  58
ATOM     58  C85 A78 d           8.822  -4.467  15.644  0.00  0.00     0.009 C 
ATOM     59  C86 A78 d           9.290  -3.027  15.325  0.00  0.00     0.012 C 
ATOM     60  C87 A78 d           9.900  -5.191  16.469  0.00  0.00     0.012 C 
ENDBRANCH  44  58
ENDBRANCH  41  44
ENDBRANCH  32  40
ENDBRANCH   1  32
BRANCH   1  61
ATOM     61  O48 A78 d           5.125  -0.265  17.302  0.00  0.00    -0.393 OA
ATOM     62  H30 A78 d           5.263   0.656  17.490  0.00  0.00     0.210 HD
ENDBRANCH   1  61
TORSDOF 20
