REMARK  5 active torsions:
REMARK  status: ('A' for Active; 'I' for Inactive)
REMARK    1  A    between atoms: N10_13  and  C11_3 
REMARK    2  A    between atoms: C7_4  and  N14_14 
REMARK    3  A    between atoms: N14_14  and  C15_15 
REMARK    4  A    between atoms: C19_19  and  N21_21 
REMARK    5  A    between atoms: C24_24  and  O28_28 
ROOT
ATOM      1  C15 MOL d         -54.772   1.186 -24.344  0.00  0.00     0.149 A 
ATOM      2  C16 MOL d         -55.933   1.257 -25.135  0.00  0.00     0.071 A 
ATOM      3  C17 MOL d         -56.055   0.400 -26.220  0.00  0.00     0.140 A 
ATOM      4  N18 MOL d         -55.070  -0.461 -26.471  0.00  0.00    -0.075 NA
ATOM      5  C19 MOL d         -53.973  -0.535 -25.703  0.00  0.00     0.726 A 
ATOM      6  N20 MOL d         -53.826   0.299 -24.668  0.00  0.00    -0.045 NA
ENDROOT
BRANCH   1   7
ATOM      7  N14 MOL d         -54.632   2.042 -23.253  0.00  0.00    -0.325 N 
ATOM      8  H13 MOL d         -55.048   2.979 -23.349  0.00  0.00     0.169 HD
BRANCH   7   9
ATOM      9  C7  MOL d         -53.986   1.765 -22.039  0.00  0.00     0.131 A 
ATOM     10  C8  MOL d         -52.967   0.826 -21.958  0.00  0.00     0.082 A 
ATOM     11  C9  MOL d         -52.336   0.606 -20.733  0.00  0.00     0.070 A 
ATOM     12  C4  MOL d         -52.716   1.373 -19.611  0.00  0.00     0.103 A 
ATOM     13  N10 MOL d         -51.330  -0.234 -20.318  0.00  0.00    -0.329 N 
ATOM     14  C5  MOL d         -53.712   2.338 -19.785  0.00  0.00     0.153 A 
ATOM     15  N3  MOL d         -51.931   0.962 -18.580  0.00  0.00    -0.232 NA
ATOM     16  N6  MOL d         -54.314   2.482 -20.961  0.00  0.00    -0.241 NA
ATOM     17  C2  MOL d         -51.109   0.031 -18.977  0.00  0.00     0.103 A 
ATOM     18  C1  MOL d         -50.127  -0.615 -18.030  0.00  0.00     0.091 C 
BRANCH  13  19
ATOM     19  C11 MOL d         -50.712  -1.174 -21.266  0.00  0.00     0.083 C 
ATOM     20  C12 MOL d         -51.202  -2.619 -21.134  0.00  0.00     0.032 C 
ATOM     21  C13 MOL d         -49.234  -0.942 -21.556  0.00  0.00     0.032 C 
ENDBRANCH  13  19
ENDBRANCH   7   9
ENDBRANCH   1   7
BRANCH   5  22
ATOM     22  N21 MOL d         -52.961  -1.452 -25.994  0.00  0.00    -0.211 N 
ATOM     23  C22 MOL d         -51.787  -1.582 -25.088  0.00  0.00     0.144 C 
ATOM     24  C23 MOL d         -50.476  -1.525 -25.894  0.00  0.00     0.055 C 
ATOM     25  C24 MOL d         -50.532  -2.579 -27.024  0.00  0.00     0.158 C 
ATOM     26  C25 MOL d         -51.700  -2.268 -27.981  0.00  0.00     0.217 C 
ATOM     27  C26 MOL d         -53.032  -2.284 -27.226  0.00  0.00     0.181 C 
ATOM     28  F27 MOL d         -51.556  -0.955 -28.431  0.00  0.00    -0.245 F 
BRANCH  25  29
ATOM     29  O28 MOL d         -49.308  -2.565 -27.771  0.00  0.00    -0.388 OA
ATOM     30  C29 MOL d         -48.445  -3.680 -27.544  0.00  0.00     0.202 C 
ENDBRANCH  25  29
ENDBRANCH   5  22
TORSDOF 5
