REMARK  30 active torsions:
REMARK  status: ('A' for Active; 'I' for Inactive)
REMARK       I    between atoms: C_1  and  N_4 
REMARK    1  A    between atoms: N_4  and  CA_5 
REMARK    2  A    between atoms: CA_5  and  C_6 
REMARK    3  A    between atoms: CA_5  and  CB_8 
REMARK       I    between atoms: C_6  and  N_11 
REMARK    4  A    between atoms: CB_8  and  OG1_9 
REMARK    5  A    between atoms: N_11  and  CA_12 
REMARK    6  A    between atoms: CA_12  and  C_13 
REMARK    7  A    between atoms: CA_12  and  CB_15 
REMARK       I    between atoms: C_13  and  N_19 
REMARK    8  A    between atoms: CB_15  and  CG1_16 
REMARK    9  A    between atoms: N_19  and  CA_20 
REMARK   10  A    between atoms: CA_20  and  C_21 
REMARK   11  A    between atoms: CA_20  and  CB_22 
REMARK   12  A    between atoms: C_21  and  N_26 
REMARK   13  A    between atoms: CB_22  and  CG_23 
REMARK   14  A    between atoms: CG_23  and  CD_24 
REMARK   15  A    between atoms: N_26  and  CA_27 
REMARK   16  A    between atoms: CA_27  and  C_28 
REMARK   17  A    between atoms: CA_27  and  CB_30 
REMARK       I    between atoms: C_28  and  N_34 
REMARK   18  A    between atoms: CB_30  and  CG_31 
REMARK   19  A    between atoms: CG_31  and  CD_32 
REMARK   20  A    between atoms: N_34  and  CA_35 
REMARK   21  A    between atoms: CA_35  and  C_36 
REMARK   22  A    between atoms: CA_35  and  CB_38 
REMARK       I    between atoms: C_36  and  N_43 
REMARK   23  A    between atoms: CB_38  and  CG_39 
REMARK   24  A    between atoms: CG_39  and  CD_40 
REMARK       I    between atoms: CD_40  and  NE2_42 
REMARK   25  A    between atoms: N_43  and  CA_44 
REMARK   26  A    between atoms: CA_44  and  C_45 
REMARK   27  A    between atoms: CA_44  and  CB_47 
REMARK       I    between atoms: C_45  and  N_54 
REMARK   28  A    between atoms: CB_47  and  CG_48 
REMARK   29  A    between atoms: CG_48  and  CD_49 
REMARK   30  A    between atoms: CD_49  and  NE_50 
REMARK       I    between atoms: NE_50  and  CZ_51 
REMARK       I    between atoms: CZ_51  and  NH1_52 
ROOT
ATOM      1  CA  MOL d          14.285  23.119  16.994  0.00  0.00     0.277 C 
ENDROOT
BRANCH   1   2
ATOM      2  N   MOL d          15.487  23.834  17.444  0.00  0.00    -0.060 N 
ATOM      3  H35 MOL d          16.263  23.374  16.995  0.00  0.00     0.278 HD
ATOM      4  H36 MOL d          15.398  24.771  17.084  0.00  0.00     0.278 HD
BRANCH   2   5
ATOM      5  C   MOL d          15.846  23.972  18.754  0.00  0.00     0.258 C 
BRANCH   5   6
ATOM      6  CA  MOL d          17.351  23.952  19.039  0.00  0.00     0.110 C 
BRANCH   6   7
ATOM      7  N   MOL d          18.106  24.968  18.290  0.00  0.00    -0.353 N 
ATOM      8  C   MOL d          18.822  24.643  17.244  0.00  0.00     0.241 C 
ATOM      9  O   MOL d          18.775  23.484  16.776  0.00  0.00    -0.271 OA
ATOM     10  H22 MOL d          18.072  25.923  18.585  0.00  0.00     0.163 HD
BRANCH   8  11
ATOM     11  CA  MOL d          19.692  25.697  16.624  0.00  0.00     0.180 C 
BRANCH  11  12
ATOM     12  N   MOL d          20.964  25.669  17.320  0.00  0.00    -0.346 N 
ATOM     13  C   MOL d          21.440  26.712  17.963  0.00  0.00     0.243 C 
ATOM     14  O   MOL d          20.810  27.758  18.050  0.00  0.00    -0.271 OA
ATOM     15  H11 MOL d          21.499  24.824  17.310  0.00  0.00     0.163 HD
BRANCH  13  16
ATOM     16  CA  MOL d          22.817  26.562  18.636  0.00  0.00     0.205 C 
BRANCH  16  17
ATOM     17  N   MOL d          23.392  25.252  18.622  0.00  0.00    -0.346 N 
ATOM     18  C   MOL d          23.558  24.579  19.761  0.00  0.00     0.214 C 
ATOM     19  O   MOL d          23.267  25.087  20.862  0.00  0.00    -0.274 OA
ATOM     20  CH3 MOL d          24.161  23.207  19.668  0.00  0.00     0.117 C 
ATOM     21  H4  MOL d          23.671  24.840  17.755  0.00  0.00     0.163 HD
ENDBRANCH  16  17
BRANCH  16  22
ATOM     22  CB  MOL d          23.761  27.543  17.929  0.00  0.00     0.146 C 
ATOM     23  CG2 MOL d          25.116  27.631  18.656  0.00  0.00     0.042 C 
BRANCH  22  24
ATOM     24  OG1 MOL d          23.956  27.088  16.566  0.00  0.00    -0.393 OA
ATOM     25  H7  MOL d          24.540  27.686  16.114  0.00  0.00     0.210 HD
ENDBRANCH  22  24
ENDBRANCH  16  22
ENDBRANCH  13  16
ENDBRANCH  11  12
BRANCH  11  26
ATOM     26  CB  MOL d          19.841  25.523  15.093  0.00  0.00     0.013 C 
ATOM     27  CG2 MOL d          18.506  25.655  14.369  0.00  0.00     0.012 C 
BRANCH  26  28
ATOM     28  CG1 MOL d          20.905  26.413  14.472  0.00  0.00     0.002 C 
ATOM     29  CD1 MOL d          20.691  27.902  14.600  0.00  0.00     0.005 C 
ENDBRANCH  26  28
ENDBRANCH  11  26
ENDBRANCH   8  11
ENDBRANCH   6   7
BRANCH   6  30
ATOM     30  CB  MOL d          17.647  24.113  20.513  0.00  0.00     0.027 C 
BRANCH  30  31
ATOM     31  CG  MOL d          19.098  24.152  20.906  0.00  0.00     0.002 C 
BRANCH  31  32
ATOM     32  CD  MOL d          19.894  22.960  20.529  0.00  0.00    -0.004 C 
ATOM     33  CE  MOL d          19.327  21.646  21.071  0.00  0.00     0.005 C 
ENDBRANCH  31  32
ENDBRANCH  30  31
ENDBRANCH   6  30
ENDBRANCH   5   6
ENDBRANCH   2   5
ENDBRANCH   1   2
BRANCH   1  34
ATOM     34  C   MOL d          14.299  21.683  17.446  0.00  0.00     0.249 C 
ATOM     35  O   MOL d          15.314  20.966  17.361  0.00  0.00    -0.271 OA
ATOM     36  N   MOL d          13.171  21.197  17.905  0.00  0.00    -0.346 N 
ATOM     37  H47 MOL d          12.371  21.792  17.986  0.00  0.00     0.163 HD
BRANCH  36  38
ATOM     38  CA  MOL d          13.071  19.780  18.303  0.00  0.00     0.177 C 
BRANCH  38  39
ATOM     39  C   MOL d          11.649  19.323  17.985  0.00  0.00     0.241 C 
ATOM     40  O   MOL d          10.639  19.961  18.319  0.00  0.00    -0.271 OA
ATOM     41  N   MOL d          11.576  18.124  17.473  0.00  0.00    -0.346 N 
ATOM     42  H55 MOL d          12.416  17.605  17.315  0.00  0.00     0.163 HD
BRANCH  41  43
ATOM     43  CA  MOL d          10.300  17.532  17.130  0.00  0.00     0.176 C 
BRANCH  43  44
ATOM     44  C   MOL d          10.227  16.161  17.755  0.00  0.00     0.238 C 
ATOM     45  O   MOL d          11.182  15.411  17.759  0.00  0.00    -0.271 OA
ATOM     46  N   MOL d           9.469  15.858  18.143  0.00  0.00    -0.368 N 
ATOM     47  H68 MOL d           9.446  14.945  18.550  0.00  0.00     0.159 HD
ATOM     48  H69 MOL d           8.653  16.436  18.165  0.00  0.00     0.159 HD
ENDBRANCH  43  44
BRANCH  43  49
ATOM     49  CB  MOL d          10.199  17.393  15.620  0.00  0.00     0.036 C 
BRANCH  49  50
ATOM     50  CG  MOL d           9.938  18.731  14.933  0.00  0.00     0.023 C 
BRANCH  50  51
ATOM     51  CD  MOL d          10.472  18.777  13.509  0.00  0.00     0.138 C 
BRANCH  51  52
ATOM     52  NE  MOL d           9.699  17.929  12.600  0.00  0.00    -0.227 N 
ATOM     53  CZ  MOL d           8.513  18.232  12.084  0.00  0.00     0.665 C 
ATOM     54  NH1 MOL d           7.966  19.397  12.415  0.00  0.00    -0.235 N 
ATOM     55  NH2 MOL d           7.874  17.405  11.258  0.00  0.00    -0.235 N 
ATOM     56  H64 MOL d           7.047  19.662  12.032  0.00  0.00     0.174 HD
ATOM     57  H65 MOL d           8.461  20.035  13.055  0.00  0.00     0.174 HD
ATOM     58  H66 MOL d           8.299  16.502  11.002  0.00  0.00     0.174 HD
ATOM     59  H67 MOL d           6.955  17.668  10.875  0.00  0.00     0.174 HD
ATOM     60  H63 MOL d          10.109  17.021  12.338  0.00  0.00     0.177 HD
ENDBRANCH  51  52
ENDBRANCH  50  51
ENDBRANCH  49  50
ENDBRANCH  43  49
ENDBRANCH  41  43
ENDBRANCH  38  39
BRANCH  38  61
ATOM     61  CB  MOL d          13.476  19.589  19.741  0.00  0.00     0.044 C 
BRANCH  61  62
ATOM     62  CG  MOL d          13.295  18.228  20.316  0.00  0.00     0.105 C 
BRANCH  62  63
ATOM     63  CD  MOL d          11.892  17.948  20.869  0.00  0.00     0.215 C 
ATOM     64  OE1 MOL d          11.264  18.856  21.344  0.00  0.00    -0.274 OA
ATOM     65  NE2 MOL d          11.417  16.728  20.770  0.00  0.00    -0.370 N 
ATOM     66  H53 MOL d          10.505  16.516  21.122  0.00  0.00     0.159 HD
ATOM     67  H54 MOL d          11.967  16.010  20.343  0.00  0.00     0.159 HD
ENDBRANCH  62  63
ENDBRANCH  61  62
ENDBRANCH  38  61
ENDBRANCH  36  38
ENDBRANCH   1  34
BRANCH   1  68
ATOM     68  CB  MOL d          14.090  23.157  15.489  0.00  0.00     0.043 C 
BRANCH  68  69
ATOM     69  CG  MOL d          12.959  22.473  14.782  0.00  0.00     0.002 C 
BRANCH  69  70
ATOM     70  CD  MOL d          13.296  21.057  14.340  0.00  0.00    -0.004 C 
ATOM     71  CE  MOL d          14.316  21.071  13.195  0.00  0.00     0.005 C 
ENDBRANCH  69  70
ENDBRANCH  68  69
ENDBRANCH   1  68
TORSDOF 30
