REMARK  32 active torsions:
REMARK  status: ('A' for Active; 'I' for Inactive)
REMARK    1  A    between atoms: C2_2  and  S1_1 
REMARK    2  A    between atoms: S1_1  and  CP_12 
REMARK    3  A    between atoms: C3_3  and  C2_2 
REMARK    4  A    between atoms: N4_4  and  C3_3 
REMARK       I    between atoms: C5_5  and  N4_4 
REMARK    5  A    between atoms: C6_7  and  C5_5 
REMARK    6  A    between atoms: C7_8  and  C6_7 
REMARK    7  A    between atoms: N8_9  and  C7_8 
REMARK    8  A    between atoms: C10_13  and  C9_10 
REMARK    9  A    between atoms: CP_12  and  C1M_22 
REMARK   10  A    between atoms: C10_13  and  O10_14 
REMARK   11  A    between atoms: C11_15  and  C10_13 
REMARK   12  A    between atoms: C12_16  and  C11_15 
REMARK   13  A    between atoms: O6A_49  and  C12_16 
REMARK   14  A    between atoms: P1A_21  and  O3A_32 
REMARK   15  A    between atoms: O5X_46  and  P1A_21 
REMARK   16  A    between atoms: C1M_22  and  O1M_23 
REMARK   17  A    between atoms: C1M_22  and  C2M_28 
REMARK   18  A    between atoms: C1X_24  and  N9A_57 
REMARK   19  A    between atoms: O3A_32  and  P2A_27 
REMARK   20  A    between atoms: P2A_27  and  O6A_49 
REMARK   21  A    between atoms: C2M_28  and  C3M_33 
REMARK   22  A    between atoms: C2X_29  and  O2X_30 
REMARK   23  A    between atoms: C3M_33  and  C4M_39 
REMARK   24  A    between atoms: C3X_34  and  O3X_35 
REMARK   25  A    between atoms: O3X_35  and  P3X_36 
REMARK   26  A    between atoms: C5X_45  and  C4X_40 
REMARK   27  A    between atoms: C5M_44  and  C6M_50 
REMARK   28  A    between atoms: C5X_45  and  O5X_46 
REMARK   29  A    between atoms: C6A_47  and  N6A_48 
REMARK   30  A    between atoms: C6M_50  and  C7M_53 
REMARK   31  A    between atoms: C7M_53  and  C8M_56 
REMARK   32  A    between atoms: C8M_56  and  C9M_59 
ROOT
ATOM      1  O6A MOL d          26.766  60.539  30.912  0.00  0.00    -0.289 OA
ENDROOT
BRANCH   1   2
ATOM      2  C12 MOL d          27.433  60.761  32.157  0.00  0.00     0.193 C 
BRANCH   2   3
ATOM      3  C11 MOL d          26.375  60.925  33.249  0.00  0.00     0.008 C 
ATOM      4  C13 MOL d          27.055  61.128  34.604  0.00  0.00     0.020 C 
ATOM      5  C14 MOL d          25.459  62.086  32.900  0.00  0.00     0.020 C 
BRANCH   3   6
ATOM      6  C10 MOL d          25.530  59.667  33.343  0.00  0.00     0.205 C 
BRANCH   6   7
ATOM      7  C9  MOL d          24.383  59.867  34.305  0.00  0.00     0.181 C 
ATOM      8  N8  MOL d          24.512  59.493  35.521  0.00  0.00    -0.369 N 
ATOM      9  H10 MOL d          25.393  59.085  35.760  0.00  0.00     0.161 HD
ATOM     10  O9  MOL d          23.242  60.420  33.883  0.00  0.00    -0.174 OA
BRANCH   8  11
ATOM     11  C7  MOL d          23.540  59.585  36.605  0.00  0.00     0.131 C 
BRANCH  11  12
ATOM     12  C6  MOL d          23.778  60.952  37.256  0.00  0.00     0.122 C 
BRANCH  12  13
ATOM     13  C5  MOL d          22.967  61.131  38.522  0.00  0.00     0.219 C 
ATOM     14  N4  MOL d          23.390  62.040  39.387  0.00  0.00    -0.360 N 
ATOM     15  H5  MOL d          24.221  62.548  39.160  0.00  0.00     0.162 HD
ATOM     16  O5  MOL d          21.948  60.488  38.752  0.00  0.00    -0.274 OA
BRANCH  14  17
ATOM     17  C3  MOL d          22.726  62.353  40.652  0.00  0.00     0.132 C 
BRANCH  17  18
ATOM     18  C2  MOL d          21.941  63.636  40.403  0.00  0.00     0.093 C 
BRANCH  18  19
ATOM     19  S1  MOL d          23.033  64.943  39.947  0.00  0.00    -0.165 SA
BRANCH  19  20
ATOM     20  CP  MOL d          23.595  64.952  41.621  0.00  0.00     0.105 C 
BRANCH  20  21
ATOM     21  C1M MOL d          22.824  65.875  42.582  0.00  0.00     0.127 C 
BRANCH  21  22
ATOM     22  O1M MOL d          21.410  65.889  42.343  0.00  0.00    -0.395 OA
ATOM     23  H24 MOL d          20.991  66.473  42.964  0.00  0.00     0.210 HD
ENDBRANCH  21  22
BRANCH  21  24
ATOM     24  C2M MOL d          23.374  67.293  42.518  0.00  0.00     0.036 C 
BRANCH  24  25
ATOM     25  C3M MOL d          22.440  68.267  43.228  0.00  0.00     0.029 C 
BRANCH  25  26
ATOM     26  C4M MOL d          22.248  69.414  42.273  0.00  0.00    -0.031 C 
ATOM     27  C5M MOL d          21.052  69.916  41.994  0.00  0.00    -0.031 C 
BRANCH  27  28
ATOM     28  C6M MOL d          21.021  71.060  41.007  0.00  0.00     0.027 C 
BRANCH  28  29
ATOM     29  C7M MOL d          20.433  70.542  39.697  0.00  0.00     0.004 C 
BRANCH  29  30
ATOM     30  C8M MOL d          21.513  70.305  38.647  0.00  0.00    -0.000 C 
BRANCH  30  31
ATOM     31  C9M MOL d          20.901  70.315  37.248  0.00  0.00    -0.005 C 
ATOM     32  CAM MOL d          21.048  68.968  36.571  0.00  0.00     0.005 C 
ENDBRANCH  30  31
ENDBRANCH  29  30
ENDBRANCH  28  29
ENDBRANCH  27  28
ENDBRANCH  25  26
ENDBRANCH  24  25
ENDBRANCH  21  24
ENDBRANCH  20  21
ENDBRANCH  19  20
ENDBRANCH  18  19
ENDBRANCH  17  18
ENDBRANCH  14  17
ENDBRANCH  12  13
ENDBRANCH  11  12
ENDBRANCH   8  11
ENDBRANCH   6   7
BRANCH   6  33
ATOM     33  O10 MOL d          26.405  58.628  33.789  0.00  0.00    -0.386 OA
ATOM     34  H14 MOL d          27.115  58.525  33.166  0.00  0.00     0.210 HD
ENDBRANCH   6  33
ENDBRANCH   3   6
ENDBRANCH   2   3
ENDBRANCH   1   2
BRANCH   1  35
ATOM     35  P2A MOL d          27.384  60.743  29.424  0.00  0.00     0.417 P 
ATOM     36  O4A MOL d          26.802  59.600  28.630  0.00  0.00    -0.624 OA
ATOM     37  O5A MOL d          27.156  62.179  28.994  0.00  0.00    -0.624 OA
BRANCH  35  38
ATOM     38  O3A MOL d          28.979  60.525  29.570  0.00  0.00    -0.180 OA
BRANCH  38  39
ATOM     39  P1A MOL d          29.718  59.131  29.255  0.00  0.00     0.417 P 
ATOM     40  O1A MOL d          29.019  58.017  29.997  0.00  0.00    -0.624 OA
ATOM     41  O2A MOL d          29.953  59.010  27.764  0.00  0.00    -0.624 OA
BRANCH  39  42
ATOM     42  O5X MOL d          31.154  59.370  29.935  0.00  0.00    -0.287 OA
BRANCH  42  43
ATOM     43  C5X MOL d          31.818  60.628  29.903  0.00  0.00     0.216 C 
BRANCH  43  44
ATOM     44  C4X MOL d          33.221  60.379  30.434  0.00  0.00     0.180 C 
ATOM     45  C3X MOL d          33.784  59.054  29.931  0.00  0.00     0.199 C 
ATOM     46  C2X MOL d          33.490  58.053  31.024  0.00  0.00     0.199 C 
ATOM     47  C1X MOL d          33.572  58.930  32.259  0.00  0.00     0.262 C 
ATOM     48  O4X MOL d          33.145  60.247  31.851  0.00  0.00    -0.353 OA
BRANCH  45  49
ATOM     49  O3X MOL d          35.198  59.163  29.911  0.00  0.00    -0.272 OA
BRANCH  49  50
ATOM     50  P3X MOL d          36.077  59.103  28.563  0.00  0.00     0.422 P 
ATOM     51  O7A MOL d          35.429  58.014  27.732  0.00  0.00    -0.617 OA
ATOM     52  O8A MOL d          37.464  58.745  29.056  0.00  0.00    -0.617 OA
ATOM     53  O9A MOL d          35.961  60.516  28.022  0.00  0.00    -0.617 OA
ENDBRANCH  49  50
ENDBRANCH  45  49
BRANCH  46  54
ATOM     54  O2X MOL d          34.506  57.049  31.084  0.00  0.00    -0.388 OA
ATOM     55  H30 MOL d          35.359  57.465  31.121  0.00  0.00     0.210 HD
ENDBRANCH  46  54
BRANCH  47  56
ATOM     56  N9A MOL d          32.733  58.448  33.373  0.00  0.00    -0.294 N 
ATOM     57  C4A MOL d          33.187  58.000  34.544  0.00  0.00     0.167 A 
ATOM     58  N3A MOL d          34.435  57.828  35.048  0.00  0.00    -0.222 NA
ATOM     59  C5A MOL d          32.086  57.669  35.322  0.00  0.00     0.149 A 
ATOM     60  C2A MOL d          34.604  57.345  36.289  0.00  0.00     0.237 A 
ATOM     61  N1A MOL d          33.558  57.026  37.073  0.00  0.00    -0.222 NA
ATOM     62  C6A MOL d          32.286  57.168  36.619  0.00  0.00     0.155 A 
ATOM     63  N7A MOL d          30.986  57.946  34.585  0.00  0.00    -0.236 NA
ATOM     64  C8A MOL d          31.396  58.424  33.388  0.00  0.00     0.214 A 
BRANCH  62  65
ATOM     65  N6A MOL d          31.231  56.829  37.420  0.00  0.00    -0.382 N 
ATOM     66  H39 MOL d          30.267  56.937  37.075  0.00  0.00     0.157 HD
ATOM     67  H40 MOL d          31.401  56.465  38.369  0.00  0.00     0.157 HD
ENDBRANCH  62  65
ENDBRANCH  47  56
ENDBRANCH  43  44
ENDBRANCH  42  43
ENDBRANCH  39  42
ENDBRANCH  38  39
ENDBRANCH  35  38
ENDBRANCH   1  35
TORSDOF 32
