REMARK  3 active torsions:
REMARK  status: ('A' for Active; 'I' for Inactive)
REMARK    1  A    between atoms: CA_4  and  N_3 
REMARK    2  A    between atoms: CB_6  and  CA_4 
REMARK    3  A    between atoms: CG_7  and  CB_6 
ROOT
ATOM      1  O1  B41 d          -7.834  -5.867  16.542  0.00  0.00    -0.323 OA
ATOM      2  O2  B41 d          -7.054  -7.935  17.121  0.00  0.00    -0.323 OA
ATOM      3  CG  B41 d          -4.412  -4.792  17.263  0.00  0.00    -0.053 A 
ATOM      4  CD1 B41 d          -5.810  -4.614  17.106  0.00  0.00     0.047 A 
ATOM      5  CD2 B41 d          -3.902  -6.076  17.579  0.00  0.00     0.010 A 
ATOM      6  CE1 B41 d          -6.683  -5.712  17.267  0.00  0.00     0.105 A 
ATOM      7  CE2 B41 d          -4.788  -7.171  17.731  0.00  0.00     0.040 A 
ATOM      8  CZ  B41 d          -6.180  -6.971  17.577  0.00  0.00     0.105 A 
ATOM      9  CT  B41 d          -8.284  -7.222  16.823  0.00  0.00     0.352 C 
ENDROOT
BRANCH   3  10
ATOM     10  CB  B41 d          -3.481  -3.602  17.106  0.00  0.00     0.071 C 
BRANCH  10  11
ATOM     11  CA  B41 d          -3.179  -3.279  15.626  0.00  0.00     0.185 C 
ATOM     12  C   B41 d          -2.136  -4.264  15.071  0.00  0.00     0.040 C 
BRANCH  11  13
ATOM     13  N   B41 d          -2.660  -1.901  15.506  0.00  0.00    -0.075 N 
ATOM     14  CM  B41 d          -3.765  -0.951  15.377  0.00  0.00     0.267 C 
ATOM     15  H1  B41 d          -2.070  -1.838  14.691  0.00  0.00     0.277 HD
ATOM     16  H2  B41 d          -2.122  -1.676  16.328  0.00  0.00     0.277 HD
ENDBRANCH  11  13
ENDBRANCH  10  11
ENDBRANCH   3  10
TORSDOF 3
