REMARK  10 active torsions:
REMARK  status: ('A' for Active; 'I' for Inactive)
REMARK    1  A    between atoms: C01_1  and  C04_2 
REMARK    2  A    between atoms: C05_3  and  C06_4 
REMARK    3  A    between atoms: C06_4  and  O_5 
REMARK    4  A    between atoms: O_5  and  C07_6 
REMARK    5  A    between atoms: C2_11  and  C1_7 
REMARK    6  A    between atoms: N1_8  and  C2_11 
REMARK    7  A    between atoms: C7_16  and  O1_9 
REMARK    8  A    between atoms: C10_18  and  N2_12 
REMARK    9  A    between atoms: N2_12  and  C11_19 
REMARK   10  A    between atoms: N2_12  and  C13_21 
ROOT
ATOM      1  C01 P51 d          91.577  93.452 -45.295  0.00  0.00     0.019 A 
ATOM      2  C1  P51 d          90.906  95.761 -44.955  0.00  0.00     0.003 A 
ATOM      3  C02 P51 d          91.922  93.336 -43.945  0.00  0.00     0.041 A 
ATOM      4  C3  P51 d          91.074  94.664 -45.805  0.00  0.00     0.032 A 
ATOM      5  C4  P51 d          91.743  94.453 -43.121  0.00  0.00     0.041 A 
ATOM      6  C7  P51 d          91.239  95.680 -43.577  0.00  0.00     0.090 A 
ATOM      7  I2  P51 d          92.250  94.273 -41.069  0.00  0.00    -0.042 I 
ENDROOT
BRANCH   2   8
ATOM      8  C2  P51 d          90.353  97.031 -45.532  0.00  0.00     0.276 C 
BRANCH   8   9
ATOM      9  N1  P51 d          90.832  98.245 -44.817  0.00  0.00    -0.067 N 
ATOM     10  C03 P51 d          89.798  99.340 -44.863  0.00  0.00     0.237 C 
ATOM     11  C8  P51 d          90.335 100.507 -44.057  0.00  0.00     0.061 C 
ATOM     12  C10 P51 d          91.570 100.997 -44.802  0.00  0.00     0.191 C 
ATOM     13  C15 P51 d          92.674  99.933 -44.679  0.00  0.00     0.061 C 
ATOM     14  C16 P51 d          92.156  98.685 -45.369  0.00  0.00     0.237 C 
ATOM     15  H3  P51 d          90.971  98.000 -43.849  0.00  0.00     0.280 HD
BRANCH  12  16
ATOM     16  N2  P51 d          92.058 102.350 -44.252  0.00  0.00    -0.067 N 
ATOM     17  H8  P51 d          92.535 102.808 -45.013  0.00  0.00     0.280 HD
BRANCH  16  18
ATOM     18  C11 P51 d          93.071 102.171 -43.114  0.00  0.00     0.231 C 
ATOM     19  C12 P51 d          93.777 103.497 -42.902  0.00  0.00     0.034 C 
ENDBRANCH  16  18
BRANCH  16  20
ATOM     20  C13 P51 d          90.958 103.297 -43.789  0.00  0.00     0.231 C 
ATOM     21  C14 P51 d          90.154 103.902 -44.931  0.00  0.00     0.034 C 
ENDBRANCH  16  20
ENDBRANCH  12  16
ENDBRANCH   8   9
ENDBRANCH   2   8
BRANCH   6  22
ATOM     22  O1  P51 d          91.079  96.761 -42.768  0.00  0.00    -0.359 OA
ATOM     23  H4  P51 d          91.347  96.536 -41.885  0.00  0.00     0.217 HD
ENDBRANCH   6  22
BRANCH   1  24
ATOM     24  C04 P51 d          91.753  92.345 -46.188  0.00  0.00    -0.065 C 
ATOM     25  C05 P51 d          91.895  91.453 -46.972  0.00  0.00    -0.074 C 
BRANCH  25  26
ATOM     26  C06 P51 d          92.144  90.348 -47.919  0.00  0.00     0.269 C 
BRANCH  26  27
ATOM     27  O   P51 d          90.926  89.933 -48.543  0.00  0.00    -0.340 OA
BRANCH  27  28
ATOM     28  C07 P51 d          90.368  90.733 -49.510  0.00  0.00     0.070 A 
ATOM     29  C08 P51 d          89.107  90.313 -49.944  0.00  0.00     0.037 A 
ATOM     30  C09 P51 d          88.420  91.030 -50.927  0.00  0.00     0.003 A 
ATOM     31  C17 P51 d          88.992  92.173 -51.482  0.00  0.00     0.000 A 
ATOM     32  C18 P51 d          90.254  92.596 -51.058  0.00  0.00     0.003 A 
ATOM     33  C   P51 d          90.938  91.877 -50.070  0.00  0.00     0.037 A 
ENDBRANCH  27  28
ENDBRANCH  26  27
ENDBRANCH  25  26
ENDBRANCH   1  24
TORSDOF 10
