REMARK  7 active torsions:
REMARK  status: ('A' for Active; 'I' for Inactive)
REMARK    1  A    between atoms: C7_7  and  C2_2 
REMARK    2  A    between atoms: C9_9  and  C20_20 
REMARK    3  A    between atoms: O13_13  and  C10_10 
REMARK    4  A    between atoms: C14_14  and  O13_13 
REMARK    5  A    between atoms: C15_15  and  C14_14 
REMARK    6  A    between atoms: C16_16  and  C15_15 
REMARK    7  A    between atoms: N17_17  and  C16_16 
ROOT
ATOM      1  N1  MOL d          13.864  -7.199  19.240  0.00  0.00    -0.237 NA
ATOM      2  C2  MOL d          12.593  -7.264  18.755  0.00  0.00     0.068 A 
ATOM      3  C3  MOL d          11.609  -6.390  19.219  0.00  0.00     0.032 A 
ATOM      4  C4  MOL d          11.943  -5.427  20.168  0.00  0.00     0.005 A 
ATOM      5  C5  MOL d          13.245  -5.348  20.653  0.00  0.00     0.043 A 
ATOM      6  C6  MOL d          14.171  -6.253  20.162  0.00  0.00     0.137 A 
ATOM      7  C18 MOL d          15.539  -6.253  20.572  0.00  0.00     0.119 C 
ATOM      8  N19 MOL d          16.671  -6.308  20.805  0.00  0.00    -0.190 NA
ENDROOT
BRANCH   2   9
ATOM      9  C7  MOL d          12.370  -8.343  17.769  0.00  0.00    -0.006 A 
ATOM     10  C8  MOL d          11.094  -8.874  17.504  0.00  0.00     0.032 A 
ATOM     11  C9  MOL d          10.897  -9.927  16.568  0.00  0.00     0.082 A 
ATOM     12  C10 MOL d          12.020 -10.476  15.901  0.00  0.00     0.083 A 
ATOM     13  C11 MOL d          13.286  -9.952  16.163  0.00  0.00     0.038 A 
ATOM     14  C12 MOL d          13.455  -8.917  17.083  0.00  0.00     0.016 A 
BRANCH  11  15
ATOM     15  C20 MOL d           9.486 -10.441  16.346  0.00  0.00     0.420 C 
ATOM     16  F21 MOL d           9.057 -10.511  15.061  0.00  0.00    -0.166 F 
ATOM     17  F22 MOL d           8.527  -9.705  16.954  0.00  0.00    -0.166 F 
ATOM     18  F23 MOL d           9.297 -11.684  16.835  0.00  0.00    -0.166 F 
ENDBRANCH  11  15
BRANCH  12  19
ATOM     19  O13 MOL d          11.814 -11.492  14.999  0.00  0.00    -0.350 OA
BRANCH  19  20
ATOM     20  C14 MOL d          12.547 -12.707  15.163  0.00  0.00     0.177 C 
BRANCH  20  21
ATOM     21  C15 MOL d          12.628 -13.505  13.857  0.00  0.00     0.054 C 
BRANCH  21  22
ATOM     22  C16 MOL d          11.388 -14.355  13.639  0.00  0.00     0.237 C 
BRANCH  22  23
ATOM     23  N17 MOL d          10.115 -13.553  13.518  0.00  0.00    -0.068 N 
ATOM     24  C27 MOL d          10.176 -12.541  12.389  0.00  0.00     0.262 C 
ATOM     25  C26 MOL d           8.879 -11.725  12.351  0.00  0.00     0.262 C 
ATOM     26  N25 MOL d           7.721 -12.677  12.136  0.00  0.00    -0.072 N 
ATOM     27  C24 MOL d           7.624 -13.526  13.398  0.00  0.00     0.262 C 
ATOM     28  C29 MOL d           6.426 -11.973  11.773  0.00  0.00     0.269 C 
ATOM     29  H16 MOL d           7.950 -13.284  11.365  0.00  0.00     0.279 HD
ATOM     30  C28 MOL d           8.873 -14.416  13.487  0.00  0.00     0.262 C 
ATOM     31  H13 MOL d          10.049 -13.013  14.366  0.00  0.00     0.280 HD
ENDBRANCH  22  23
ENDBRANCH  21  22
ENDBRANCH  20  21
ENDBRANCH  19  20
ENDBRANCH  12  19
ENDBRANCH   2   9
TORSDOF 7
