REMARK  5 active torsions:
REMARK  status: ('A' for Active; 'I' for Inactive)
REMARK    1  A    between atoms: CAW_2  and  CAV_4 
REMARK    2  A    between atoms: CAV_4  and  NAU_5 
REMARK       I    between atoms: NAU_5  and  C_6 
REMARK    3  A    between atoms: C_6  and  CA_8 
REMARK    4  A    between atoms: CA_8  and  N_9 
REMARK    5  A    between atoms: CAK_12  and  CAO_13 
ROOT
ATOM      1  N   MOL d         -31.252  -6.417 -12.004  0.00  0.00    -0.340 N 
ATOM      2  CAH MOL d         -30.216  -6.638 -11.173  0.00  0.00     0.020 A 
ATOM      3  CAJ MOL d         -29.341  -7.734 -11.117  0.00  0.00     0.073 C 
ATOM      4  CAK MOL d         -28.128  -7.430 -10.184  0.00  0.00     0.093 C 
ATOM      5  CAL MOL d         -28.612  -6.757  -8.930  0.00  0.00     0.020 C 
ATOM      6  CAM MOL d         -29.197  -5.430  -9.324  0.00  0.00     0.042 C 
ATOM      7  CAI MOL d         -30.154  -5.574 -10.339  0.00  0.00    -0.023 A 
ATOM      8  CAB MOL d         -31.131  -4.724 -10.658  0.00  0.00     0.000 A 
ATOM      9  CAA MOL d         -31.803  -5.252 -11.691  0.00  0.00     0.046 A 
ATOM     10  CAF MOL d         -32.851  -4.622 -12.229  0.00  0.00     0.032 A 
ATOM     11  CAE MOL d         -33.255  -3.407 -11.729  0.00  0.00     0.021 A 
ATOM     12  CAD MOL d         -32.580  -2.847 -10.675  0.00  0.00     0.011 A 
ATOM     13 BR   MOL d         -33.235  -1.214 -10.092  0.00  0.00    -0.051 Br
ATOM     14  CAC MOL d         -31.489  -3.534 -10.132  0.00  0.00     0.033 A 
ENDROOT
BRANCH   1  15
ATOM     15  CA  MOL d         -31.831  -7.233 -13.156  0.00  0.00     0.231 C 
BRANCH  15  16
ATOM     16  C   MOL d         -32.437  -8.492 -12.618  0.00  0.00     0.236 C 
ATOM     17  NAU MOL d         -33.052  -8.480 -11.431  0.00  0.00    -0.350 N 
ATOM     18  H3  MOL d         -33.211  -7.621 -10.944  0.00  0.00     0.163 HD
ATOM     19  O   MOL d         -32.424  -9.493 -13.316  0.00  0.00    -0.272 OA
BRANCH  17  20
ATOM     20  CAV MOL d         -33.489  -9.764 -10.859  0.00  0.00     0.235 C 
BRANCH  20  21
ATOM     21  CAW MOL d         -33.741  -9.643  -9.414  0.00  0.00     0.191 C 
ATOM     22  OAX MOL d         -34.887  -9.900  -8.991  0.00  0.00    -0.647 OA
ATOM     23  OAY MOL d         -32.725  -9.430  -8.725  0.00  0.00    -0.647 OA
ENDBRANCH  20  21
ENDBRANCH  17  20
ENDBRANCH  15  16
ENDBRANCH   1  15
BRANCH   4  24
ATOM     24  CAO MOL d         -27.319  -8.686  -9.782  0.00  0.00     0.177 C 
ATOM     25  OAQ MOL d         -27.869  -9.810  -9.892  0.00  0.00    -0.648 OA
ATOM     26  OAP MOL d         -26.152  -8.483  -9.367  0.00  0.00    -0.648 OA
ENDBRANCH   4  24
TORSDOF 5
