REMARK  7 active torsions:
REMARK  status: ('A' for Active; 'I' for Inactive)
REMARK    1  A    between atoms: P_1  and  O5'_5 
REMARK    2  A    between atoms: O5'_5  and  C5'_6 
REMARK    3  A    between atoms: C5'_6  and  C4'_7 
REMARK    4  A    between atoms: C3'_9  and  O3'_10 
REMARK    5  A    between atoms: C2'_11  and  O2'_12 
REMARK    6  A    between atoms: C1'_13  and  N9_14 
REMARK    7  A    between atoms: C6_18  and  N6_19 
ROOT
ATOM      1  C4' AMP d          32.457   3.139   9.617  0.00  0.00     0.180 C 
ATOM      2  O4' AMP d          32.724   1.921  10.295  0.00  0.00    -0.353 OA
ATOM      3  C3' AMP d          33.785   3.779   9.227  0.00  0.00     0.182 C 
ATOM      4  C2' AMP d          34.756   2.621   9.408  0.00  0.00     0.198 C 
ATOM      5  C1' AMP d          34.110   1.894  10.577  0.00  0.00     0.262 C 
ENDROOT
BRANCH   5   6
ATOM      6  N9  AMP d          34.573   0.495  10.684  0.00  0.00    -0.294 N 
ATOM      7  C8  AMP d          34.801  -0.367   9.658  0.00  0.00     0.214 A 
ATOM      8  N7  AMP d          35.233  -1.562  10.143  0.00  0.00    -0.236 NA
ATOM      9  C5  AMP d          35.276  -1.448  11.497  0.00  0.00     0.149 A 
ATOM     10  C6  AMP d          35.652  -2.327  12.622  0.00  0.00     0.155 A 
ATOM     11  C4  AMP d          34.847  -0.083  11.853  0.00  0.00     0.167 A 
ATOM     12  N1  AMP d          35.569  -1.819  13.885  0.00  0.00    -0.222 NA
ATOM     13  C2  AMP d          35.160  -0.548  14.147  0.00  0.00     0.237 A 
ATOM     14  N3  AMP d          34.801   0.312  13.158  0.00  0.00    -0.222 NA
BRANCH  10  15
ATOM     15  N6  AMP d          36.080  -3.596  12.350  0.00  0.00    -0.382 N 
ATOM     16  H10 AMP d          36.347  -4.226  13.120  0.00  0.00     0.157 HD
ATOM     17  H11 AMP d          36.135  -3.923  11.375  0.00  0.00     0.157 HD
ENDBRANCH  10  15
ENDBRANCH   5   6
BRANCH   4  18
ATOM     18  O2' AMP d          36.107   3.017   9.690  0.00  0.00    -0.388 OA
ATOM     19  H7  AMP d          36.126   3.523  10.494  0.00  0.00     0.210 HD
ENDBRANCH   4  18
BRANCH   1  20
ATOM     20  C5' AMP d          31.593   2.745   8.438  0.00  0.00     0.217 C 
BRANCH  20  21
ATOM     21  O5' AMP d          31.164   3.962   7.872  0.00  0.00    -0.280 OA
BRANCH  21  22
ATOM     22  P   AMP d          29.842   4.054   6.980  0.00  0.00     0.422 P 
ATOM     23  O1P AMP d          29.987   5.436   6.368  0.00  0.00    -0.617 OA
ATOM     24  O2P AMP d          30.009   2.977   5.921  0.00  0.00    -0.617 OA
ATOM     25  O3P AMP d          28.627   3.852   7.892  0.00  0.00    -0.617 OA
ENDBRANCH  21  22
ENDBRANCH  20  21
ENDBRANCH   1  20
BRANCH   3  26
ATOM     26  O3' AMP d          34.109   4.853  10.128  0.00  0.00    -0.390 OA
ATOM     27  H5  AMP d          34.938   5.241   9.872  0.00  0.00     0.210 HD
ENDBRANCH   3  26
TORSDOF 7
