REMARK  5 active torsions:
REMARK  status: ('A' for Active; 'I' for Inactive)
REMARK    1  A    between atoms: C6_3  and  N01_2 
REMARK    2  A    between atoms: N9_10  and  C1'_11 
REMARK    3  A    between atoms: C2'_12  and  O2'_13 
REMARK    4  A    between atoms: C22_22  and  O23_23 
REMARK    5  A    between atoms: C32_32  and  N33_33 
ROOT
ATOM      1  C1' 1SY d         -57.110   2.328  70.193  0.00  0.00     0.262 C 
ATOM      2  C2' 1SY d         -55.817   2.111  70.568  0.00  0.00     0.199 C 
ATOM      3  C3' 1SY d         -55.918   2.707  71.990  0.00  0.00     0.198 C 
ATOM      4  C4' 1SY d         -57.199   2.130  72.538  0.00  0.00     0.180 C 
ATOM      5  C16 1SY d         -57.818   2.862  73.764  0.00  0.00     0.216 C 
ATOM      6  O17 1SY d         -58.052   4.186  73.359  0.00  0.00    -0.287 OA
ATOM      7  P18 1SY d         -58.122   5.324  74.452  0.00  0.00     0.408 P 
ATOM      8  O19 1SY d         -58.285   6.608  73.751  0.00  0.00    -0.624 OA
ATOM      9  O20 1SY d         -56.859   5.549  75.366  0.00  0.00    -0.277 OA
ATOM     10  C21 1SY d         -55.574   5.488  74.853  0.00  0.00     0.215 C 
ATOM     11  C22 1SY d         -54.932   4.445  75.734  0.00  0.00     0.183 C 
ATOM     12  C24 1SY d         -53.508   4.858  75.654  0.00  0.00     0.180 C 
ATOM     13  C25 1SY d         -52.847   3.932  74.638  0.00  0.00     0.216 C 
ATOM     14  O26 1SY d         -53.356   4.209  73.298  0.00  0.00    -0.287 OA
ATOM     15  P27 1SY d         -53.385   2.987  72.328  0.00  0.00     0.408 P 
ATOM     16  O28 1SY d         -54.804   2.185  72.662  0.00  0.00    -0.279 OA
ATOM     17  O29 1SY d         -52.300   2.028  72.805  0.00  0.00    -0.624 OA
ATOM     18  O30 1SY d         -53.281   3.595  70.964  0.00  0.00    -0.624 OA
ATOM     19  O31 1SY d         -53.448   6.269  75.193  0.00  0.00    -0.353 OA
ATOM     20  C32 1SY d         -54.744   6.795  75.009  0.00  0.00     0.263 C 
ATOM     21  O44 1SY d         -59.216   5.085  75.512  0.00  0.00    -0.624 OA
ATOM     22  O4' 1SY d         -57.960   2.255  71.411  0.00  0.00    -0.353 OA
ENDROOT
BRANCH  20  23
ATOM     23  N33 1SY d         -54.531   7.479  73.772  0.00  0.00    -0.295 N 
ATOM     24  C34 1SY d         -53.992   7.088  72.596  0.00  0.00     0.214 A 
ATOM     25  N35 1SY d         -54.060   8.110  71.750  0.00  0.00    -0.234 NA
ATOM     26  C37 1SY d         -54.619   9.117  72.382  0.00  0.00     0.171 A 
ATOM     27  C36 1SY d         -54.880   8.713  73.643  0.00  0.00     0.161 A 
ATOM     28  C38 1SY d         -54.891  10.359  72.014  0.00  0.00     0.292 A 
ATOM     29  N42 1SY d         -55.438   9.470  74.603  0.00  0.00    -0.174 N 
ATOM     30  C40 1SY d         -55.733  10.697  74.264  0.00  0.00     0.680 A 
ATOM     31  H23 1SY d         -55.622   9.105  75.549  0.00  0.00     0.186 HD
ATOM     32  N39 1SY d         -55.469  11.145  72.953  0.00  0.00    -0.154 N 
ATOM     33  N41 1SY d         -56.291  11.397  75.241  0.00  0.00    -0.234 N 
ATOM     34  H20 1SY d         -55.719  12.082  72.707  0.00  0.00     0.187 HD
ATOM     35  H21 1SY d         -56.437  10.966  76.165  0.00  0.00     0.174 HD
ATOM     36  H22 1SY d         -56.579  12.372  75.076  0.00  0.00     0.174 HD
ATOM     37  O43 1SY d         -54.653  10.818  70.884  0.00  0.00    -0.265 OA
ENDBRANCH  20  23
BRANCH  11  38
ATOM     38  O23 1SY d         -55.431   4.324  77.202  0.00  0.00    -0.390 OA
ATOM     39  H14 1SY d         -56.358   4.114  77.204  0.00  0.00     0.210 HD
ENDBRANCH  11  38
BRANCH   2  40
ATOM     40  O2' 1SY d         -55.515   0.587  70.531  0.00  0.00    -0.388 OA
ATOM     41  H7  1SY d         -54.614   0.437  70.792  0.00  0.00     0.210 HD
ENDBRANCH   2  40
BRANCH   1  42
ATOM     42  N9  1SY d         -57.222   3.625  69.731  0.00  0.00    -0.294 N 
ATOM     43  C4  1SY d         -56.751   3.735  68.517  0.00  0.00     0.167 A 
ATOM     44  N3  1SY d         -56.223   2.777  67.733  0.00  0.00    -0.222 NA
ATOM     45  C5  1SY d         -56.866   5.002  68.148  0.00  0.00     0.149 A 
ATOM     46  C2  1SY d         -55.822   3.181  66.503  0.00  0.00     0.237 A 
ATOM     47  N1  1SY d         -55.977   4.506  66.130  0.00  0.00    -0.222 NA
ATOM     48  C6  1SY d         -56.502   5.385  66.938  0.00  0.00     0.155 A 
ATOM     49  N7  1SY d         -57.421   5.654  69.152  0.00  0.00    -0.236 NA
ATOM     50  C8  1SY d         -57.640   4.814  70.156  0.00  0.00     0.214 A 
BRANCH  48  51
ATOM     51  N01 1SY d         -56.646   6.675  66.598  0.00  0.00    -0.382 N 
ATOM     52  H2  1SY d         -57.066   7.339  67.264  0.00  0.00     0.157 HD
ATOM     53  H3  1SY d         -56.337   7.001  65.671  0.00  0.00     0.157 HD
ENDBRANCH  48  51
ENDBRANCH   1  42
TORSDOF 5
