4jc1_ligand

Created by X-TOOL on Fri Sep 26 17:34:58 2014
 45 46  0  0  0  0  0  0  0  0999 V2000
   20.3840   -9.1480   -1.2640  C 0  0  0  2  0  4
   21.2480  -10.5150   -0.5590  S 0  0  0  1  0  2
   18.8880   -9.4560   -1.3300  C 0  0  0  2  0  4
   18.6590  -10.4670   -2.3230  O 0  0  0  2  0  2
   18.0830   -8.2120   -1.6950  C 0  0  0  2  0  4
   16.6850   -8.4720   -1.5530  O 0  0  0  2  0  2
   18.4710   -7.0330   -0.8120  C 0  0  0  2  0  4
   18.0680   -7.2750    0.5410  O 0  0  0  2  0  2
   19.9750   -6.8130   -0.8540  C 0  0  0  2  0  4
   20.6450   -8.0100   -0.4450  O 0  0  0  1  0  2
   20.3900   -5.6800    0.0840  C 0  0  0  3  0  4
   21.7910   -5.4540   -0.0780  O 0  0  0  2  0  2
   22.9230  -10.0070   -0.7810  C 0  0  0  2  0  4
   23.7190  -10.3150    0.4840  C 0  0  0  2  0  4
   23.2370   -9.5930    1.6260  O 0  0  0  2  0  2
   25.1880   -9.9630    0.2870  C 0  0  0  2  0  4
   25.9330  -10.3870    1.4350  O 0  0  0  2  0  2
   25.7240  -10.6420   -0.9660  C 0  0  0  2  0  4
   25.7740  -12.0620   -0.7610  O 0  0  0  2  0  2
   24.8360  -10.3230   -2.1640  C 0  0  0  2  0  4
   23.4970  -10.7220   -1.8840  O 0  0  0  1  0  2
   25.3180  -11.0470   -3.4220  C 0  0  0  3  0  4
   24.7140  -10.4810   -4.5920  O 0  0  0  2  0  2
   20.7550   -8.9591   -2.2821  H 0  0  0  1  0  1
   18.5545   -9.8240   -0.3485  H 0  0  0  1  0  1
   17.7301  -10.6613   -2.3671  H 0  0  0  1  0  1
   18.2930   -7.9529   -2.7432  H 0  0  0  1  0  1
   16.4984   -8.7116   -0.6528  H 0  0  0  1  0  1
   17.9650   -6.1292   -1.1823  H 0  0  0  1  0  1
   17.1258   -7.3918    0.5735  H 0  0  0  1  0  1
   20.2716   -6.5587   -1.8823  H 0  0  0  1  0  1
   20.1769   -5.9625    1.1255  H 0  0  0  1  0  1
   19.8340   -4.7652   -0.1690  H 0  0  0  1  0  1
   22.2658   -6.2477    0.1390  H 0  0  0  1  0  1
   22.9562   -8.9265   -0.9842  H 0  0  0  1  0  1
   23.6332  -11.3924    0.6886  H 0  0  0  1  0  1
   23.7619   -9.8170    2.3855  H 0  0  0  1  0  1
   25.2869   -8.8733    0.1743  H 0  0  0  1  0  1
   25.8415  -11.3266    1.5412  H 0  0  0  1  0  1
   26.7402  -10.2717   -1.1665  H 0  0  0  1  0  1
   26.3462  -12.2550   -0.0276  H 0  0  0  1  0  1
   24.8613   -9.2383   -2.3452  H 0  0  0  1  0  1
   25.0464  -12.1107   -3.3535  H 0  0  0  1  0  1
   26.4113  -10.9518   -3.4975  H 0  0  0  1  0  1
   25.0246  -10.9425   -5.3621  H 0  0  0  1  0  1
  1  2  1  0  0  2
  1  3  1  0  0  1
  1 10  1  0  0  1
  2 13  1  0  0  2
  3  4  1  0  0  2
  3  5  1  0  0  1
  5  6  1  0  0  2
  5  7  1  0  0  1
  7  8  1  0  0  2
  7  9  1  0  0  1
  9 10  1  0  0  1
  9 11  1  0  0  2
 11 12  1  0  0  2
 13 14  1  0  0  1
 13 21  1  0  0  1
 14 15  1  0  0  2
 14 16  1  0  0  1
 16 17  1  0  0  2
 16 18  1  0  0  1
 18 19  1  0  0  2
 18 20  1  0  0  1
 20 21  1  0  0  1
 20 22  1  0  0  2
 22 23  1  0  0  2
  1 24  1  0  0  2
  3 25  1  0  0  2
  4 26  1  0  0  2
  5 27  1  0  0  2
  6 28  1  0  0  2
  7 29  1  0  0  2
  8 30  1  0  0  2
  9 31  1  0  0  2
 11 32  1  0  0  2
 11 33  1  0  0  2
 12 34  1  0  0  2
 13 35  1  0  0  2
 14 36  1  0  0  2
 15 37  1  0  0  2
 16 38  1  0  0  2
 17 39  1  0  0  2
 18 40  1  0  0  2
 19 41  1  0  0  2
 20 42  1  0  0  2
 22 43  1  0  0  2
 22 44  1  0  0  2
 23 45  1  0  0  2
M  END
> <MOLECULAR_FORMULA>
C12H22O10S

> <MOLECULAR_WEIGHT>
358.2

> <NUM_HB_ATOMS>
11 

> <NUM_ROTOR>
4  

> <XLOGP2>
-3.55

$$$$
