REMARK  12 active torsions:
REMARK  status: ('A' for Active; 'I' for Inactive)
REMARK    1  A    between atoms: C1_1  and  S1_2 
REMARK    2  A    between atoms: S1_2  and  C1'_13 
REMARK    3  A    between atoms: C2_3  and  O2_4 
REMARK    4  A    between atoms: C3_5  and  O3_6 
REMARK    5  A    between atoms: C4_7  and  O4_8 
REMARK    6  A    between atoms: C5_9  and  C6_11 
REMARK    7  A    between atoms: C6_11  and  O6_12 
REMARK    8  A    between atoms: C2'_14  and  O2'_15 
REMARK    9  A    between atoms: C3'_16  and  O3'_17 
REMARK   10  A    between atoms: C4'_18  and  O4'_19 
REMARK   11  A    between atoms: C5'_20  and  C6'_22 
REMARK   12  A    between atoms: C6'_22  and  O6'_23 
ROOT
ATOM      1  S1  TDG d          21.248 -10.515  -0.559  0.00  0.00    -0.100 SA
ENDROOT
BRANCH   1   2
ATOM      2  C1  TDG d          20.384  -9.148  -1.264  0.00  0.00     0.217 C 
ATOM      3  C2  TDG d          18.888  -9.456  -1.330  0.00  0.00     0.188 C 
ATOM      4  C3  TDG d          18.083  -8.212  -1.695  0.00  0.00     0.181 C 
ATOM      5  C4  TDG d          18.471  -7.033  -0.812  0.00  0.00     0.180 C 
ATOM      6  C5  TDG d          19.975  -6.813  -0.854  0.00  0.00     0.178 C 
ATOM      7  O5  TDG d          20.645  -8.010  -0.445  0.00  0.00    -0.363 OA
BRANCH   3   8
ATOM      8  O2  TDG d          18.659 -10.467  -2.323  0.00  0.00    -0.389 OA
ATOM      9  H3  TDG d          17.730 -10.661  -2.367  0.00  0.00     0.210 HD
ENDBRANCH   3   8
BRANCH   4  10
ATOM     10  O3  TDG d          16.685  -8.472  -1.553  0.00  0.00    -0.390 OA
ATOM     11  H5  TDG d          16.498  -8.712  -0.653  0.00  0.00     0.210 HD
ENDBRANCH   4  10
BRANCH   5  12
ATOM     12  O4  TDG d          18.068  -7.275   0.541  0.00  0.00    -0.390 OA
ATOM     13  H7  TDG d          17.126  -7.392   0.574  0.00  0.00     0.210 HD
ENDBRANCH   5  12
BRANCH   6  14
ATOM     14  C6  TDG d          20.390  -5.680   0.084  0.00  0.00     0.198 C 
BRANCH  14  15
ATOM     15  O6  TDG d          21.791  -5.454  -0.078  0.00  0.00    -0.398 OA
ATOM     16  H11 TDG d          22.266  -6.248   0.139  0.00  0.00     0.209 HD
ENDBRANCH  14  15
ENDBRANCH   6  14
ENDBRANCH   1   2
BRANCH   1  17
ATOM     17  C1' TDG d          22.923 -10.007  -0.781  0.00  0.00     0.217 C 
ATOM     18  C2' TDG d          23.719 -10.315   0.484  0.00  0.00     0.188 C 
ATOM     19  C3' TDG d          25.188  -9.963   0.287  0.00  0.00     0.181 C 
ATOM     20  C4' TDG d          25.724 -10.642  -0.966  0.00  0.00     0.180 C 
ATOM     21  C5' TDG d          24.836 -10.323  -2.164  0.00  0.00     0.178 C 
ATOM     22  O5' TDG d          23.497 -10.722  -1.884  0.00  0.00    -0.363 OA
BRANCH  18  23
ATOM     23  O2' TDG d          23.237  -9.593   1.626  0.00  0.00    -0.389 OA
ATOM     24  H14 TDG d          23.762  -9.817   2.385  0.00  0.00     0.210 HD
ENDBRANCH  18  23
BRANCH  19  25
ATOM     25  O3' TDG d          25.933 -10.387   1.435  0.00  0.00    -0.390 OA
ATOM     26  H16 TDG d          25.841 -11.327   1.541  0.00  0.00     0.210 HD
ENDBRANCH  19  25
BRANCH  20  27
ATOM     27  O4' TDG d          25.774 -12.062  -0.761  0.00  0.00    -0.390 OA
ATOM     28  H18 TDG d          26.346 -12.255  -0.028  0.00  0.00     0.210 HD
ENDBRANCH  20  27
BRANCH  21  29
ATOM     29  C6' TDG d          25.318 -11.047  -3.422  0.00  0.00     0.198 C 
BRANCH  29  30
ATOM     30  O6' TDG d          24.714 -10.481  -4.592  0.00  0.00    -0.398 OA
ATOM     31  H22 TDG d          25.025 -10.943  -5.362  0.00  0.00     0.209 HD
ENDBRANCH  29  30
ENDBRANCH  21  29
ENDBRANCH   1  17
TORSDOF 12
