REMARK  14 active torsions:
REMARK  status: ('A' for Active; 'I' for Inactive)
REMARK    1  A    between atoms: CBD_3  and  OAI_4 
REMARK    2  A    between atoms: CBF_7  and  CAV_8 
REMARK    3  A    between atoms: CAV_8  and  CBI_9 
REMARK    4  A    between atoms: CBI_9  and  PBK_10 
REMARK    5  A    between atoms: CBI_9  and  NAY_14 
REMARK       I    between atoms: NAY_14  and  C_15 
REMARK    6  A    between atoms: C_15  and  CA_17 
REMARK    7  A    between atoms: CA_17  and  N_18 
REMARK    8  A    between atoms: CA_17  and  CB_30 
REMARK       I    between atoms: N_18  and  CBB_19 
REMARK    9  A    between atoms: CBB_19  and  CBJ_21 
REMARK   10  A    between atoms: CBJ_21  and  CBG_22 
REMARK   11  A    between atoms: CBJ_21  and  NAX_26 
REMARK   12  A    between atoms: CBG_22  and  CAT_24 
REMARK       I    between atoms: NAX_26  and  CAZ_27 
REMARK   13  A    between atoms: CB_30  and  CG_31 
REMARK   14  A    between atoms: CZ_34  and  OH_35 
ROOT
ATOM      1  CA  K26 d         -10.121  23.121 -13.127  0.00  0.00     0.180 C 
ENDROOT
BRANCH   1   2
ATOM      2  C   K26 d         -10.948  22.761 -11.890  0.00  0.00     0.241 C 
ATOM      3  NAY K26 d         -12.132  23.372 -11.798  0.00  0.00    -0.342 N 
ATOM      4  H9  K26 d         -12.440  23.945 -12.557  0.00  0.00     0.163 HD
ATOM      5  O   K26 d         -10.487  21.987 -11.050  0.00  0.00    -0.271 OA
BRANCH   3   6
ATOM      6  CBI K26 d         -13.000  23.231 -10.617  0.00  0.00     0.219 C 
BRANCH   6   7
ATOM      7  CAV K26 d         -13.085  24.610  -9.923  0.00  0.00     0.078 C 
BRANCH   7   8
ATOM      8  CBF K26 d         -11.692  25.221  -9.702  0.00  0.00    -0.055 A 
ATOM      9  CAR K26 d         -11.004  24.947  -8.522  0.00  0.00     0.010 A 
ATOM     10  CAN K26 d          -9.736  25.480  -8.306  0.00  0.00     0.037 A 
ATOM     11  CBD K26 d          -9.148  26.292  -9.276  0.00  0.00     0.065 A 
ATOM     12  CAO K26 d          -9.824  26.567 -10.469  0.00  0.00     0.037 A 
ATOM     13  CAS K26 d         -11.096  26.033 -10.677  0.00  0.00     0.010 A 
BRANCH  11  14
ATOM     14  OAI K26 d          -7.909  26.807  -9.049  0.00  0.00    -0.361 OA
ATOM     15  H3  K26 d          -7.645  27.334  -9.794  0.00  0.00     0.217 HD
ENDBRANCH  11  14
ENDBRANCH   7   8
ENDBRANCH   6   7
BRANCH   6  16
ATOM     16  PBK K26 d         -14.658  22.583 -11.094  0.00  0.00     0.283 P 
ATOM     17  OAJ K26 d         -14.455  21.038 -11.373  0.00  0.00    -0.638 OA
ATOM     18  OAK K26 d         -15.533  22.739  -9.726  0.00  0.00    -0.638 OA
ATOM     19  OAG K26 d         -15.253  23.291 -12.259  0.00  0.00    -0.638 OA
ENDBRANCH   6  16
ENDBRANCH   3   6
ENDBRANCH   1   2
BRANCH   1  20
ATOM     20  N   K26 d          -8.688  22.953 -12.810  0.00  0.00    -0.346 N 
ATOM     21  CBB K26 d          -7.793  23.949 -12.816  0.00  0.00     0.241 C 
ATOM     22  OAF K26 d          -8.045  25.118 -13.111  0.00  0.00    -0.271 OA
ATOM     23  H11 K26 d          -8.365  22.036 -12.576  0.00  0.00     0.163 HD
BRANCH  21  24
ATOM     24  CBJ K26 d          -6.351  23.514 -12.501  0.00  0.00     0.180 C 
BRANCH  24  25
ATOM     25  CBG K26 d          -5.785  24.195 -11.249  0.00  0.00     0.013 C 
ATOM     26  CAC K26 d          -6.595  23.779 -10.015  0.00  0.00     0.012 C 
BRANCH  25  27
ATOM     27  CAT K26 d          -4.302  23.840 -11.053  0.00  0.00     0.002 C 
ATOM     28  CAA K26 d          -3.527  24.935 -10.321  0.00  0.00     0.005 C 
ENDBRANCH  25  27
ENDBRANCH  24  25
BRANCH  24  29
ATOM     29  NAX K26 d          -5.549  23.805 -13.706  0.00  0.00    -0.348 N 
ATOM     30  CAZ K26 d          -4.852  22.860 -14.340  0.00  0.00     0.214 C 
ATOM     31  CAB K26 d          -4.114  23.323 -15.598  0.00  0.00     0.117 C 
ATOM     32  OAD K26 d          -4.759  21.695 -13.958  0.00  0.00    -0.274 OA
ATOM     33  H22 K26 d          -5.527  24.741 -14.059  0.00  0.00     0.163 HD
ENDBRANCH  24  29
ENDBRANCH  21  24
ENDBRANCH   1  20
BRANCH   1  34
ATOM     34  CB  K26 d         -10.478  22.255 -14.328  0.00  0.00     0.073 C 
BRANCH  34  35
ATOM     35  CG  K26 d          -9.848  22.870 -15.588  0.00  0.00    -0.056 A 
ATOM     36  CD1 K26 d         -10.621  23.658 -16.438  0.00  0.00     0.010 A 
ATOM     37  CE1 K26 d         -10.049  24.233 -17.576  0.00  0.00     0.037 A 
ATOM     38  CZ  K26 d          -8.700  24.022 -17.865  0.00  0.00     0.065 A 
ATOM     39  CE2 K26 d          -7.926  23.238 -17.010  0.00  0.00     0.037 A 
ATOM     40  CD2 K26 d          -8.496  22.666 -15.870  0.00  0.00     0.010 A 
BRANCH  38  41
ATOM     41  OH  K26 d          -8.146  24.577 -18.986  0.00  0.00    -0.361 OA
ATOM     42  H30 K26 d          -7.228  24.339 -19.035  0.00  0.00     0.217 HD
ENDBRANCH  38  41
ENDBRANCH  34  35
ENDBRANCH   1  34
TORSDOF 14
