REMARK  7 active torsions:
REMARK  status: ('A' for Active; 'I' for Inactive)
REMARK    1  A    between atoms: N1_1  and  C1'_9 
REMARK    2  A    between atoms: C3'_11  and  O3'_14 
REMARK    3  A    between atoms: C4'_12  and  C5'_15 
REMARK    4  A    between atoms: C5'_15  and  O5'_16 
REMARK    5  A    between atoms: O5'_16  and  PA_17 
REMARK    6  A    between atoms: PA_17  and  O3A_20 
REMARK    7  A    between atoms: O3A_20  and  PB_21 
ROOT
ATOM      1  C1' DUD d          -6.323  36.296  33.862  0.00  0.00     0.235 C 
ATOM      2  C2' DUD d          -6.436  36.871  35.262  0.00  0.00     0.088 C 
ATOM      3  C3' DUD d          -7.780  37.550  35.338  0.00  0.00     0.153 C 
ATOM      4  C4' DUD d          -8.616  36.848  34.266  0.00  0.00     0.177 C 
ATOM      5  O4' DUD d          -7.652  36.397  33.270  0.00  0.00    -0.356 OA
ENDROOT
BRANCH   4   6
ATOM      6  C5' DUD d          -9.626  37.825  33.648  0.00  0.00     0.216 C 
BRANCH   6   7
ATOM      7  O5' DUD d          -8.981  39.036  33.133  0.00  0.00    -0.287 OA
BRANCH   7   8
ATOM      8  PA  DUD d          -9.654  40.501  32.969  0.00  0.00     0.418 P 
ATOM      9  O2A DUD d          -8.616  41.583  32.871  0.00  0.00    -0.624 OA
ATOM     10  O1A DUD d         -10.720  40.615  33.984  0.00  0.00    -0.624 OA
BRANCH   8  11
ATOM     11  O3A DUD d         -10.462  40.534  31.567  0.00  0.00    -0.173 OA
BRANCH  11  12
ATOM     12  PB  DUD d         -11.752  39.794  30.900  0.00  0.00     0.431 P 
ATOM     13  O3B DUD d         -13.012  40.001  31.978  0.00  0.00    -0.616 OA
ATOM     14  O2B DUD d         -12.048  40.625  29.709  0.00  0.00    -0.616 OA
ATOM     15  O1B DUD d         -11.491  38.339  30.707  0.00  0.00    -0.616 OA
ENDBRANCH  11  12
ENDBRANCH   8  11
ENDBRANCH   7   8
ENDBRANCH   6   7
ENDBRANCH   4   6
BRANCH   3  16
ATOM     16  O3' DUD d          -8.352  37.317  36.609  0.00  0.00    -0.393 OA
ATOM     17  H9  DUD d          -9.199  37.745  36.657  0.00  0.00     0.210 HD
ENDBRANCH   3  16
BRANCH   1  18
ATOM     18  N1  DUD d          -5.345  37.056  33.000  0.00  0.00    -0.282 N 
ATOM     19  C6  DUD d          -5.534  38.397  32.783  0.00  0.00     0.104 A 
ATOM     20  C5  DUD d          -4.686  39.098  32.009  0.00  0.00     0.092 A 
ATOM     21  C4  DUD d          -3.556  38.480  31.405  0.00  0.00     0.250 A 
ATOM     22  N3  DUD d          -3.411  37.132  31.702  0.00  0.00    -0.275 N 
ATOM     23  O4  DUD d          -2.697  39.053  30.745  0.00  0.00    -0.268 OA
ATOM     24  C2  DUD d          -4.265  36.395  32.454  0.00  0.00     0.331 A 
ATOM     25  H1  DUD d          -2.609  36.665  31.330  0.00  0.00     0.173 HD
ATOM     26  O2  DUD d          -4.026  35.187  32.625  0.00  0.00    -0.246 OA
ENDBRANCH   1  18
TORSDOF 7
