3t1l_ligand

Created by X-TOOL on Fri Sep 26 17:34:50 2014
 47 48  0  0  0  0  0  0  0  0999 V2000
   20.5750   -8.7620   -1.5340  C 0  0  0  2  0  4
   21.5150   -9.8170   -1.3540  O 0  0  0  1  0  2
   19.1550   -9.2830   -1.3740  C 0  0  0  2  0  4
   19.0100   -9.8730   -0.0790  O 0  0  0  1  0  2
   18.1500   -8.1480   -1.5300  C 0  0  0  2  0  4
   16.8560   -8.6510   -1.1850  O 0  0  0  1  0  2
   18.5060   -6.9590   -0.6360  C 0  0  0  2  0  4
   18.1620   -7.2740    0.7170  O 0  0  0  2  0  2
   19.9900   -6.5950   -0.7610  C 0  0  0  2  0  4
   20.8010   -7.7520   -0.5550  O 0  0  0  1  0  2
   20.4420   -5.5190    0.2280  C 0  0  0  3  0  4
   21.8600   -5.3220    0.0940  O 0  0  0  2  0  2
   15.8780   -7.3990   -2.8880  O 0  0  0  1  0  1
   15.7420   -8.2700   -2.0440  C 0  0  0  1  0  3
   14.4220   -8.9660   -1.8660  C 0  0  0  1  0  3
   14.3730  -10.2320   -1.2830  C 0  0  0  2  0  3
   13.1490  -10.8770   -1.1130  C 0  0  0  2  0  3
   11.9730  -10.2600   -1.5250  C 0  0  0  1  0  3
   10.6520  -10.9590   -1.3430  C 0  0  0  4  0  4
   12.0200   -8.9960   -2.1050  C 0  0  0  2  0  3
   13.2410   -8.3500   -2.2750  C 0  0  0  2  0  3
   18.4360  -11.2120   -0.0370  C 0  0  0  1  0  3
   18.1700  -11.8890   -1.1520  O 0  0  0  1  0  1
   18.1770  -11.7650    1.1360  C 0  0  0  4  0  4
   22.8310   -9.4080   -1.7260  C 0  0  0  4  0  4
   20.6971   -8.3350   -2.5404  H 0  0  0  1  0  1
   18.9612  -10.0438   -2.1445  H 0  0  0  1  0  1
   18.1445   -7.8129   -2.5777  H 0  0  0  1  0  1
   17.9121   -6.0900   -0.9555  H 0  0  0  1  0  1
   18.6475   -8.0416    0.9955  H 0  0  0  1  0  1
   20.1590   -6.2181   -1.7805  H 0  0  0  1  0  1
   20.2103   -5.8411    1.2539  H 0  0  0  1  0  1
   19.9173   -4.5766    0.0122  H 0  0  0  1  0  1
   22.3108   -6.1373    0.2800  H 0  0  0  1  0  1
   15.2885  -10.7153   -0.9615  H 0  0  0  1  0  1
   13.1139  -11.8608   -0.6591  H 0  0  0  1  0  1
    9.8430  -10.3196   -1.7260  H 0  0  0  1  0  1
   10.4868  -11.1583   -0.2739  H 0  0  0  1  0  1
   10.6609  -11.9097   -1.8962  H 0  0  0  1  0  1
   11.1036   -8.5134   -2.4251  H 0  0  0  1  0  1
   13.2733   -7.3651   -2.7267  H 0  0  0  1  0  1
   17.7508  -12.7674    0.9827  H 0  0  0  1  0  1
   17.4568  -11.1404    1.6848  H 0  0  0  1  0  1
   19.1079  -11.8472    1.7162  H 0  0  0  1  0  1
   23.5308  -10.2432   -1.5755  H 0  0  0  1  0  1
   23.1394   -8.5547   -1.1040  H 0  0  0  1  0  1
   22.8370   -9.1109   -2.7851  H 0  0  0  1  0  1
  1  2  1  0  0  2
  1  3  1  0  0  1
  1 10  1  0  0  1
  2 25  1  0  0  2
  3  4  1  0  0  2
  3  5  1  0  0  1
  4 22  1  0  0  2
  5  6  1  0  0  2
  5  7  1  0  0  1
  6 14  1  0  0  2
  7  8  1  0  0  2
  7  9  1  0  0  1
  9 10  1  0  0  1
  9 11  1  0  0  2
 11 12  1  0  0  2
 14 13  2  0  0  2
 14 15  1  0  0  2
 15 16  4  0  0  1
 15 21  4  0  0  1
 16 17  4  0  0  1
 17 18  4  0  0  1
 18 19  1  0  0  2
 18 20  4  0  0  1
 20 21  4  0  0  1
 22 23  2  0  0  2
 22 24  1  0  0  2
  1 26  1  0  0  2
  3 27  1  0  0  2
  5 28  1  0  0  2
  7 29  1  0  0  2
  8 30  1  0  0  2
  9 31  1  0  0  2
 11 32  1  0  0  2
 11 33  1  0  0  2
 12 34  1  0  0  2
 16 35  1  0  0  2
 17 36  1  0  0  2
 19 37  1  0  0  2
 19 38  1  0  0  2
 19 39  1  0  0  2
 20 40  1  0  0  2
 21 41  1  0  0  2
 24 42  1  0  0  2
 24 43  1  0  0  2
 24 44  1  0  0  2
 25 45  1  0  0  2
 25 46  1  0  0  2
 25 47  1  0  0  2
M  END
> <MOLECULAR_FORMULA>
C17H22O8

> <MOLECULAR_WEIGHT>
354.2

> <NUM_HB_ATOMS>
8  

> <NUM_ROTOR>
6  

> <XLOGP2>
1.06 

$$$$
