REMARK  8 active torsions:
REMARK  status: ('A' for Active; 'I' for Inactive)
REMARK    1  A    between atoms: O4_20  and  C1_1 
REMARK    2  A    between atoms: C2_2  and  O2_6 
REMARK    3  A    between atoms: C3_3  and  O3_7 
REMARK    4  A    between atoms: C4_4  and  O4_8 
REMARK    5  A    between atoms: C2_11  and  O2_18 
REMARK    6  A    between atoms: C3_12  and  O3_19 
REMARK    7  A    between atoms: O4_20  and  C4_13 
REMARK    8  A    between atoms: N2_17  and  O22_16 
ROOT
ATOM      1  C1  MOL d          20.284  68.092  35.637  0.00  0.00     0.158 C 
ATOM      2  C2  MOL d          20.108  68.945  36.963  0.00  0.00     0.220 C 
ATOM      3  C3  MOL d          19.776  67.994  38.189  0.00  0.00     0.185 C 
ATOM      4  C4  MOL d          18.768  66.901  37.782  0.00  0.00     0.174 C 
ATOM      5  C5  MOL d          19.432  65.906  36.785  0.00  0.00     0.155 C 
ATOM      6  N1  MOL d          19.932  66.724  35.637  0.00  0.00    -0.372 N 
ATOM      7  N2  MOL d          20.774  68.606  34.516  0.00  0.00    -0.120 NA
ATOM      8  H15 MOL d          20.032  66.231  34.738  0.00  0.00     0.161 HD
ENDROOT
BRANCH   4   9
ATOM      9  O4  MOL d          18.366  66.161  38.928  0.00  0.00    -0.349 OA
BRANCH   9  10
ATOM     10  C1  MOL d          17.024  65.654  38.772  0.00  0.00     0.291 C 
ATOM     11  O5  MOL d          16.109  66.756  38.864  0.00  0.00    -0.356 OA
ATOM     12  C5  MOL d          14.730  66.348  38.716  0.00  0.00     0.205 C 
ATOM     13  C4  MOL d          14.345  65.382  39.841  0.00  0.00     0.173 C 
ATOM     14  C3  MOL d          15.293  64.180  39.851  0.00  0.00     0.182 C 
ATOM     15  C2  MOL d          16.750  64.645  39.889  0.00  0.00     0.204 C 
BRANCH  13  16
ATOM     16  O4  MOL d          13.008  64.933  39.655  0.00  0.00    -0.391 OA
ATOM     17  H9  MOL d          12.770  64.348  40.365  0.00  0.00     0.210 HD
ENDBRANCH  13  16
BRANCH  14  18
ATOM     18  O3  MOL d          15.025  63.377  40.991  0.00  0.00    -0.390 OA
ATOM     19  H8  MOL d          14.120  63.088  40.968  0.00  0.00     0.210 HD
ENDBRANCH  14  18
BRANCH  15  20
ATOM     20  O2  MOL d          17.614  63.528  39.734  0.00  0.00    -0.388 OA
ATOM     21  H7  MOL d          18.517  63.819  39.781  0.00  0.00     0.210 HD
ENDBRANCH  15  20
ENDBRANCH   9  10
ENDBRANCH   4   9
BRANCH   3  22
ATOM     22  O3  MOL d          19.228  68.749  39.279  0.00  0.00    -0.390 OA
ATOM     23  H18 MOL d          19.036  68.164  40.003  0.00  0.00     0.210 HD
ENDBRANCH   3  22
BRANCH   2  24
ATOM     24  O2  MOL d          21.212  69.745  37.252  0.00  0.00    -0.385 OA
ATOM     25  H17 MOL d          21.049  70.230  38.053  0.00  0.00     0.210 HD
ENDBRANCH   2  24
BRANCH   7  26
ATOM     26  O22 MOL d          20.896  67.693  33.538  0.00  0.00    -0.265 OA
ATOM     27  H16 MOL d          21.482  67.002  33.823  0.00  0.00     0.247 HD
ENDBRANCH   7  26
TORSDOF 8
