REMARK  6 active torsions:
REMARK  status: ('A' for Active; 'I' for Inactive)
REMARK    1  A    between atoms: C20_6  and  C17_7 
REMARK    2  A    between atoms: C4_11  and  C1_12 
REMARK    3  A    between atoms: N12_24  and  C19_25 
REMARK    4  A    between atoms: C19_25  and  C21_26 
REMARK    5  A    between atoms: C21_26  and  C23_27 
REMARK    6  A    between atoms: C23_27  and  N29_28 
ROOT
ATOM      1  C1  Y5H d          -2.078  12.696  22.451  0.00  0.00     0.256 C 
ATOM      2  N3  Y5H d          -3.075  13.706  22.008  0.00  0.00    -0.055 N 
ATOM      3  C7  Y5H d          -2.785  13.859  20.572  0.00  0.00     0.203 C 
ATOM      4  C14 Y5H d          -1.569  14.800  20.506  0.00  0.00     0.036 C 
ATOM      5  C15 Y5H d          -1.736  15.683  21.754  0.00  0.00     0.030 C 
ATOM      6  C8  Y5H d          -2.855  15.049  22.602  0.00  0.00     0.236 C 
ATOM      7  C5  Y5H d          -2.524  12.458  20.029  0.00  0.00     0.124 A 
ATOM      8  C2  Y5H d          -2.130  11.645  21.291  0.00  0.00     0.130 A 
ATOM      9  C6  Y5H d          -3.234  10.600  21.373  0.00  0.00     0.234 A 
ATOM     10  O13 Y5H d          -3.355   9.693  22.179  0.00  0.00    -0.272 OA
ATOM     11  C11 Y5H d          -3.795  11.835  19.511  0.00  0.00     0.233 A 
ATOM     12  O18 Y5H d          -4.458  12.126  18.515  0.00  0.00    -0.272 OA
ATOM     13  N12 Y5H d          -4.198  10.794  20.370  0.00  0.00    -0.288 N 
ATOM     14  H5  Y5H d          -4.016  13.389  22.184  0.00  0.00     0.281 HD
ENDROOT
BRANCH   1  15
ATOM     15  C4  Y5H d          -2.421  12.054  23.771  0.00  0.00     0.091 A 
ATOM     16  N16 Y5H d          -1.737  10.983  24.300  0.00  0.00    -0.224 NA
ATOM     17  C17 Y5H d          -2.326  10.758  25.457  0.00  0.00     0.186 A 
ATOM     18  O10 Y5H d          -3.417  11.532  25.686  0.00  0.00    -0.301 OA
ATOM     19  C9  Y5H d          -3.424  12.380  24.590  0.00  0.00     0.173 A 
BRANCH  17  20
ATOM     20  C20 Y5H d          -2.092   9.655  26.377  0.00  0.00     0.059 A 
ATOM     21  C22 Y5H d          -2.859   9.298  27.480  0.00  0.00     0.025 A 
ATOM     22  C24 Y5H d          -2.444   8.089  28.085  0.00  0.00     0.033 A 
ATOM     23  C25 Y5H d          -1.413   7.520  27.383  0.00  0.00     0.075 A 
ATOM     24 CL1  Y5H d          -0.603   6.004  27.714  0.00  0.00    -0.076 Cl
ATOM     25  S1  Y5H d          -0.857   8.483  26.044  0.00  0.00    -0.074 SA
ENDBRANCH  17  20
ENDBRANCH   1  15
BRANCH  13  26
ATOM     26  C19 Y5H d          -5.387   9.943  20.203  0.00  0.00     0.137 C 
BRANCH  26  27
ATOM     27  C21 Y5H d          -5.123   8.851  19.157  0.00  0.00     0.048 C 
BRANCH  27  28
ATOM     28  C23 Y5H d          -6.375   7.954  19.209  0.00  0.00     0.237 C 
BRANCH  28  29
ATOM     29  N29 Y5H d          -6.366   6.830  18.192  0.00  0.00    -0.079 N 
ATOM     30  C32 Y5H d          -6.317   7.398  16.802  0.00  0.00     0.271 C 
ATOM     31  C31 Y5H d          -7.696   6.127  18.335  0.00  0.00     0.271 C 
ATOM     32  C30 Y5H d          -5.235   5.877  18.381  0.00  0.00     0.271 C 
ENDBRANCH  28  29
ENDBRANCH  27  28
ENDBRANCH  26  27
ENDBRANCH  13  26
TORSDOF 6
