REMARK  6 active torsions:
REMARK  status: ('A' for Active; 'I' for Inactive)
REMARK    1  A    between atoms: C5_5  and  N36_36 
REMARK    2  A    between atoms: C14_14  and  N8_8 
REMARK    3  A    between atoms: N32_32  and  C11_11 
REMARK    4  A    between atoms: N16_16  and  C22_22 
REMARK    5  A    between atoms: N29_29  and  C17_17 
REMARK    6  A    between atoms: C19_19  and  C21_21 
REMARK       I    between atoms: C30_30  and  N29_29 
REMARK       I    between atoms: C30_30  and  N32_32 
ROOT
ATOM      1  N29 K9Y d         -22.632 -27.128   2.615  0.00  0.00    -0.293 N 
ATOM      2  C30 K9Y d         -23.095 -28.079   3.435  0.00  0.00     0.326 C 
ATOM      3  O31 K9Y d         -22.335 -28.805   4.072  0.00  0.00    -0.247 OA
ATOM      4  N32 K9Y d         -24.449 -28.204   3.490  0.00  0.00    -0.309 N 
ATOM      5  H15 K9Y d         -23.300 -26.550   2.147  0.00  0.00     0.172 HD
ATOM      6  H16 K9Y d         -24.990 -27.559   2.950  0.00  0.00     0.170 HD
ENDROOT
BRANCH   1   7
ATOM      7  C17 K9Y d         -21.283 -26.889   2.370  0.00  0.00     0.135 A 
ATOM      8  N16 K9Y d         -20.762 -25.708   1.937  0.00  0.00    -0.217 N 
ATOM      9  N20 K9Y d         -19.405 -25.934   1.724  0.00  0.00    -0.169 NA
ATOM     10  C19 K9Y d         -19.107 -27.184   1.988  0.00  0.00     0.066 A 
ATOM     11  C18 K9Y d         -20.291 -27.829   2.337  0.00  0.00     0.080 A 
BRANCH   8  12
ATOM     12  C22 K9Y d         -21.430 -24.480   1.716  0.00  0.00     0.060 A 
ATOM     13  C23 K9Y d         -21.072 -23.758   0.578  0.00  0.00     0.032 A 
ATOM     14  C24 K9Y d         -21.674 -22.540   0.301  0.00  0.00     0.009 A 
ATOM     15  C25 K9Y d         -22.687 -22.068   1.141  0.00  0.00    -0.062 A 
ATOM     16  C26 K9Y d         -23.082 -22.799   2.271  0.00  0.00     0.009 A 
ATOM     17  C28 K9Y d         -23.374 -20.763   0.786  0.00  0.00     0.048 C 
ATOM     18  C27 K9Y d         -22.425 -23.992   2.580  0.00  0.00     0.032 A 
ENDBRANCH   8  12
BRANCH  10  19
ATOM     19  C21 K9Y d         -17.752 -27.827   1.793  0.00  0.00    -0.005 C 
ATOM     20  C33 K9Y d         -17.842 -28.812   0.628  0.00  0.00     0.021 C 
ATOM     21  C34 K9Y d         -16.737 -26.757   1.386  0.00  0.00     0.021 C 
ATOM     22  C35 K9Y d         -17.244 -28.597   3.014  0.00  0.00     0.021 C 
ENDBRANCH  10  19
ENDBRANCH   1   7
BRANCH   4  23
ATOM     23  C11 K9Y d         -25.147 -29.154   4.234  0.00  0.00     0.036 A 
ATOM     24  C10 K9Y d         -26.533 -29.010   4.379  0.00  0.00     0.032 A 
ATOM     25  C15 K9Y d         -27.283 -29.984   5.041  0.00  0.00     0.032 A 
ATOM     26  C14 K9Y d         -26.644 -31.132   5.510  0.00  0.00     0.042 A 
ATOM     27  C13 K9Y d         -25.263 -31.274   5.348  0.00  0.00     0.032 A 
ATOM     28  C12 K9Y d         -24.514 -30.323   4.674  0.00  0.00     0.032 A 
BRANCH  26  29
ATOM     29  N8  K9Y d         -27.256 -32.121   6.295  0.00  0.00    -0.288 N 
ATOM     30  C3  K9Y d         -27.911 -31.890   7.474  0.00  0.00     0.169 A 
ATOM     31  N2  K9Y d         -28.357 -30.796   8.098  0.00  0.00    -0.221 NA
ATOM     32  C4  K9Y d         -28.137 -33.170   8.043  0.00  0.00     0.149 A 
ATOM     33  C1  K9Y d         -28.992 -30.879   9.253  0.00  0.00     0.237 A 
ATOM     34  N6  K9Y d         -29.201 -32.054   9.836  0.00  0.00    -0.222 NA
ATOM     35  C5  K9Y d         -28.823 -33.212   9.275  0.00  0.00     0.155 A 
ATOM     36  N7  K9Y d         -27.586 -34.095   7.212  0.00  0.00    -0.236 NA
ATOM     37  C9  K9Y d         -27.043 -33.482   6.195  0.00  0.00     0.217 A 
BRANCH  35  38
ATOM     38  N36 K9Y d         -28.993 -34.405   9.954  0.00  0.00    -0.382 N 
ATOM     39  H26 K9Y d         -29.496 -34.419  10.853  0.00  0.00     0.157 HD
ATOM     40  H27 K9Y d         -28.616 -35.279   9.561  0.00  0.00     0.157 HD
ENDBRANCH  35  38
ENDBRANCH  26  29
ENDBRANCH   4  23
TORSDOF 6
