REMARK  5 active torsions:
REMARK  status: ('A' for Active; 'I' for Inactive)
REMARK    1  A    between atoms: C4_4  and  N20_5 
REMARK    2  A    between atoms: C10_8  and  C16_9 
REMARK    3  A    between atoms: C16_9  and  C17_10 
REMARK    4  A    between atoms: C17_10  and  N18_11 
REMARK    5  A    between atoms: C12_14  and  N14_15 
ROOT
ATOM      1  C2  MOL d          17.753  17.020  23.215  0.00  0.00     0.272 A 
ATOM      2  O19 MOL d          18.861  17.354  23.667  0.00  0.00    -0.267 OA
ATOM      3  N3  MOL d          16.730  16.686  23.979  0.00  0.00    -0.154 N 
ATOM      4  C4  MOL d          15.583  16.269  23.462  0.00  0.00     0.701 A 
ATOM      5  N5  MOL d          15.418  16.126  22.183  0.00  0.00    -0.064 NA
ATOM      6  C6  MOL d          16.380  16.437  21.242  0.00  0.00     0.100 A 
ATOM      7  C10 MOL d          16.112  16.466  19.864  0.00  0.00     0.006 C 
ATOM      8  C9  MOL d          17.121  16.927  19.012  0.00  0.00     0.111 C 
ATOM      9  N11 MOL d          17.188  17.035  17.665  0.00  0.00    -0.062 NA
ATOM     10  C12 MOL d          18.338  17.526  17.362  0.00  0.00     0.701 C 
ATOM     11  N13 MOL d          19.116  17.632  18.415  0.00  0.00    -0.188 N 
ATOM     12  C8  MOL d          18.399  17.228  19.476  0.00  0.00     0.080 C 
ATOM     13  C7  MOL d          18.657  17.287  20.844  0.00  0.00     0.052 C 
ATOM     14  C1  MOL d          17.606  16.926  21.708  0.00  0.00     0.065 A 
ATOM     15  H16 MOL d          20.091  17.962  18.425  0.00  0.00     0.184 HD
ATOM     16  H1  MOL d          16.823  16.749  24.973  0.00  0.00     0.187 HD
ENDROOT
BRANCH   7  17
ATOM     17  C16 MOL d          14.776  16.048  19.200  0.00  0.00     0.070 C 
BRANCH  17  18
ATOM     18  C17 MOL d          14.909  14.575  18.635  0.00  0.00     0.234 C 
BRANCH  18  19
ATOM     19  N18 MOL d          13.894  14.393  17.580  0.00  0.00    -0.079 N 
ATOM     20  H9  MOL d          13.962  13.459  17.206  0.00  0.00     0.274 HD
ATOM     21  H10 MOL d          14.052  15.062  16.843  0.00  0.00     0.274 HD
ATOM     22  H11 MOL d          12.975  14.533  17.970  0.00  0.00     0.274 HD
ENDBRANCH  18  19
ENDBRANCH  17  18
ENDBRANCH   7  17
BRANCH   4  23
ATOM     23  N20 MOL d          14.581  15.994  24.269  0.00  0.00    -0.233 N 
ATOM     24  H2  MOL d          13.683  15.669  23.883  0.00  0.00     0.174 HD
ATOM     25  H3  MOL d          14.694  16.104  25.287  0.00  0.00     0.174 HD
ENDBRANCH   4  23
BRANCH  10  26
ATOM     26  N14 MOL d          18.788  17.764  16.143  0.00  0.00    -0.229 N 
ATOM     27  C15 MOL d          18.051  17.604  14.913  0.00  0.00     0.165 C 
ATOM     28  H12 MOL d          19.760  18.096  16.063  0.00  0.00     0.177 HD
ENDBRANCH  10  26
TORSDOF 5
