3m3e_ligand

Created by X-TOOL on Fri Sep 26 17:34:48 2014
 63 65  0  0  0  0  0  0  0  0999 V2000
   39.3280    3.7230    6.5370  C 0  0  0  2  0  4
   38.2470    4.1620    5.5470  C 0  0  0  2  0  4
   37.0530    4.7920    6.2640  C 0  0  0  2  0  4
   36.5590    3.8290    7.3440  C 0  0  0  2  0  4
   37.7240    3.4830    8.2730  C 0  0  0  2  0  4
   37.2320    2.5580    9.3880  C 0  0  0  3  0  4
   38.7960    5.0810    4.6000  O 0  0  0  2  0  2
   36.0130    5.0390    5.3150  O 0  0  0  2  0  2
   36.0670    2.6320    6.7340  O 0  0  0  2  0  2
   38.7660    2.8410    7.5230  O 0  0  0  1  0  2
   38.2860    2.3290   10.3270  O 0  0  0  2  0  2
   44.0710    1.9360    7.2740  O 0  0  0  1  0  2
   44.0380    2.6930    6.0540  C 0  0  0  2  0  4
   42.6590    2.5470    5.4080  C 0  0  0  2  0  4
   42.6350    3.3230    4.1600  N 0  0  0  2  0  3
   41.6060    3.1100    6.3640  C 0  0  0  2  0  4
   40.3060    3.0030    5.7710  O 0  0  0  1  0  2
   41.6960    2.3130    7.6670  C 0  0  0  2  0  4
   41.3990    0.9380    7.4070  O 0  0  0  2  0  2
   43.1150    2.4260    8.2280  C 0  0  0  2  0  4
   43.2320    1.6240    9.5250  C 0  0  0  3  0  4
   44.5570    1.7600   10.0450  O 0  0  0  2  0  2
   42.8570    2.7610    2.9760  C 0  0  0  1  0  3
   43.1110    1.4280    2.8950  O 0  0  0  1  0  1
   42.8450    3.5400    1.8250  C 0  0  0  4  0  4
   47.4730    5.3640    8.4550  C 0  0  0  1  0  3
   46.3120    6.1270    8.4260  C 0  0  0  2  0  3
   45.2070    5.6780    7.7120  C 0  0  0  2  0  3
   45.2600    4.4710    7.0240  C 0  0  0  1  0  3
   46.4200    3.7050    7.0560  C 0  0  0  2  0  3
   47.5250    4.1530    7.7730  C 0  0  0  2  0  3
   44.1820    4.1040    6.2810  O 0  0  0  1  0  2
   48.5300    5.8020    9.1340  N 0  0  0  1  0  3
   49.7210    5.0280    9.1800  O 0  0  0  1  0  1
   48.4610    7.0450    9.8210  O 0  0  0  1  0  1
   39.7814    4.5970    7.0274  H 0  0  0  1  0  1
   37.8930    3.2722    5.0058  H 0  0  0  1  0  1
   37.3581    5.7410    6.7291  H 0  0  0  1  0  1
   35.7532    4.3049    7.9222  H 0  0  0  1  0  1
   38.1187    4.4077    8.7192  H 0  0  0  1  0  1
   36.9151    1.5985    8.9534  H 0  0  0  1  0  1
   36.3801    3.0268    9.9023  H 0  0  0  1  0  1
   39.5363    4.6780    4.1618  H 0  0  0  1  0  1
   35.7550    4.2197    4.9092  H 0  0  0  1  0  1
   35.3434    2.8463    6.1569  H 0  0  0  1  0  1
   39.0215    1.9235    9.8831  H 0  0  0  1  0  1
   44.8286    2.3326    5.3794  H 0  0  0  1  0  1
   42.4502    1.4877    5.1977  H 0  0  0  1  0  1
   42.4458    4.3040    4.2029  H 0  0  0  1  0  1
   41.8187    4.1696    6.5688  H 0  0  0  1  0  1
   40.9767    2.7144    8.3960  H 0  0  0  1  0  1
   42.0243    0.5931    6.7805  H 0  0  0  1  0  1
   43.3306    3.4837    8.4395  H 0  0  0  1  0  1
   43.0240    0.5632    9.3215  H 0  0  0  1  0  1
   42.5077    2.0053   10.2598  H 0  0  0  1  0  1
   45.1810    1.4307    9.4088  H 0  0  0  1  0  1
   43.0469    2.9046    0.9501  H 0  0  0  1  0  1
   43.6197    4.3173    1.9002  H 0  0  0  1  0  1
   41.8589    4.0146    1.7137  H 0  0  0  1  0  1
   46.2681    7.0700    8.9588  H 0  0  0  1  0  1
   44.3001    6.2715    7.6916  H 0  0  0  1  0  1
   46.4633    2.7616    6.5239  H 0  0  0  1  0  1
   48.4295    3.5562    7.8002  H 0  0  0  1  0  1
  1  2  1  0  0  1
  1 10  1  0  0  1
 17  1  1  0  0  2
  2  3  1  0  0  1
  2  7  1  0  0  2
  3  4  1  0  0  1
  3  8  1  0  0  2
  5  4  1  0  0  1
  4  9  1  0  0  2
  5  6  1  0  0  2
 10  5  1  0  0  1
  6 11  1  0  0  2
 13 12  1  0  0  1
 12 20  1  0  0  1
 13 14  1  0  0  1
 32 13  1  0  0  2
 14 15  1  0  0  2
 14 16  1  0  0  1
 15 23  1  0  0  2
 16 17  1  0  0  2
 16 18  1  0  0  1
 18 19  1  0  0  2
 20 18  1  0  0  1
 20 21  1  0  0  2
 21 22  1  0  0  2
 23 24  2  0  0  2
 23 25  1  0  0  2
 27 26  4  0  0  1
 26 31  4  0  0  1
 26 33  1  0  0  2
 28 27  4  0  0  1
 29 28  4  0  0  1
 29 30  4  0  0  1
 29 32  1  0  0  2
 30 31  4  0  0  1
 33 34  2  0  0  2
 33 35  2  0  0  2
  1 36  1  0  0  2
  2 37  1  0  0  2
  3 38  1  0  0  2
  4 39  1  0  0  2
  5 40  1  0  0  2
  6 41  1  0  0  2
  6 42  1  0  0  2
  7 43  1  0  0  2
  8 44  1  0  0  2
  9 45  1  0  0  2
 11 46  1  0  0  2
 13 47  1  0  0  2
 14 48  1  0  0  2
 15 49  1  0  0  2
 16 50  1  0  0  2
 18 51  1  0  0  2
 19 52  1  0  0  2
 20 53  1  0  0  2
 21 54  1  0  0  2
 21 55  1  0  0  2
 22 56  1  0  0  2
 25 57  1  0  0  2
 25 58  1  0  0  2
 25 59  1  0  0  2
 27 60  1  0  0  2
 28 61  1  0  0  2
 30 62  1  0  0  2
 31 63  1  0  0  2
M  END
> <MOLECULAR_FORMULA>
C20H28N2O13

> <MOLECULAR_WEIGHT>
504.2

> <NUM_HB_ATOMS>
14 

> <NUM_ROTOR>
7  

> <XLOGP2>
-2.30

$$$$
