REMARK  12 active torsions:
REMARK  status: ('A' for Active; 'I' for Inactive)
REMARK    1  A    between atoms: C21_2  and  C18_4 
REMARK       I    between atoms: C18_4  and  N17_6 
REMARK    2  A    between atoms: N17_6  and  C19_7 
REMARK    3  A    between atoms: N17_6  and  C10_16 
REMARK    4  A    between atoms: C24_12  and  C33_13 
REMARK    5  A    between atoms: C7_19  and  C36_26 
REMARK    6  A    between atoms: C36_26  and  C37_27 
REMARK    7  A    between atoms: C37_27  and  N41_28 
REMARK    8  A    between atoms: C37_27  and  C40_32 
REMARK       I    between atoms: N41_28  and  C61_29 
REMARK       I    between atoms: C40_32  and  N44_34 
REMARK    9  A    between atoms: N44_34  and  C45_35 
REMARK   10  A    between atoms: C45_35  and  C46_36 
REMARK   11  A    between atoms: C46_36  and  C49_37 
REMARK   12  A    between atoms: C49_37  and  C52_38 
ROOT
ATOM      1  C10 MOL d          34.692  28.032  21.705  0.00  0.00     0.054 A 
ATOM      2  C9  MOL d          33.382  28.581  21.958  0.00  0.00     0.031 A 
ATOM      3  C8  MOL d          32.850  29.621  21.182  0.00  0.00     0.010 A 
ATOM      4  C7  MOL d          33.580  30.189  20.099  0.00  0.00    -0.044 A 
ATOM      5  C3  MOL d          34.918  29.672  19.798  0.00  0.00    -0.017 A 
ATOM      6  C4  MOL d          35.472  28.589  20.609  0.00  0.00     0.002 A 
ATOM      7  C5  MOL d          36.787  28.084  20.305  0.00  0.00     0.014 A 
ATOM      8  C6  MOL d          37.546  28.628  19.233  0.00  0.00     0.001 A 
ATOM      9  C1  MOL d          37.015  29.683  18.440  0.00  0.00     0.001 A 
ATOM     10  C2  MOL d          35.722  30.198  18.714  0.00  0.00     0.013 A 
ENDROOT
BRANCH   4  11
ATOM     11  C36 MOL d          32.912  31.308  19.306  0.00  0.00     0.074 C 
BRANCH  11  12
ATOM     12  C37 MOL d          32.312  30.790  17.958  0.00  0.00     0.180 C 
BRANCH  12  13
ATOM     13  N41 MOL d          31.707  31.926  17.252  0.00  0.00    -0.348 N 
ATOM     14  C61 MOL d          32.219  32.374  16.086  0.00  0.00     0.214 C 
ATOM     15  O66 MOL d          33.196  31.901  15.514  0.00  0.00    -0.274 OA
ATOM     16  C62 MOL d          31.468  33.561  15.505  0.00  0.00     0.117 C 
ATOM     17  H14 MOL d          30.903  32.375  17.641  0.00  0.00     0.163 HD
ENDBRANCH  12  13
BRANCH  12  18
ATOM     18  C40 MOL d          31.295  29.630  18.128  0.00  0.00     0.240 C 
ATOM     19  O43 MOL d          31.731  28.481  18.191  0.00  0.00    -0.271 OA
ATOM     20  N44 MOL d          29.966  29.905  18.208  0.00  0.00    -0.359 N 
ATOM     21  H18 MOL d          29.697  30.866  18.147  0.00  0.00     0.162 HD
BRANCH  20  22
ATOM     22  C45 MOL d          28.892  28.925  18.375  0.00  0.00     0.122 C 
BRANCH  22  23
ATOM     23  C46 MOL d          27.683  29.500  19.133  0.00  0.00     0.020 C 
BRANCH  23  24
ATOM     24  C49 MOL d          27.933  29.602  20.651  0.00  0.00     0.001 C 
BRANCH  24  25
ATOM     25  C52 MOL d          26.715  30.170  21.402  0.00  0.00    -0.004 C 
ATOM     26  C55 MOL d          27.089  30.830  22.732  0.00  0.00     0.005 C 
ENDBRANCH  24  25
ENDBRANCH  23  24
ENDBRANCH  22  23
ENDBRANCH  20  22
ENDBRANCH  12  18
ENDBRANCH  11  12
ENDBRANCH   4  11
BRANCH   1  27
ATOM     27  N17 MOL d          35.125  26.977  22.552  0.00  0.00    -0.272 N 
ATOM     28  C18 MOL d          35.543  27.277  23.880  0.00  0.00     0.329 C 
ATOM     29  O20 MOL d          35.878  26.406  24.677  0.00  0.00    -0.260 OA
BRANCH  28  30
ATOM     30  C21 MOL d          35.608  28.740  24.413  0.00  0.00     0.270 C 
ATOM     31  O22 MOL d          36.658  29.500  24.019  0.00  0.00    -0.640 OA
ATOM     32  O23 MOL d          34.747  29.172  25.121  0.00  0.00    -0.640 OA
ENDBRANCH  28  30
BRANCH  27  33
ATOM     33  C19 MOL d          35.077  25.609  22.050  0.00  0.00     0.060 A 
ATOM     34  C28 MOL d          33.832  25.179  21.458  0.00  0.00     0.031 A 
ATOM     35  C27 MOL d          33.647  23.888  20.927  0.00  0.00     0.002 A 
ATOM     36  C26 MOL d          34.692  22.958  20.956  0.00  0.00     0.001 A 
ATOM     37  C25 MOL d          35.926  23.319  21.520  0.00  0.00     0.021 A 
ATOM     38  C24 MOL d          36.164  24.616  22.072  0.00  0.00     0.068 A 
BRANCH  38  39
ATOM     39  C33 MOL d          37.532  24.823  22.627  0.00  0.00     0.211 C 
ATOM     40  O34 MOL d          38.151  25.828  22.480  0.00  0.00    -0.644 OA
ATOM     41  O35 MOL d          38.045  23.790  23.331  0.00  0.00    -0.644 OA
ENDBRANCH  38  39
ENDBRANCH  27  33
ENDBRANCH   1  27
TORSDOF 12
