REMARK  3 active torsions:
REMARK  status: ('A' for Active; 'I' for Inactive)
REMARK    1  A    between atoms: C18_8  and  O19_20 
REMARK    2  A    between atoms: C1_9  and  O20_21 
REMARK    3  A    between atoms: C9_10  and  C10_12 
ROOT
ATOM      1  C17 MOL d           7.661  38.334  56.997  0.00  0.00     0.054 A 
ATOM      2  C2  MOL d           8.575  38.472  59.652  0.00  0.00     0.047 A 
ATOM      3  C7  MOL d          10.944  41.491  55.705  0.00  0.00     0.210 A 
ATOM      4  C16 MOL d           8.813  39.078  57.308  0.00  0.00     0.002 A 
ATOM      5  C3  MOL d           9.265  39.138  58.657  0.00  0.00    -0.041 A 
ATOM      6  C18 MOL d           6.928  37.680  57.997  0.00  0.00     0.102 A 
ATOM      7  C1  MOL d           7.387  37.736  59.326  0.00  0.00     0.102 A 
ATOM      8  C9  MOL d           9.820  39.873  54.918  0.00  0.00     0.104 A 
ATOM      9  C15 MOL d           9.570  39.829  56.297  0.00  0.00     0.076 A 
ATOM     10  C4  MOL d          10.467  39.981  59.002  0.00  0.00     0.060 C 
ATOM     11  C5  MOL d          10.341  41.274  58.186  0.00  0.00     0.134 C 
ATOM     12  N8  MOL d          10.692  40.891  54.590  0.00  0.00    -0.240 NA
ATOM     13  N6  MOL d          10.305  40.894  56.758  0.00  0.00    -0.339 N 
ENDROOT
BRANCH   8  14
ATOM     14  C10 MOL d           9.402  38.992  53.824  0.00  0.00     0.054 A 
ATOM     15  C11 MOL d           9.086  37.661  53.935  0.00  0.00     0.138 A 
ATOM     16  N12 MOL d           8.741  36.994  52.765  0.00  0.00    -0.265 NA
ATOM     17  C13 MOL d           8.825  37.876  51.752  0.00  0.00     0.166 A 
ATOM     18  S14 MOL d           9.329  39.486  52.166  0.00  0.00    -0.079 SA
ENDBRANCH   8  14
BRANCH   6  19
ATOM     19  O19 MOL d           5.796  36.890  57.812  0.00  0.00    -0.353 OA
ATOM     20  C22 MOL d           5.143  36.783  56.540  0.00  0.00     0.210 C 
ENDBRANCH   6  19
BRANCH   7  21
ATOM     21  O20 MOL d           6.622  36.973  60.166  0.00  0.00    -0.353 OA
ATOM     22  C21 MOL d           6.764  36.999  61.596  0.00  0.00     0.210 C 
ENDBRANCH   7  21
TORSDOF 3
