REMARK  11 active torsions:
REMARK  status: ('A' for Active; 'I' for Inactive)
REMARK    1  A    between atoms: N12_1  and  C13_2 
REMARK       I    between atoms: C11_17  and  N12_1 
REMARK    2  A    between atoms: C13_2  and  C30_3 
REMARK    3  A    between atoms: C13_2  and  C14_4 
REMARK    4  A    between atoms: C30_3  and  C21_8 
REMARK    5  A    between atoms: C14_4  and  O15_6 
REMARK    6  A    between atoms: C25_12  and  C27_14 
REMARK    7  A    between atoms: C27_14  and  N28_15 
REMARK    8  A    between atoms: C10_18  and  C11_17 
REMARK    9  A    between atoms: N9_19  and  C10_18 
REMARK   10  A    between atoms: S8_28  and  N9_19 
REMARK   11  A    between atoms: C5_25  and  S8_28 
ROOT
ATOM      1  C13 ANH d          -3.539  17.306  17.391  0.00  0.00     0.188 C 
ENDROOT
BRANCH   1   2
ATOM      2  N12 ANH d          -2.295  17.969  16.911  0.00  0.00    -0.346 N 
ATOM      3  C11 ANH d          -2.232  18.775  15.839  0.00  0.00     0.236 C 
ATOM      4  O20 ANH d          -3.156  18.913  15.035  0.00  0.00    -0.272 OA
ATOM      5  H1  ANH d          -1.451  17.803  17.421  0.00  0.00     0.163 HD
BRANCH   3   6
ATOM      6  C10 ANH d          -0.945  19.543  15.626  0.00  0.00     0.235 C 
BRANCH   6   7
ATOM      7  N9  ANH d          -0.666  19.878  14.211  0.00  0.00    -0.307 N 
ATOM      8  H18 ANH d          -0.456  19.151  13.557  0.00  0.00     0.172 HD
BRANCH   7   9
ATOM      9  S8  ANH d          -0.703  21.482  13.702  0.00  0.00     0.259 S 
ATOM     10  O18 ANH d          -0.708  21.448  12.119  0.00  0.00    -0.201 OA
ATOM     11  O19 ANH d          -2.019  22.041  14.333  0.00  0.00    -0.201 OA
BRANCH   9  12
ATOM     12  C5  ANH d           0.659  22.306  14.381  0.00  0.00     0.079 A 
ATOM     13  C4  ANH d           1.950  22.247  13.750  0.00  0.00     0.026 A 
ATOM     14  C3  ANH d           3.034  22.951  14.364  0.00  0.00     0.008 A 
ATOM     15  C2  ANH d           2.806  23.685  15.583  0.00  0.00    -0.062 A 
ATOM     16  C1  ANH d           3.886  24.433  16.250  0.00  0.00     0.048 C 
ATOM     17  C7  ANH d           1.516  23.720  16.184  0.00  0.00     0.008 A 
ATOM     18  C6  ANH d           0.443  23.036  15.593  0.00  0.00     0.026 A 
ENDBRANCH   9  12
ENDBRANCH   7   9
ENDBRANCH   6   7
ENDBRANCH   3   6
ENDBRANCH   1   2
BRANCH   1  19
ATOM     19  C30 ANH d          -3.194  16.355  18.551  0.00  0.00     0.074 C 
BRANCH  19  20
ATOM     20  C21 ANH d          -2.418  15.085  18.216  0.00  0.00    -0.055 A 
ATOM     21  C22 ANH d          -1.399  14.656  19.103  0.00  0.00     0.007 A 
ATOM     22  C23 ANH d          -0.646  13.482  18.838  0.00  0.00     0.002 A 
ATOM     23  C24 ANH d          -0.915  12.725  17.668  0.00  0.00     0.015 A 
ATOM     24  C25 ANH d          -1.950  13.111  16.715  0.00  0.00     0.007 A 
ATOM     25  C26 ANH d          -2.695  14.316  17.023  0.00  0.00     0.022 A 
BRANCH  24  26
ATOM     26  C27 ANH d          -2.203  12.338  15.559  0.00  0.00     0.102 C 
ATOM     27  N29 ANH d          -2.000  11.020  15.474  0.00  0.00    -0.385 N 
ATOM     28  H14 ANH d          -1.628  10.503  16.284  0.00  0.00     0.157 HD
ATOM     29  H15 ANH d          -2.215  10.521  14.599  0.00  0.00     0.157 HD
BRANCH  26  30
ATOM     30  N28 ANH d          -2.682  12.808  14.416  0.00  0.00    -0.385 N 
ATOM     31  H12 ANH d          -2.836  12.171  13.621  0.00  0.00     0.157 HD
ATOM     32  H13 ANH d          -2.900  13.810  14.322  0.00  0.00     0.157 HD
ENDBRANCH  26  30
ENDBRANCH  24  26
ENDBRANCH  19  20
ENDBRANCH   1  19
BRANCH   1  33
ATOM     33  C14 ANH d          -4.725  18.288  17.824  0.00  0.00     0.281 C 
ATOM     34  O17 ANH d          -5.864  18.082  17.353  0.00  0.00    -0.263 OA
BRANCH  33  35
ATOM     35  O15 ANH d          -4.448  19.374  18.730  0.00  0.00    -0.325 OA
ATOM     36  C16 ANH d          -3.141  19.705  19.343  0.00  0.00     0.213 C 
ENDBRANCH  33  35
ENDBRANCH   1  33
TORSDOF 11
