REMARK  9 active torsions:
REMARK  status: ('A' for Active; 'I' for Inactive)
REMARK    1  A    between atoms: C15_3  and  C17_2 
REMARK       I    between atoms: N13_22  and  C15_3 
REMARK    2  A    between atoms: C20_5  and  C23_8 
REMARK    3  A    between atoms: C23_8  and  N24_25 
REMARK    4  A    between atoms: C11_9  and  C12_10 
REMARK    5  A    between atoms: C12_10  and  N13_22 
REMARK    6  A    between atoms: C12_10  and  C14_23 
REMARK    7  A    between atoms: C14_23  and  C1_12 
REMARK    8  A    between atoms: C25_26  and  C8_19 
REMARK    9  A    between atoms: C28_28  and  C31_31 
REMARK       I    between atoms: C31_31  and  N33_33 
ROOT
ATOM      1  C12 MOL d          39.943 -20.914  28.915  0.00  0.00     0.158 C 
ENDROOT
BRANCH   1   2
ATOM      2  C11 MOL d          41.432 -20.760  28.920  0.00  0.00     0.128 A 
ATOM      3  N7  MOL d          42.229 -21.020  29.943  0.00  0.00    -0.231 NA
ATOM      4  C8  MOL d          43.509 -20.847  29.451  0.00  0.00     0.084 A 
ATOM      5  C9  MOL d          43.450 -20.485  28.135  0.00  0.00     0.122 A 
ATOM      6  N10 MOL d          42.129 -20.418  27.814  0.00  0.00    -0.350 N 
ATOM      7  H   MOL d          41.734 -20.156  26.899  0.00  0.00     0.166 HD
BRANCH   4   8
ATOM      8  C25 MOL d          44.684 -21.056  30.313  0.00  0.00    -0.006 A 
ATOM      9  C26 MOL d          45.924 -20.530  29.958  0.00  0.00     0.015 A 
ATOM     10  C27 MOL d          47.060 -20.833  30.692  0.00  0.00     0.018 A 
ATOM     11  C28 MOL d          46.984 -21.632  31.831  0.00  0.00     0.031 A 
ATOM     12  C29 MOL d          45.734 -22.127  32.207  0.00  0.00     0.018 A 
ATOM     13  C30 MOL d          44.605 -21.852  31.453  0.00  0.00     0.015 A 
BRANCH  11  14
ATOM     14  C31 MOL d          48.282 -21.958  32.561  0.00  0.00     0.249 C 
ATOM     15  O32 MOL d          49.375 -21.559  32.088  0.00  0.00    -0.268 OA
ATOM     16  N33 MOL d          48.221 -22.669  33.679  0.00  0.00    -0.366 N 
ATOM     17  H   MOL d          49.060 -22.895  34.175  0.00  0.00     0.159 HD
ATOM     18  H   MOL d          47.336 -22.979  34.026  0.00  0.00     0.159 HD
ENDBRANCH  11  14
ENDBRANCH   4   8
ENDBRANCH   1   2
BRANCH   1  19
ATOM     19  N13 MOL d          39.259 -19.735  28.412  0.00  0.00    -0.349 N 
ATOM     20  C15 MOL d          39.169 -18.617  29.136  0.00  0.00     0.222 C 
ATOM     21  O16 MOL d          39.752 -18.466  30.214  0.00  0.00    -0.273 OA
ATOM     22  H   MOL d          38.846 -19.762  27.502  0.00  0.00     0.163 HD
BRANCH  20  23
ATOM     23  C17 MOL d          38.234 -17.560  28.566  0.00  0.00     0.078 C 
ATOM     24  C18 MOL d          39.022 -16.439  27.859  0.00  0.00     0.014 C 
ATOM     25  C19 MOL d          38.084 -15.334  27.336  0.00  0.00     0.007 C 
ATOM     26  C20 MOL d          37.208 -14.753  28.441  0.00  0.00     0.011 C 
ATOM     27  C21 MOL d          36.421 -15.883  29.087  0.00  0.00     0.007 C 
ATOM     28  C22 MOL d          37.343 -16.966  29.663  0.00  0.00     0.014 C 
BRANCH  26  29
ATOM     29  C23 MOL d          36.291 -13.638  27.929  0.00  0.00     0.234 C 
BRANCH  29  30
ATOM     30  N24 MOL d          37.010 -12.468  27.414  0.00  0.00    -0.079 N 
ATOM     31  H   MOL d          36.346 -11.779  27.096  0.00  0.00     0.274 HD
ATOM     32  H   MOL d          37.599 -12.747  26.645  0.00  0.00     0.274 HD
ATOM     33  H   MOL d          37.579 -12.074  28.147  0.00  0.00     0.274 HD
ENDBRANCH  29  30
ENDBRANCH  26  29
ENDBRANCH  20  23
ENDBRANCH   1  19
BRANCH   1  34
ATOM     34  C14 MOL d          39.527 -22.161  28.115  0.00  0.00     0.071 C 
BRANCH  34  35
ATOM     35  C1  MOL d          40.246 -23.401  28.592  0.00  0.00    -0.056 A 
ATOM     36  C2  MOL d          40.022 -23.904  29.867  0.00  0.00     0.007 A 
ATOM     37  C3  MOL d          40.759 -24.977  30.347  0.00  0.00     0.001 A 
ATOM     38  C4  MOL d          41.731 -25.559  29.559  0.00  0.00     0.000 A 
ATOM     39  C5  MOL d          41.976 -25.059  28.294  0.00  0.00     0.001 A 
ATOM     40  C6  MOL d          41.235 -23.987  27.814  0.00  0.00     0.007 A 
ENDBRANCH  34  35
ENDBRANCH   1  34
TORSDOF 9
