REMARK  6 active torsions:
REMARK  status: ('A' for Active; 'I' for Inactive)
REMARK    1  A    between atoms: C1_1  and  C2_4 
REMARK    2  A    between atoms: C2_4  and  C3_5 
REMARK    3  A    between atoms: C3_5  and  O7_6 
REMARK    4  A    between atoms: C3_5  and  C4_7 
REMARK    5  A    between atoms: C3_5  and  C6_11 
REMARK    6  A    between atoms: C4_7  and  C5_8 
ROOT
ATOM      1  C3  CIT d          18.097   2.469   3.342  0.00  0.00     0.164 C 
ENDROOT
BRANCH   1   2
ATOM      2  C2  CIT d          16.728   2.366   4.095  0.00  0.00     0.163 C 
BRANCH   2   3
ATOM      3  C1  CIT d          15.735   3.453   3.684  0.00  0.00     0.176 C 
ATOM      4  O1  CIT d          15.923   4.082   2.607  0.00  0.00    -0.648 OA
ATOM      5  O2  CIT d          14.767   3.683   4.432  0.00  0.00    -0.648 OA
ENDBRANCH   2   3
ENDBRANCH   1   2
BRANCH   1   6
ATOM      6  O7  CIT d          17.951   2.732   1.898  0.00  0.00    -0.378 OA
ATOM      7  H   CIT d          17.492   3.554   1.772  0.00  0.00     0.211 HD
ENDBRANCH   1   6
BRANCH   1   8
ATOM      8  C4  CIT d          18.941   3.623   3.888  0.00  0.00     0.163 C 
BRANCH   8   9
ATOM      9  C5  CIT d          20.345   3.775   3.291  0.00  0.00     0.176 C 
ATOM     10  O3  CIT d          20.833   4.933   3.248  0.00  0.00    -0.648 OA
ATOM     11  O4  CIT d          20.982   2.782   2.890  0.00  0.00    -0.648 OA
ENDBRANCH   8   9
ENDBRANCH   1   8
BRANCH   1  12
ATOM     12  C6  CIT d          18.815   1.141   3.660  0.00  0.00     0.210 C 
ATOM     13  O5  CIT d          19.080   0.335   2.763  0.00  0.00    -0.646 OA
ATOM     14  O6  CIT d          19.164   0.884   4.838  0.00  0.00    -0.646 OA
ENDBRANCH   1  12
TORSDOF 6
