REMARK  9 active torsions:
REMARK  status: ('A' for Active; 'I' for Inactive)
REMARK    1  A    between atoms: O01_1  and  N02_2 
REMARK    2  A    between atoms: N02_2  and  C03_3 
REMARK       I    between atoms: N02_2  and  C12_8 
REMARK    3  A    between atoms: C03_3  and  C04_4 
REMARK    4  A    between atoms: C04_4  and  C05_5 
REMARK    5  A    between atoms: C05_5  and  C06_6 
REMARK    6  A    between atoms: C06_6  and  O07_7 
REMARK    7  A    between atoms: C12_8  and  C14_10 
REMARK    8  A    between atoms: C14_10  and  O15_11 
REMARK    9  A    between atoms: O15_11  and  P16_12 
ROOT
ATOM      1  N02 TD3 d         -10.221  -7.869 -42.290  0.00  0.00    -0.227 N 
ATOM      2  C12 TD3 d         -11.661  -7.841 -42.515  0.00  0.00     0.267 C 
ATOM      3  O13 TD3 d         -12.224  -8.859 -42.804  0.00  0.00    -0.269 OA
ENDROOT
BRANCH   1   4
ATOM      4  O01 TD3 d          -9.524  -9.085 -42.239  0.00  0.00    -0.285 OA
ATOM      5  H1  TD3 d         -10.144  -9.805 -42.249  0.00  0.00     0.245 HD
ENDBRANCH   1   4
BRANCH   1   6
ATOM      6  C03 TD3 d          -9.445  -6.637 -42.284  0.00  0.00     0.159 C 
BRANCH   6   7
ATOM      7  C04 TD3 d          -8.463  -6.440 -43.444  0.00  0.00     0.024 C 
BRANCH   7   8
ATOM      8  C05 TD3 d          -8.202  -5.036 -43.988  0.00  0.00     0.028 C 
BRANCH   8   9
ATOM      9  C06 TD3 d          -7.604  -4.969 -45.396  0.00  0.00     0.164 C 
BRANCH   9  10
ATOM     10  O07 TD3 d          -6.347  -4.375 -45.568  0.00  0.00    -0.401 OA
ATOM     11  H10 TD3 d          -6.107  -4.405 -46.486  0.00  0.00     0.209 HD
ENDBRANCH   9  10
ENDBRANCH   8   9
ENDBRANCH   7   8
ENDBRANCH   6   7
ENDBRANCH   1   6
BRANCH   2  12
ATOM     12  C14 TD3 d         -12.260  -6.498 -42.947  0.00  0.00     0.287 C 
BRANCH  12  13
ATOM     13  O15 TD3 d         -11.974  -6.153 -44.265  0.00  0.00    -0.273 OA
BRANCH  13  14
ATOM     14  P16 TD3 d         -12.269  -4.648 -44.881  0.00  0.00     0.422 P 
ATOM     15  O17 TD3 d         -13.649  -4.752 -45.737  0.00  0.00    -0.617 OA
ATOM     16  O18 TD3 d         -10.995  -4.232 -45.814  0.00  0.00    -0.617 OA
ATOM     17  O19 TD3 d         -12.394  -3.665 -43.806  0.00  0.00    -0.617 OA
ENDBRANCH  13  14
ENDBRANCH  12  13
ENDBRANCH   2  12
TORSDOF 9
