REMARK  5 active torsions:
REMARK  status: ('A' for Active; 'I' for Inactive)
REMARK    1  A    between atoms: C8_6  and  C9_19 
REMARK    2  A    between atoms: O3_12  and  C7_15 
REMARK    3  A    between atoms: C3_17  and  O3_12 
REMARK    4  A    between atoms: C7_15  and  C'_13 
REMARK    5  A    between atoms: C1_18  and  C_14 
ROOT
ATOM      1  O2  RVC d          -1.819  -5.056  25.829  0.00  0.00    -0.289 OA
ATOM      2  C5  RVC d           1.347  -5.987  27.951  0.00  0.00     0.000 A 
ATOM      3  C4  RVC d           0.220  -5.588  28.617  0.00  0.00     0.013 A 
ATOM      4  C6  RVC d           1.421  -6.089  26.593  0.00  0.00     0.022 A 
ATOM      5  C2  RVC d          -0.781  -5.357  26.544  0.00  0.00     0.199 A 
ATOM      6  C3  RVC d          -0.873  -5.267  27.887  0.00  0.00     0.227 A 
ATOM      7  C1  RVC d           0.326  -5.751  25.876  0.00  0.00     0.089 A 
ENDROOT
BRANCH   6   8
ATOM      8  O3  RVC d          -2.027  -4.873  28.404  0.00  0.00    -0.328 OA
BRANCH   8   9
ATOM      9  C7  RVC d          -2.084  -5.126  29.711  0.00  0.00     0.143 C 
ATOM     10  C8  RVC d          -2.407  -4.232  30.594  0.00  0.00     0.029 C 
BRANCH  10  11
ATOM     11  C9  RVC d          -2.643  -2.813  30.190  0.00  0.00     0.056 A 
ATOM     12  C10 RVC d          -2.390  -1.916  31.301  0.00  0.00    -0.017 A 
ATOM     13  C11 RVC d          -3.771  -2.164  30.861  0.00  0.00    -0.017 A 
ENDBRANCH  10  11
BRANCH   9  14
ATOM     14  C'  RVC d          -2.265  -6.512  30.172  0.00  0.00     0.233 C 
ATOM     15  OB' RVC d          -3.348  -7.060  30.062  0.00  0.00    -0.642 OA
ATOM     16  OA' RVC d          -1.326  -7.074  30.693  0.00  0.00    -0.642 OA
ENDBRANCH   9  14
ENDBRANCH   8   9
ENDBRANCH   6   8
BRANCH   7  17
ATOM     17  C   RVC d           0.307  -5.813  24.519  0.00  0.00     0.213 C 
ATOM     18  OB  RVC d          -0.715  -5.657  23.909  0.00  0.00    -0.644 OA
ATOM     19  OA  RVC d           1.301  -6.033  23.904  0.00  0.00    -0.644 OA
ENDBRANCH   7  17
TORSDOF 5
