REMARK  27 active torsions:
REMARK  status: ('A' for Active; 'I' for Inactive)
REMARK    1  A    between atoms: N1_1  and  C1_2 
REMARK       I    between atoms: C11_15  and  N1_1 
REMARK    2  A    between atoms: C1_2  and  C2_4 
REMARK    3  A    between atoms: C1_2  and  C3_5 
REMARK    4  A    between atoms: N2_3  and  C10_14 
REMARK       I    between atoms: C19_25  and  N2_3 
REMARK    5  A    between atoms: C2_4  and  O1_8 
REMARK    6  A    between atoms: C2_4  and  C52_58 
REMARK    7  A    between atoms: C3_5  and  C4_6 
REMARK    8  A    between atoms: C10_14  and  C11_15 
REMARK    9  A    between atoms: C10_14  and  C12_16 
REMARK   10  A    between atoms: N4_19  and  C18_24 
REMARK       I    between atoms: C31_62  and  N4_19 
REMARK   11  A    between atoms: C18_24  and  C19_25 
REMARK   12  A    between atoms: C81_28  and  O59_29 
REMARK       I    between atoms: N54_37  and  C81_28 
REMARK   13  A    between atoms: O59_29  and  CA5_30 
REMARK   14  A    between atoms: CA5_30  and  C50_31 
REMARK   15  A    between atoms: C68_38  and  N54_37 
REMARK   16  A    between atoms: C69_40  and  C68_38 
REMARK       I    between atoms: N52_42  and  C69_40 
REMARK   17  A    between atoms: C60_43  and  N52_42 
REMARK   18  A    between atoms: C60_43  and  C62_44 
REMARK   19  A    between atoms: C61_47  and  C60_43 
REMARK       I    between atoms: N51_49  and  C61_47 
REMARK   20  A    between atoms: C51_50  and  N51_49 
REMARK   21  A    between atoms: C51_50  and  C53_51 
REMARK   22  A    between atoms: C52_58  and  C51_50 
REMARK   23  A    between atoms: C53_51  and  C54_52 
REMARK   24  A    between atoms: C52_58  and  O51_59 
REMARK   25  A    between atoms: O9_64  and  C31_62 
REMARK   26  A    between atoms: CA_65  and  O9_64 
REMARK   27  A    between atoms: CA_65  and  C_66 
ROOT
ATOM      1  C2  MOL d          19.162   0.219  -0.029  0.00  0.00     0.171 C 
ENDROOT
BRANCH   1   2
ATOM      2  C1  MOL d          18.240   1.290   0.524  0.00  0.00     0.120 C 
BRANCH   2   3
ATOM      3  N1  MOL d          18.219   1.275   1.974  0.00  0.00    -0.352 N 
ATOM      4  C11 MOL d          17.111   1.043   2.675  0.00  0.00     0.241 C 
ATOM      5  O2  MOL d          16.030   0.809   2.163  0.00  0.00    -0.271 OA
ATOM      6  H1  MOL d          19.072   1.446   2.468  0.00  0.00     0.163 HD
BRANCH   4   7
ATOM      7  C10 MOL d          17.255   1.107   4.168  0.00  0.00     0.180 C 
BRANCH   7   8
ATOM      8  N2  MOL d          16.344   2.122   4.685  0.00  0.00    -0.346 N 
ATOM      9  C19 MOL d          16.892   3.084   5.430  0.00  0.00     0.240 C 
ATOM     10  O4  MOL d          18.054   3.041   5.789  0.00  0.00    -0.271 OA
ATOM     11  H3  MOL d          15.363   2.098   4.492  0.00  0.00     0.163 HD
BRANCH   9  12
ATOM     12  C18 MOL d          16.004   4.250   5.787  0.00  0.00     0.174 C 
ATOM     13  C20 MOL d          16.403   5.468   4.977  0.00  0.00     0.042 C 
BRANCH  12  14
ATOM     14  N4  MOL d          16.104   4.600   7.175  0.00  0.00    -0.324 N 
ATOM     15  C31 MOL d          15.152   4.393   8.064  0.00  0.00     0.361 C 
ATOM     16  O8  MOL d          13.989   4.139   7.816  0.00  0.00    -0.238 OA
ATOM     17  H17 MOL d          16.951   5.029   7.489  0.00  0.00     0.165 HD
BRANCH  15  18
ATOM     18  O9  MOL d          15.574   4.507   9.445  0.00  0.00    -0.299 OA
BRANCH  18  19
ATOM     19  CA  MOL d          14.592   4.453  10.469  0.00  0.00     0.219 C 
BRANCH  19  20
ATOM     20  C   MOL d          13.742   5.696  10.412  0.00  0.00    -0.034 A 
ATOM     21  C13 MOL d          12.510   5.696  11.064  0.00  0.00     0.009 A 
ATOM     22  C14 MOL d          11.714   6.848  11.030  0.00  0.00     0.001 A 
ATOM     23  C15 MOL d          12.150   7.993  10.357  0.00  0.00     0.000 A 
ATOM     24  C16 MOL d          13.393   7.984   9.711  0.00  0.00     0.001 A 
ATOM     25  C17 MOL d          14.196   6.839   9.746  0.00  0.00     0.009 A 
ENDBRANCH  19  20
ENDBRANCH  18  19
ENDBRANCH  15  18
ENDBRANCH  12  14
ENDBRANCH   9  12
ENDBRANCH   7   8
BRANCH   7  26
ATOM     26  C12 MOL d          17.046  -0.227   4.897  0.00  0.00     0.009 C 
ATOM     27  CG2 MOL d          17.569  -0.169   6.329  0.00  0.00     0.012 C 
ATOM     28  CG1 MOL d          17.697  -1.379   4.116  0.00  0.00     0.012 C 
ENDBRANCH   7  26
ENDBRANCH   4   7
ENDBRANCH   2   3
BRANCH   2  29
ATOM     29  C3  MOL d          18.802   2.618   0.065  0.00  0.00     0.066 C 
BRANCH  29  30
ATOM     30  C4  MOL d          17.876   3.717   0.489  0.00  0.00    -0.056 A 
ATOM     31  C5  MOL d          18.402   4.831   1.174  0.00  0.00     0.007 A 
ATOM     32  C6  MOL d          17.537   5.858   1.566  0.00  0.00     0.001 A 
ATOM     33  C7  MOL d          16.167   5.753   1.267  0.00  0.00     0.000 A 
ATOM     34  C8  MOL d          15.656   4.635   0.591  0.00  0.00     0.001 A 
ATOM     35  C9  MOL d          16.511   3.615   0.194  0.00  0.00     0.007 A 
ENDBRANCH  29  30
ENDBRANCH   2  29
ENDBRANCH   1   2
BRANCH   1  36
ATOM     36  O1  MOL d          20.463   0.495   0.465  0.00  0.00    -0.391 OA
ATOM     37  H8  MOL d          21.070  -0.158   0.138  0.00  0.00     0.210 HD
ENDBRANCH   1  36
BRANCH   1  38
ATOM     38  C52 MOL d          18.752  -1.177   0.429  0.00  0.00     0.171 C 
BRANCH  38  39
ATOM     39  C51 MOL d          17.473  -1.692  -0.197  0.00  0.00     0.120 C 
BRANCH  39  40
ATOM     40  N51 MOL d          17.587  -1.687  -1.645  0.00  0.00    -0.352 N 
ATOM     41  C61 MOL d          16.850  -0.957  -2.491  0.00  0.00     0.241 C 
ATOM     42  O52 MOL d          15.831  -0.387  -2.161  0.00  0.00    -0.271 OA
ATOM     43  H46 MOL d          18.281  -2.284  -2.047  0.00  0.00     0.163 HD
BRANCH  41  44
ATOM     44  C60 MOL d          17.308  -0.979  -3.929  0.00  0.00     0.180 C 
BRANCH  44  45
ATOM     45  N52 MOL d          16.887  -2.282  -4.417  0.00  0.00    -0.346 N 
ATOM     46  C69 MOL d          17.604  -3.085  -5.199  0.00  0.00     0.240 C 
ATOM     47  O54 MOL d          18.734  -2.862  -5.630  0.00  0.00    -0.271 OA
ATOM     48  H37 MOL d          15.981  -2.602  -4.141  0.00  0.00     0.163 HD
BRANCH  46  49
ATOM     49  C68 MOL d          16.890  -4.335  -5.610  0.00  0.00     0.174 C 
ATOM     50  C70 MOL d          17.483  -5.586  -4.982  0.00  0.00     0.042 C 
BRANCH  49  51
ATOM     51  N54 MOL d          16.979  -4.421  -7.054  0.00  0.00    -0.324 N 
ATOM     52  C81 MOL d          15.889  -4.397  -7.794  0.00  0.00     0.361 C 
ATOM     53  O58 MOL d          14.848  -3.832  -7.494  0.00  0.00    -0.238 OA
ATOM     54  H32 MOL d          17.875  -4.499  -7.492  0.00  0.00     0.165 HD
BRANCH  52  55
ATOM     55  O59 MOL d          15.936  -5.073  -9.063  0.00  0.00    -0.299 OA
BRANCH  55  56
ATOM     56  CA5 MOL d          14.699  -5.086  -9.797  0.00  0.00     0.219 C 
BRANCH  56  57
ATOM     57  C50 MOL d          13.822  -6.286  -9.506  0.00  0.00    -0.034 A 
ATOM     58  C63 MOL d          12.772  -6.571 -10.393  0.00  0.00     0.009 A 
ATOM     59  C64 MOL d          11.927  -7.661 -10.174  0.00  0.00     0.001 A 
ATOM     60  C65 MOL d          12.119  -8.492  -9.067  0.00  0.00     0.000 A 
ATOM     61  C66 MOL d          13.169  -8.211  -8.171  0.00  0.00     0.001 A 
ATOM     62  C67 MOL d          14.024  -7.118  -8.397  0.00  0.00     0.009 A 
ENDBRANCH  56  57
ENDBRANCH  55  56
ENDBRANCH  52  55
ENDBRANCH  49  51
ENDBRANCH  46  49
ENDBRANCH  44  45
BRANCH  44  63
ATOM     63  C62 MOL d          16.727   0.151  -4.816  0.00  0.00     0.009 C 
ATOM     64  CG6 MOL d          16.858  -0.059  -6.312  0.00  0.00     0.012 C 
ATOM     65  CG5 MOL d          17.280   1.542  -4.462  0.00  0.00     0.012 C 
ENDBRANCH  44  63
ENDBRANCH  41  44
ENDBRANCH  39  40
BRANCH  39  66
ATOM     66  C53 MOL d          17.322  -3.095   0.409  0.00  0.00     0.066 C 
BRANCH  66  67
ATOM     67  C54 MOL d          16.722  -4.183  -0.447  0.00  0.00    -0.056 A 
ATOM     68  C55 MOL d          15.424  -4.052  -0.920  0.00  0.00     0.007 A 
ATOM     69  C56 MOL d          14.877  -5.063  -1.692  0.00  0.00     0.001 A 
ATOM     70  C57 MOL d          15.608  -6.226  -1.975  0.00  0.00     0.000 A 
ATOM     71  C58 MOL d          16.916  -6.371  -1.502  0.00  0.00     0.001 A 
ATOM     72  C59 MOL d          17.464  -5.345  -0.729  0.00  0.00     0.007 A 
ENDBRANCH  66  67
ENDBRANCH  39  66
ENDBRANCH  38  39
BRANCH  38  73
ATOM     73  O51 MOL d          19.783  -2.079   0.065  0.00  0.00    -0.391 OA
ATOM     74  H56 MOL d          20.605  -1.787   0.442  0.00  0.00     0.210 HD
ENDBRANCH  38  73
ENDBRANCH   1  38
TORSDOF 27
