REMARK  2 active torsions:
REMARK  status: ('A' for Active; 'I' for Inactive)
REMARK    1  A    between atoms: C3_3  and  O3_20 
REMARK    2  A    between atoms: C5_5  and  O4_21 
ROOT
ATOM      1  C1  P2N d         -18.219  34.380  -6.099  0.00  0.00     0.296 C 
ATOM      2  C2  P2N d         -18.190  33.498  -4.878  0.00  0.00     0.081 A 
ATOM      3  C3  P2N d         -17.266  32.446  -4.828  0.00  0.00     0.085 A 
ATOM      4  C4  P2N d         -17.228  31.587  -3.733  0.00  0.00     0.076 A 
ATOM      5  C5  P2N d         -18.134  31.799  -2.703  0.00  0.00     0.090 A 
ATOM      6  C6  P2N d         -19.029  32.835  -2.757  0.00  0.00     0.075 A 
ATOM      7  C7  P2N d         -19.090  33.687  -3.850  0.00  0.00    -0.008 A 
ATOM      8  C8  P2N d         -20.105  34.821  -3.880  0.00  0.00     0.119 C 
ATOM      9  C9  P2N d         -21.532  34.412  -4.300  0.00  0.00     0.131 C 
ATOM     10  C10 P2N d         -21.944  32.992  -4.709  0.00  0.00     0.078 C 
ATOM     11  C11 P2N d         -23.333  32.869  -5.349  0.00  0.00     0.008 C 
ATOM     12  C12 P2N d         -23.459  31.798  -6.434  0.00  0.00     0.004 C 
ATOM     13  C13 P2N d         -22.959  32.143  -7.856  0.00  0.00     0.027 C 
ATOM     14  C14 P2N d         -22.402  33.533  -8.175  0.00  0.00    -0.031 C 
ATOM     15  C15 P2N d         -21.136  33.552  -8.558  0.00  0.00    -0.029 C 
ATOM     16  C16 P2N d         -20.298  34.751  -8.935  0.00  0.00     0.053 C 
ATOM     17  C17 P2N d         -19.677  35.522  -7.764  0.00  0.00     0.183 C 
ATOM     18  O1  P2N d         -19.522  34.707  -6.599  0.00  0.00    -0.317 OA
ATOM     19  O2  P2N d         -17.225  34.730  -6.712  0.00  0.00    -0.259 OA
ATOM     20 CL1  P2N d         -20.129  33.053  -1.378  0.00  0.00    -0.081 Cl
ATOM     21  O5  P2N d         -22.339  35.308  -4.280  0.00  0.00    -0.298 OA
ENDROOT
BRANCH   3  22
ATOM     22  O3  P2N d         -16.396  32.276  -5.864  0.00  0.00    -0.360 OA
ATOM     23  H18 P2N d         -16.556  32.941  -6.523  0.00  0.00     0.217 HD
ENDBRANCH   3  22
BRANCH   5  24
ATOM     24  O4  P2N d         -18.156  30.981  -1.626  0.00  0.00    -0.359 OA
ATOM     25  H19 P2N d         -17.487  30.314  -1.723  0.00  0.00     0.217 HD
ENDBRANCH   5  24
TORSDOF 2
