REMARK  25 active torsions:
REMARK  status: ('A' for Active; 'I' for Inactive)
REMARK    1  A    between atoms: CA_2  and  C_3 
REMARK       I    between atoms: C_3  and  N_8 
REMARK    2  A    between atoms: N_8  and  CA_9 
REMARK    3  A    between atoms: CA_9  and  C_10 
REMARK    4  A    between atoms: CA_9  and  CB_12 
REMARK       I    between atoms: C_10  and  N_17 
REMARK    5  A    between atoms: CB_12  and  CG_13 
REMARK    6  A    between atoms: CG_13  and  CD_14 
REMARK       I    between atoms: CD_14  and  NE2_16 
REMARK    7  A    between atoms: CA_18  and  C_19 
REMARK       I    between atoms: C_19  and  N_24 
REMARK    8  A    between atoms: N_24  and  CA_25 
REMARK    9  A    between atoms: CA_25  and  C_26 
REMARK   10  A    between atoms: CA_25  and  CB_28 
REMARK       I    between atoms: C_26  and  N_31 
REMARK   11  A    between atoms: N_31  and  CA_32 
REMARK   12  A    between atoms: CA_32  and  C_33 
REMARK   13  A    between atoms: CA_32  and  CB_35 
REMARK       I    between atoms: C_33  and  N_39 
REMARK   14  A    between atoms: CB_35  and  CG_36 
REMARK   15  A    between atoms: N_39  and  CA_40 
REMARK   16  A    between atoms: CA_40  and  C_41 
REMARK   17  A    between atoms: CA_40  and  CB_43 
REMARK       I    between atoms: C_41  and  N_45 
REMARK   18  A    between atoms: CB_43  and  OG_44 
REMARK   19  A    between atoms: N_45  and  CA_46 
REMARK   20  A    between atoms: CA_46  and  C_47 
REMARK   21  A    between atoms: CA_46  and  CB_49 
REMARK       I    between atoms: C_47  and  N_59 
REMARK   22  A    between atoms: CB_49  and  CG_50 
REMARK   23  A    between atoms: N_59  and  CA_60 
REMARK   24  A    between atoms: CA_60  and  C_61 
REMARK   25  A    between atoms: CA_60  and  CB_63 
ROOT
ATOM      1  CA  PRO d           3.446 -10.245  -9.319  0.00  0.00     0.186 C 
ENDROOT
BRANCH   1   2
ATOM      2  N   PRO d           2.894 -11.542  -8.918  0.00  0.00    -0.345 N 
ATOM      3  C   PRO d           3.366 -12.698  -9.391  0.00  0.00     0.241 C 
ATOM      4  O   PRO d           4.386 -12.785 -10.071  0.00  0.00    -0.271 OA
ATOM      5  H32 PRO d           2.136 -11.562  -8.266  0.00  0.00     0.163 HD
BRANCH   3   6
ATOM      6  CA  PRO d           2.613 -13.961  -8.972  0.00  0.00     0.180 C 
BRANCH   6   7
ATOM      7  N   PRO d           1.375 -13.652  -8.230  0.00  0.00    -0.346 N 
ATOM      8  C   PRO d           1.201 -14.075  -6.990  0.00  0.00     0.241 C 
ATOM      9  O   PRO d           2.017 -14.789  -6.409  0.00  0.00    -0.271 OA
ATOM     10  H23 PRO d           0.657 -13.114  -8.672  0.00  0.00     0.163 HD
BRANCH   8  11
ATOM     11  CA  PRO d          -0.063 -13.579  -6.291  0.00  0.00     0.179 C 
ATOM     12  N   PRO d          -0.462 -14.454  -5.217  0.00  0.00    -0.337 N 
ATOM     13  C   PRO d          -0.966 -15.651  -5.525  0.00  0.00     0.247 C 
ATOM     14  CD  PRO d          -0.216 -13.853  -3.892  0.00  0.00     0.127 C 
ATOM     15  O   PRO d          -1.105 -16.044  -6.705  0.00  0.00    -0.271 OA
ATOM     16  CG  PRO d           0.600 -12.620  -4.226  0.00  0.00     0.022 C 
ATOM     17  CB  PRO d           0.201 -12.257  -5.572  0.00  0.00     0.037 C 
BRANCH  13  18
ATOM     18  CA  PRO d          -1.405 -16.499  -4.333  0.00  0.00     0.200 C 
BRANCH  18  19
ATOM     19  N   PRO d          -2.515 -17.331  -4.714  0.00  0.00    -0.343 N 
ATOM     20  C   PRO d          -3.684 -16.824  -5.090  0.00  0.00     0.249 C 
ATOM     21  O   PRO d          -3.949 -15.611  -5.042  0.00  0.00    -0.271 OA
ATOM     22  H10 PRO d          -2.403 -18.325  -4.695  0.00  0.00     0.163 HD
BRANCH  20  23
ATOM     23  CA  PRO d          -4.715 -17.841  -5.579  0.00  0.00     0.277 C 
ATOM     24  N   PRO d          -6.085 -17.367  -5.448  0.00  0.00    -0.062 N 
ATOM     25  CD  PRO d          -6.801 -17.379  -6.735  0.00  0.00     0.233 C 
ATOM     26  H1  PRO d          -6.070 -16.424  -5.093  0.00  0.00     0.278 HD
ATOM     27  H2  PRO d          -6.574 -17.962  -4.798  0.00  0.00     0.278 HD
ATOM     28  CG  PRO d          -5.711 -17.370  -7.732  0.00  0.00     0.030 C 
ATOM     29  CB  PRO d          -4.568 -18.085  -7.083  0.00  0.00     0.044 C 
ENDBRANCH  20  23
ENDBRANCH  18  19
BRANCH  18  30
ATOM     30  CB  PRO d          -0.243 -17.320  -3.792  0.00  0.00     0.013 C 
BRANCH  30  31
ATOM     31  CG  PRO d           0.535 -18.005  -4.862  0.00  0.00     0.072 C 
BRANCH  31  32
ATOM     32  CD  PRO d           1.687 -18.873  -4.371  0.00  0.00     0.238 C 
ATOM     33  OE1 PRO d           1.907 -19.075  -3.168  0.00  0.00    -0.269 OA
ATOM     34  NE2 PRO d           2.437 -19.377  -5.320  0.00  0.00    -0.367 N 
ATOM     35  H14 PRO d           3.216 -19.959  -5.086  0.00  0.00     0.159 HD
ATOM     36  H15 PRO d           2.231 -19.180  -6.278  0.00  0.00     0.159 HD
ENDBRANCH  31  32
ENDBRANCH  30  31
ENDBRANCH  18  30
ENDBRANCH  13  18
ENDBRANCH   8  11
ENDBRANCH   6   7
BRANCH   6  37
ATOM     37  CB  PRO d           2.367 -14.894 -10.171  0.00  0.00     0.009 C 
ATOM     38  CG1 PRO d           1.685 -16.182  -9.692  0.00  0.00     0.012 C 
ATOM     39  CG2 PRO d           1.541 -14.236 -11.242  0.00  0.00     0.012 C 
ENDBRANCH   6  37
ENDBRANCH   3   6
ENDBRANCH   1   2
BRANCH   1  40
ATOM     40  C   PRO d           3.942  -9.393  -8.166  0.00  0.00     0.241 C 
ATOM     41  O   PRO d           3.532  -9.564  -7.004  0.00  0.00    -0.271 OA
ATOM     42  N   PRO d           4.829  -8.451  -8.505  0.00  0.00    -0.344 N 
ATOM     43  H36 PRO d           5.085  -8.362  -9.468  0.00  0.00     0.163 HD
BRANCH  42  44
ATOM     44  CA  PRO d           5.433  -7.559  -7.551  0.00  0.00     0.200 C 
BRANCH  44  45
ATOM     45  C   PRO d           5.432  -6.153  -8.136  0.00  0.00     0.243 C 
ATOM     46  O   PRO d           5.809  -5.990  -9.300  0.00  0.00    -0.271 OA
ATOM     47  N   PRO d           5.084  -5.172  -7.317  0.00  0.00    -0.346 N 
ATOM     48  H41 PRO d           4.827  -5.397  -6.377  0.00  0.00     0.163 HD
BRANCH  47  49
ATOM     49  CA  PRO d           5.062  -3.763  -7.741  0.00  0.00     0.181 C 
BRANCH  49  50
ATOM     50  C   PRO d           6.415  -3.112  -7.662  0.00  0.00     0.241 C 
ATOM     51  O   PRO d           7.182  -3.323  -6.701  0.00  0.00    -0.271 OA
ATOM     52  N   PRO d           6.678  -2.261  -8.666  0.00  0.00    -0.344 N 
ATOM     53  H51 PRO d           5.962  -2.083  -9.341  0.00  0.00     0.163 HD
BRANCH  52  54
ATOM     54  CA  PRO d           7.934  -1.599  -8.814  0.00  0.00     0.189 C 
BRANCH  54  55
ATOM     55  C   PRO d           7.629  -0.125  -9.087  0.00  0.00     0.197 C 
ATOM     56  O   PRO d           8.567   0.667  -8.994  0.00  0.00    -0.646 OA
ATOM     57  OXT PRO d           6.457   0.225  -9.357  0.00  0.00    -0.646 OA
ENDBRANCH  54  55
BRANCH  54  58
ATOM     58  CB  PRO d           8.828  -2.235  -9.925  0.00  0.00     0.010 C 
ATOM     59  CG1 PRO d           9.228  -3.658  -9.496  0.00  0.00     0.012 C 
ATOM     60  CG2 PRO d           8.159  -2.263 -11.306  0.00  0.00     0.012 C 
ENDBRANCH  54  58
ENDBRANCH  52  54
ENDBRANCH  49  50
BRANCH  49  61
ATOM     61  CB  PRO d           4.004  -3.004  -6.898  0.00  0.00     0.075 C 
BRANCH  61  62
ATOM     62  CG  PRO d           2.620  -3.408  -7.323  0.00  0.00    -0.028 A 
ATOM     63  CD1 PRO d           1.890  -4.506  -6.914  0.00  0.00     0.096 A 
ATOM     64  NE1 PRO d           0.711  -4.551  -7.560  0.00  0.00    -0.365 N 
ATOM     65  CE2 PRO d           0.624  -3.485  -8.420  0.00  0.00     0.042 A 
ATOM     66  H46 PRO d          -0.013  -5.272  -7.430  0.00  0.00     0.165 HD
ATOM     67  CD2 PRO d           1.813  -2.750  -8.300  0.00  0.00    -0.002 A 
ATOM     68  CZ2 PRO d          -0.385  -3.122  -9.303  0.00  0.00     0.030 A 
ATOM     69  CE3 PRO d           1.975  -1.588  -9.077  0.00  0.00     0.014 A 
ATOM     70  CZ3 PRO d           0.968  -1.228  -9.942  0.00  0.00     0.001 A 
ATOM     71  CH2 PRO d          -0.193  -1.978 -10.048  0.00  0.00     0.002 A 
ENDBRANCH  61  62
ENDBRANCH  49  61
ENDBRANCH  47  49
ENDBRANCH  44  45
BRANCH  44  72
ATOM     72  CB  PRO d           6.876  -7.970  -7.239  0.00  0.00     0.199 C 
BRANCH  72  73
ATOM     73  OG  PRO d           6.958  -9.297  -6.739  0.00  0.00    -0.398 OA
ATOM     74  H40 PRO d           7.866  -9.511  -6.559  0.00  0.00     0.209 HD
ENDBRANCH  72  73
ENDBRANCH  44  72
ENDBRANCH  42  44
ENDBRANCH   1  40
BRANCH   1  75
ATOM     75  CB  PRO d           2.434  -9.446 -10.176  0.00  0.00     0.147 C 
BRANCH  75  76
ATOM     76  CG  PRO d           1.177  -9.024  -9.447  0.00  0.00     0.175 C 
ATOM     77  OD1 PRO d           0.785  -9.680  -8.455  0.00  0.00    -0.648 OA
ATOM     78  OD2 PRO d           0.532  -8.010  -9.937  0.00  0.00    -0.648 OA
ENDBRANCH  75  76
ENDBRANCH   1  75
TORSDOF 25
