REMARK  7 active torsions:
REMARK  status: ('A' for Active; 'I' for Inactive)
REMARK    1  A    between atoms: N4_4  and  C8_8 
REMARK    2  A    between atoms: C10_10  and  N14_14 
REMARK    3  A    between atoms: C12_12  and  S23_21 
REMARK    4  A    between atoms: N14_14  and  C15_15 
REMARK    5  A    between atoms: S23_21  and  C24_22 
REMARK    6  A    between atoms: C27_25  and  N30_28 
REMARK       I    between atoms: N30_28  and  C31_29 
REMARK    7  A    between atoms: C31_29  and  C33_31 
ROOT
ATOM      1  C8  VX6 d          23.165  29.172  20.301  0.00  0.00     0.132 A 
ATOM      2  C9  VX6 d          23.159  29.209  18.925  0.00  0.00     0.100 A 
ATOM      3  C10 VX6 d          24.254  28.658  18.281  0.00  0.00     0.135 A 
ATOM      4  N11 VX6 d          25.272  28.106  18.974  0.00  0.00    -0.205 NA
ATOM      5  C12 VX6 d          25.198  28.108  20.302  0.00  0.00     0.197 A 
ATOM      6  N13 VX6 d          24.192  28.637  20.977  0.00  0.00    -0.205 NA
ENDROOT
BRANCH   5   7
ATOM      7  S23 VX6 d          26.528  27.432  21.280  0.00  0.00    -0.050 SA
BRANCH   7   8
ATOM      8  C24 VX6 d          27.263  26.342  20.103  0.00  0.00     0.008 A 
ATOM      9  C25 VX6 d          28.375  26.752  19.403  0.00  0.00     0.021 A 
ATOM     10  C26 VX6 d          28.935  25.923  18.464  0.00  0.00     0.031 A 
ATOM     11  C27 VX6 d          28.387  24.683  18.243  0.00  0.00     0.034 A 
ATOM     12  C28 VX6 d          27.287  24.259  18.959  0.00  0.00     0.031 A 
ATOM     13  C29 VX6 d          26.725  25.094  19.891  0.00  0.00     0.021 A 
BRANCH  11  14
ATOM     14  N30 VX6 d          28.916  23.794  17.297  0.00  0.00    -0.327 N 
ATOM     15  C31 VX6 d          30.100  23.953  16.600  0.00  0.00     0.226 C 
ATOM     16  O32 VX6 d          30.999  24.802  16.742  0.00  0.00    -0.273 OA
ATOM     17  H24 VX6 d          28.387  22.966  17.108  0.00  0.00     0.169 HD
BRANCH  15  18
ATOM     18  C33 VX6 d          30.204  22.902  15.568  0.00  0.00     0.078 A 
ATOM     19  C34 VX6 d          31.031  23.219  14.361  0.00  0.00     0.015 A 
ATOM     20  C35 VX6 d          31.533  22.231  15.376  0.00  0.00     0.015 A 
ENDBRANCH  15  18
ENDBRANCH  11  14
ENDBRANCH   7   8
ENDBRANCH   5   7
BRANCH   3  21
ATOM     21  N14 VX6 d          24.224  28.718  16.859  0.00  0.00    -0.326 N 
ATOM     22  H14 VX6 d          23.334  29.044  16.456  0.00  0.00     0.169 HD
BRANCH  21  23
ATOM     23  C15 VX6 d          25.196  28.409  15.944  0.00  0.00     0.125 A 
ATOM     24  C17 VX6 d          26.466  27.860  16.261  0.00  0.00     0.078 A 
ATOM     25  C18 VX6 d          27.114  27.686  15.058  0.00  0.00     0.054 A 
ATOM     26  N19 VX6 d          26.248  28.131  14.096  0.00  0.00    -0.178 NA
ATOM     27  C21 VX6 d          28.442  27.146  14.724  0.00  0.00     0.072 C 
ATOM     28  N20 VX6 d          25.083  28.562  14.612  0.00  0.00    -0.262 N 
ATOM     29  H16 VX6 d          24.273  28.932  14.095  0.00  0.00     0.191 HD
ENDBRANCH  21  23
ENDBRANCH   3  21
BRANCH   1  30
ATOM     30  N4  VX6 d          22.099  29.731  21.000  0.00  0.00    -0.362 N 
ATOM     31  C3  VX6 d          20.927  29.979  20.199  0.00  0.00     0.152 C 
ATOM     32  C2  VX6 d          19.783  30.582  20.984  0.00  0.00     0.254 C 
ATOM     33  N1  VX6 d          19.620  30.120  22.355  0.00  0.00    -0.072 N 
ATOM     34  C6  VX6 d          20.647  29.220  22.903  0.00  0.00     0.254 C 
ATOM     35  C7  VX6 d          18.372  29.394  22.379  0.00  0.00     0.269 C 
ATOM     36  H1  VX6 d          19.566  30.929  22.954  0.00  0.00     0.279 HD
ATOM     37  C5  VX6 d          22.071  29.512  22.445  0.00  0.00     0.152 C 
ENDBRANCH   1  30
TORSDOF 7
