REMARK  7 active torsions:
REMARK  status: ('A' for Active; 'I' for Inactive)
REMARK    1  A    between atoms: O4_16  and  C1_1 
REMARK    2  A    between atoms: C2_2  and  O2_6 
REMARK    3  A    between atoms: C3_3  and  O3_7 
REMARK    4  A    between atoms: C4_4  and  O4_8 
REMARK    5  A    between atoms: C2_11  and  O2_12 
REMARK    6  A    between atoms: C3_13  and  O3_14 
REMARK    7  A    between atoms: O4_16  and  C4_15 
ROOT
ATOM      1  O4  XYS d          18.429  65.956  38.696  0.00  0.00    -0.349 OA
ENDROOT
BRANCH   1   2
ATOM      2  C4  XYS d          18.704  66.900  37.670  0.00  0.00     0.181 C 
ATOM      3  C3  XYS d          19.732  67.920  38.195  0.00  0.00     0.179 C 
ATOM      4  C2  XYS d          20.213  68.811  37.019  0.00  0.00     0.175 C 
ATOM      5  C1  XYS d          20.560  68.080  35.798  0.00  0.00     0.266 C 
ATOM      6  N5  XYS d          19.674  67.109  35.404  0.00  0.00    -0.070 N 
ATOM      7  C5  XYS d          19.303  66.160  36.441  0.00  0.00     0.266 C 
ATOM      8  H19 XYS d          20.091  66.595  34.644  0.00  0.00     0.277 HD
ATOM      9  H20 XYS d          18.834  67.564  35.081  0.00  0.00     0.277 HD
BRANCH   3  10
ATOM     10  O3  XYS d          19.113  68.708  39.201  0.00  0.00    -0.390 OA
ATOM     11  H15 XYS d          18.824  68.145  39.909  0.00  0.00     0.210 HD
ENDBRANCH   3  10
BRANCH   4  12
ATOM     12  O2  XYS d          21.155  69.740  37.421  0.00  0.00    -0.391 OA
ATOM     13  H13 XYS d          20.778  70.305  38.085  0.00  0.00     0.210 HD
ENDBRANCH   4  12
ENDBRANCH   1   2
BRANCH   1  14
ATOM     14  C1  XYS d          17.122  65.379  38.506  0.00  0.00     0.291 C 
ATOM     15  O5  XYS d          16.133  66.411  38.521  0.00  0.00    -0.356 OA
ATOM     16  C5  XYS d          14.799  65.916  38.355  0.00  0.00     0.205 C 
ATOM     17  C4  XYS d          14.453  65.035  39.562  0.00  0.00     0.173 C 
ATOM     18  C3  XYS d          15.411  63.856  39.612  0.00  0.00     0.182 C 
ATOM     19  C2  XYS d          16.866  64.370  39.642  0.00  0.00     0.204 C 
BRANCH  17  20
ATOM     20  O4  XYS d          13.110  64.559  39.482  0.00  0.00    -0.391 OA
ATOM     21  H9  XYS d          12.918  64.028  40.246  0.00  0.00     0.210 HD
ENDBRANCH  17  20
BRANCH  18  22
ATOM     22  O3  XYS d          15.152  63.091  40.784  0.00  0.00    -0.390 OA
ATOM     23  H8  XYS d          14.256  62.776  40.763  0.00  0.00     0.210 HD
ENDBRANCH  18  22
BRANCH  19  24
ATOM     24  O2  XYS d          17.744  63.264  39.470  0.00  0.00    -0.388 OA
ATOM     25  H7  XYS d          18.644  63.567  39.502  0.00  0.00     0.210 HD
ENDBRANCH  19  24
ENDBRANCH   1  14
TORSDOF 7
