REMARK  3 active torsions:
REMARK  status: ('A' for Active; 'I' for Inactive)
REMARK    1  A    between atoms: C1_1  and  S1_12 
REMARK    2  A    between atoms: N4_8  and  C2_2 
REMARK       I    between atoms: C3_3  and  N4_8 
REMARK    3  A    between atoms: S1_12  and  N1_5 
ROOT
ATOM      1  C1  AZM d          -5.095   2.081  15.800  0.00  0.00     0.237 A 
ATOM      2  C2  AZM d          -4.692   3.959  14.342  0.00  0.00     0.197 A 
ATOM      3  N2  AZM d          -3.597   3.326  14.709  0.00  0.00    -0.122 NA
ATOM      4  N3  AZM d          -3.820   2.185  15.542  0.00  0.00    -0.126 NA
ATOM      5  S2  AZM d          -6.073   3.304  15.033  0.00  0.00    -0.015 SA
ENDROOT
BRANCH   1   6
ATOM      6  S1  AZM d          -5.854   0.821  16.793  0.00  0.00     0.282 S 
ATOM      7  O1  AZM d          -5.327   1.056  18.082  0.00  0.00    -0.199 OA
ATOM      8  O2  AZM d          -7.246   1.049  16.567  0.00  0.00    -0.199 OA
BRANCH   6   9
ATOM      9  N1  AZM d          -5.424  -0.555  16.188  0.00  0.00    -0.323 N 
ATOM     10  H4  AZM d          -5.746  -1.406  16.603  0.00  0.00     0.169 HD
ATOM     11  H5  AZM d          -4.827  -0.584  15.386  0.00  0.00     0.169 HD
ENDBRANCH   6   9
ENDBRANCH   1   6
BRANCH   2  12
ATOM     12  N4  AZM d          -4.685   5.076  13.508  0.00  0.00    -0.305 N 
ATOM     13  C3  AZM d          -5.842   5.662  13.147  0.00  0.00     0.219 C 
ATOM     14  C4  AZM d          -5.697   6.765  12.120  0.00  0.00     0.117 C 
ATOM     15  O3  AZM d          -6.936   5.292  13.550  0.00  0.00    -0.274 OA
ATOM     16  H6  AZM d          -3.816   5.444  13.176  0.00  0.00     0.171 HD
ENDBRANCH   2  12
TORSDOF 3
