REMARK  17 active torsions:
REMARK  status: ('A' for Active; 'I' for Inactive)
REMARK    1  A    between atoms: S8_2  and  C5_4 
REMARK    2  A    between atoms: S8_2  and  N11_12 
REMARK    3  A    between atoms: C2_9  and  O1_10 
REMARK    4  A    between atoms: N11_12  and  C12_13 
REMARK    5  A    between atoms: N11_12  and  C16_18 
REMARK    6  A    between atoms: C12_13  and  C13_14 
REMARK    7  A    between atoms: C13_14  and  C15_16 
REMARK    8  A    between atoms: C16_18  and  C17_19 
REMARK    9  A    between atoms: C17_19  and  O18_20 
REMARK   10  A    between atoms: C17_19  and  C19_21 
REMARK   11  A    between atoms: C19_21  and  C32_22 
REMARK   12  A    between atoms: C19_21  and  N20_29 
REMARK   13  A    between atoms: C32_22  and  C38_23 
REMARK       I    between atoms: N20_29  and  C21_30 
REMARK   14  A    between atoms: C21_30  and  O23_32 
REMARK   15  A    between atoms: O23_32  and  C22_33 
REMARK   16  A    between atoms: C22_33  and  C23_34 
REMARK   17  A    between atoms: C23_34  and  N24_35 
ROOT
ATOM      1  C19 M86 d          -5.810   0.036 -14.173  0.00  0.00     0.120 C 
ENDROOT
BRANCH   1   2
ATOM      2  C17 M86 d          -5.454  -0.395 -15.603  0.00  0.00     0.155 C 
BRANCH   2   3
ATOM      3  C16 M86 d          -6.360  -1.505 -16.166  0.00  0.00     0.141 C 
BRANCH   3   4
ATOM      4  N11 M86 d          -6.083  -2.740 -15.395  0.00  0.00    -0.204 NA
BRANCH   4   5
ATOM      5  S8  M86 d          -7.371  -3.373 -14.628  0.00  0.00     0.243 S 
ATOM      6  O10 M86 d          -8.159  -2.303 -14.117  0.00  0.00    -0.206 OA
ATOM      7  O9  M86 d          -6.796  -4.225 -13.600  0.00  0.00    -0.206 OA
BRANCH   5   8
ATOM      8  C5  M86 d          -8.269  -4.295 -15.649  0.00  0.00     0.074 A 
ATOM      9  C6  M86 d          -9.255  -3.715 -16.451  0.00  0.00     0.027 A 
ATOM     10  C7  M86 d          -9.988  -4.493 -17.360  0.00  0.00     0.038 A 
ATOM     11  C2  M86 d          -9.752  -5.852 -17.484  0.00  0.00     0.068 A 
ATOM     12  C3  M86 d          -8.771  -6.447 -16.691  0.00  0.00     0.038 A 
ATOM     13  C4  M86 d          -8.045  -5.669 -15.785  0.00  0.00     0.027 A 
BRANCH  11  14
ATOM     14  O1  M86 d         -10.476  -6.574 -18.406  0.00  0.00    -0.356 OA
ATOM     15  C1  M86 d         -10.091  -7.934 -18.657  0.00  0.00     0.210 C 
ENDBRANCH  11  14
ENDBRANCH   5   8
ENDBRANCH   4   5
BRANCH   4  16
ATOM     16  C12 M86 d          -5.311  -3.756 -16.162  0.00  0.00     0.112 C 
BRANCH  16  17
ATOM     17  C13 M86 d          -3.807  -3.462 -16.181  0.00  0.00    -0.005 C 
ATOM     18  C14 M86 d          -3.184  -3.454 -14.787  0.00  0.00     0.011 C 
BRANCH  17  19
ATOM     19  C15 M86 d          -3.091  -4.440 -17.129  0.00  0.00     0.001 C 
ATOM     20  C18 M86 d          -3.249  -5.883 -16.734  0.00  0.00     0.005 C 
ENDBRANCH  17  19
ENDBRANCH  16  17
ENDBRANCH   4  16
ENDBRANCH   3   4
ENDBRANCH   2   3
BRANCH   2  21
ATOM     21  O18 M86 d          -5.524   0.760 -16.464  0.00  0.00    -0.392 OA
ATOM     22  H22 M86 d          -4.965   1.446 -16.118  0.00  0.00     0.210 HD
ENDBRANCH   2  21
ENDBRANCH   1   2
BRANCH   1  23
ATOM     23  C32 M86 d          -7.137   0.801 -14.047  0.00  0.00     0.066 C 
BRANCH  23  24
ATOM     24  C38 M86 d          -7.402   1.120 -12.585  0.00  0.00    -0.056 A 
ATOM     25  C37 M86 d          -7.891   0.133 -11.735  0.00  0.00     0.007 A 
ATOM     26  C36 M86 d          -8.130   0.424 -10.392  0.00  0.00     0.001 A 
ATOM     27  C35 M86 d          -7.878   1.695  -9.891  0.00  0.00     0.000 A 
ATOM     28  C34 M86 d          -7.387   2.680 -10.738  0.00  0.00     0.001 A 
ATOM     29  C33 M86 d          -7.155   2.396 -12.081  0.00  0.00     0.007 A 
ENDBRANCH  23  24
ENDBRANCH   1  23
BRANCH   1  30
ATOM     30  N20 M86 d          -4.752   0.896 -13.660  0.00  0.00    -0.329 N 
ATOM     31  C21 M86 d          -3.871   0.557 -12.731  0.00  0.00     0.360 C 
ATOM     32  O22 M86 d          -3.737  -0.529 -12.202  0.00  0.00    -0.239 OA
ATOM     33  H31 M86 d          -4.685   1.818 -14.041  0.00  0.00     0.165 HD
BRANCH  31  34
ATOM     34  O23 M86 d          -3.019   1.646 -12.316  0.00  0.00    -0.303 OA
BRANCH  34  35
ATOM     35  C22 M86 d          -2.051   1.494 -11.268  0.00  0.00     0.195 C 
BRANCH  35  36
ATOM     36  C23 M86 d          -1.767   2.888 -10.709  0.00  0.00     0.127 C 
BRANCH  36  37
ATOM     37  N24 M86 d          -2.990   3.365 -10.026  0.00  0.00    -0.231 NA
ATOM     38  C25 M86 d          -2.847   3.622  -8.575  0.00  0.00     0.120 C 
ATOM     39  C26 M86 d          -4.135   4.390  -8.259  0.00  0.00     0.139 C 
ATOM     40  N27 M86 d          -4.453   5.001  -9.532  0.00  0.00    -0.346 N 
ATOM     41  C28 M86 d          -3.730   4.484 -10.513  0.00  0.00     0.296 C 
ATOM     42  H38 M86 d          -5.134   5.723  -9.655  0.00  0.00     0.163 HD
ATOM     43  O29 M86 d          -3.709   4.914 -11.654  0.00  0.00    -0.254 OA
ENDBRANCH  36  37
ENDBRANCH  35  36
ENDBRANCH  34  35
ENDBRANCH  31  34
ENDBRANCH   1  30
TORSDOF 17
