REMARK  11 active torsions:
REMARK  status: ('A' for Active; 'I' for Inactive)
REMARK    1  A    between atoms: C17_1  and  C16_2 
REMARK    2  A    between atoms: C20_3  and  C17_1 
REMARK    3  A    between atoms: C23_4  and  C20_3 
REMARK       I    between atoms: N25_19  and  C23_4 
REMARK    4  A    between atoms: C27_6  and  N25_19 
REMARK    5  A    between atoms: C29_20  and  C27_6 
REMARK    6  A    between atoms: C27_6  and  C43_26 
REMARK    7  A    between atoms: C7_12  and  N8_13 
REMARK    8  A    between atoms: C29_20  and  C32_21 
REMARK    9  A    between atoms: C46_28  and  C50_32 
REMARK   10  A    between atoms: C55_35  and  N60_38 
REMARK       I    between atoms: N60_38  and  C62_39 
REMARK   11  A    between atoms: C62_39  and  O64_41 
ROOT
ATOM      1  C27 MOL d          39.952 -20.758  28.832  0.00  0.00     0.158 C 
ENDROOT
BRANCH   1   2
ATOM      2  N25 MOL d          39.328 -19.474  28.524  0.00  0.00    -0.349 N 
ATOM      3  C23 MOL d          39.269 -18.529  29.473  0.00  0.00     0.218 C 
ATOM      4  O24 MOL d          39.775 -18.670  30.586  0.00  0.00    -0.274 OA
ATOM      5  H11 MOL d          38.949 -19.302  27.615  0.00  0.00     0.163 HD
BRANCH   3   6
ATOM      6  C20 MOL d          38.549 -17.249  29.109  0.00  0.00     0.107 C 
BRANCH   6   7
ATOM      7  C17 MOL d          37.431 -17.283  28.035  0.00  0.00     0.050 C 
BRANCH   7   8
ATOM      8  C16 MOL d          36.791 -15.906  27.930  0.00  0.00    -0.027 A 
ATOM      9  C7  MOL d          37.330 -14.871  27.151  0.00  0.00     0.067 A 
ATOM     10  C5  MOL d          36.744 -13.605  27.158  0.00  0.00     0.034 A 
ATOM     11  C3  MOL d          35.614 -13.364  27.935  0.00  0.00     0.026 A 
ATOM     12  C2  MOL d          35.090 -14.390  28.698  0.00  0.00     0.034 A 
ATOM     13 CL1  MOL d          33.688 -14.089  29.690  0.00  0.00    -0.084 Cl
ATOM     14  C14 MOL d          35.661 -15.647  28.707  0.00  0.00     0.033 A 
BRANCH   9  15
ATOM     15  N8  MOL d          38.473 -15.103  26.329  0.00  0.00    -0.206 N 
ATOM     16  C12 MOL d          38.498 -15.132  24.977  0.00  0.00     0.262 A 
ATOM     17  N11 MOL d          39.706 -15.408  24.567  0.00  0.00    -0.122 NA
ATOM     18  N10 MOL d          40.447 -15.558  25.690  0.00  0.00    -0.023 NA
ATOM     19  N9  MOL d          39.733 -15.371  26.759  0.00  0.00    -0.040 NA
ENDBRANCH   9  15
ENDBRANCH   7   8
ENDBRANCH   6   7
ENDBRANCH   3   6
ENDBRANCH   1   2
BRANCH   1  20
ATOM     20  C29 MOL d          39.395 -21.935  28.002  0.00  0.00     0.071 C 
BRANCH  20  21
ATOM     21  C32 MOL d          40.020 -23.255  28.397  0.00  0.00    -0.056 A 
ATOM     22  C33 MOL d          39.812 -23.790  29.670  0.00  0.00     0.007 A 
ATOM     23  C35 MOL d          40.561 -24.863  30.123  0.00  0.00     0.001 A 
ATOM     24  C37 MOL d          41.510 -25.444  29.306  0.00  0.00     0.000 A 
ATOM     25  C39 MOL d          41.695 -24.960  28.021  0.00  0.00     0.001 A 
ATOM     26  C41 MOL d          40.950 -23.878  27.567  0.00  0.00     0.007 A 
ENDBRANCH  20  21
ENDBRANCH   1  20
BRANCH   1  27
ATOM     27  C43 MOL d          41.452 -20.716  28.800  0.00  0.00     0.129 A 
ATOM     28  N44 MOL d          42.233 -20.982  29.893  0.00  0.00    -0.229 NA
ATOM     29  C46 MOL d          43.552 -20.933  29.496  0.00  0.00     0.107 A 
ATOM     30  C47 MOL d          43.533 -20.625  28.130  0.00  0.00     0.134 A 
ATOM     31 CL2  MOL d          44.831 -20.402  27.023  0.00  0.00    -0.062 Cl
ATOM     32  N49 MOL d          42.245 -20.492  27.715  0.00  0.00    -0.331 N 
ATOM     33  H18 MOL d          41.929 -20.265  26.761  0.00  0.00     0.168 HD
BRANCH  29  34
ATOM     34  C50 MOL d          44.625 -21.215  30.464  0.00  0.00    -0.004 A 
ATOM     35  C51 MOL d          45.903 -20.682  30.293  0.00  0.00     0.016 A 
ATOM     36  C53 MOL d          46.928 -21.016  31.165  0.00  0.00     0.030 A 
ATOM     37  C55 MOL d          46.683 -21.864  32.248  0.00  0.00     0.036 A 
ATOM     38  C56 MOL d          45.401 -22.367  32.439  0.00  0.00     0.030 A 
ATOM     39  C58 MOL d          44.389 -22.053  31.553  0.00  0.00     0.016 A 
BRANCH  37  40
ATOM     40  N60 MOL d          47.669 -22.284  33.177  0.00  0.00    -0.303 N 
ATOM     41  C62 MOL d          48.971 -21.883  33.240  0.00  0.00     0.364 C 
ATOM     42  O63 MOL d          49.551 -21.174  32.442  0.00  0.00    -0.238 OA
ATOM     43  H23 MOL d          47.376 -22.950  33.864  0.00  0.00     0.171 HD
BRANCH  41  44
ATOM     44  O64 MOL d          49.533 -22.400  34.347  0.00  0.00    -0.309 OA
ATOM     45  C65 MOL d          50.971 -22.236  34.471  0.00  0.00     0.215 C 
ENDBRANCH  41  44
ENDBRANCH  37  40
ENDBRANCH  29  34
ENDBRANCH   1  27
TORSDOF 11
