REMARK  4 active torsions:
REMARK  status: ('A' for Active; 'I' for Inactive)
REMARK    1  A    between atoms: C3_3  and  O3_4 
REMARK    2  A    between atoms: C4_5  and  O4_6 
REMARK    3  A    between atoms: C_9  and  C1_13 
REMARK    4  A    between atoms: C1_13  and  O30_11 
ROOT
ATOM      1  C2  FA3 d          29.369  51.446  57.932  0.00  0.00     0.088 C 
ATOM      2  F1  FA3 d          27.745  50.324  61.439  0.00  0.00    -0.208 F 
ATOM      3  C3  FA3 d          28.544  50.192  57.880  0.00  0.00     0.157 C 
ATOM      4  C4  FA3 d          28.435  49.672  59.292  0.00  0.00     0.208 C 
ATOM      5  C5  FA3 d          28.123  50.702  60.209  0.00  0.00     0.124 C 
ATOM      6  C6  FA3 d          28.196  52.054  59.940  0.00  0.00     0.062 C 
ATOM      7  C1  FA3 d          28.595  52.510  58.687  0.00  0.00     0.168 C 
ENDROOT
BRANCH   7   8
ATOM      8  C   FA3 d          29.438  53.699  58.866  0.00  0.00     0.213 C 
ATOM      9  O1  FA3 d          30.735  53.717  58.584  0.00  0.00    -0.645 OA
ATOM     10  O2  FA3 d          28.881  54.793  59.260  0.00  0.00    -0.645 OA
ENDBRANCH   7   8
BRANCH   7  11
ATOM     11  O30 FA3 d          27.528  52.954  57.873  0.00  0.00    -0.375 OA
ATOM     12  H8  FA3 d          27.079  53.672  58.304  0.00  0.00     0.211 HD
ENDBRANCH   7  11
BRANCH   3  13
ATOM     13  O3  FA3 d          29.235  49.252  57.062  0.00  0.00    -0.392 OA
ATOM     14  H4  FA3 d          28.733  48.447  57.013  0.00  0.00     0.210 HD
ENDBRANCH   3  13
BRANCH   4  15
ATOM     15  O4  FA3 d          27.476  48.636  59.354  0.00  0.00    -0.386 OA
ATOM     16  H6  FA3 d          27.415  48.316  60.246  0.00  0.00     0.210 HD
ENDBRANCH   4  15
TORSDOF 4
