REMARK  6 active torsions:
REMARK  status: ('A' for Active; 'I' for Inactive)
REMARK    1  A    between atoms: N_1  and  CA_2 
REMARK    2  A    between atoms: CA_2  and  C_3 
REMARK    3  A    between atoms: CA_2  and  CB_5 
REMARK    4  A    between atoms: CB_5  and  CG_6 
REMARK    5  A    between atoms: CG_6  and  ND_7 
REMARK       I    between atoms: ND_7  and  CE_8 
REMARK       I    between atoms: CE_8  and  NH1_9 
REMARK    6  A    between atoms: NH1_9  and  OH1_11 
ROOT
ATOM      1  CG  NNH d          25.082 -12.513  -4.580  0.00  0.00     0.141 C 
ENDROOT
BRANCH   1   2
ATOM      2  CB  NNH d          25.845 -11.272  -4.903  0.00  0.00     0.064 C 
BRANCH   2   3
ATOM      3  CA  NNH d          25.589  -9.881  -4.364  0.00  0.00     0.285 C 
BRANCH   3   4
ATOM      4  N   NNH d          25.985  -9.898  -2.966  0.00  0.00    -0.065 N 
ATOM      5  H1  NNH d          26.956 -10.159  -2.895  0.00  0.00     0.275 HD
ATOM      6  H2  NNH d          25.420 -10.566  -2.465  0.00  0.00     0.275 HD
ATOM      7  H3  NNH d          25.854  -8.981  -2.568  0.00  0.00     0.275 HD
ENDBRANCH   3   4
BRANCH   3   8
ATOM      8  C   NNH d          24.113  -9.489  -4.547  0.00  0.00     0.204 C 
ATOM      9  O   NNH d          23.336  -9.211  -3.657  0.00  0.00    -0.646 OA
ATOM     10  OXT NNH d          23.753  -9.485  -5.850  0.00  0.00    -0.646 OA
ENDBRANCH   3   8
ENDBRANCH   2   3
ENDBRANCH   1   2
BRANCH   1  11
ATOM     11  ND  NNH d          25.335 -13.668  -5.472  0.00  0.00    -0.223 N 
ATOM     12  CE  NNH d          25.370 -14.993  -5.165  0.00  0.00     0.716 C 
ATOM     13  NH1 NNH d          25.138 -15.401  -3.821  0.00  0.00     0.058 NA
ATOM     14  NH2 NNH d          25.613 -15.974  -6.060  0.00  0.00    -0.231 N 
ATOM     15  H10 NNH d          25.624 -16.958  -5.755  0.00  0.00     0.174 HD
ATOM     16  H11 NNH d          25.787 -15.739  -7.048  0.00  0.00     0.174 HD
ATOM     17  H9  NNH d          25.508 -13.436  -6.460  0.00  0.00     0.177 HD
BRANCH  13  18
ATOM     18  OH1 NNH d          25.169 -16.646  -3.517  0.00  0.00    -0.252 OA
ATOM     19  H12 NNH d          24.996 -16.748  -2.589  0.00  0.00     0.247 HD
ENDBRANCH  13  18
ENDBRANCH   1  11
TORSDOF 6
