4qjo_ligand

Created by X-TOOL on Sun Nov 13 14:28:12 2016
 51 53  0  0  0  0  0  0  0  0999 V2000
   -5.9800   17.8760   -5.8720  F 0  0  0  1  0  1
   -4.7100   18.0370   -5.4190  C 0  0  0  1  0  3
   -3.8580   16.9240   -5.3980  C 0  0  0  1  0  3
   -4.4640   15.3240   -5.9670  S 0  0  0  1  0  4
   -4.8030   15.2850   -7.4640  O 0  0  0  1  0  1
   -3.4220   13.9290   -5.6970  N 0  0  0  3  0  3
   -5.8080   14.9440   -5.3290  O 0  0  0  1  0  1
   -2.5430   17.0600   -4.9360  C 0  0  0  1  0  3
   -1.7090   15.9910   -4.9100  F 0  0  0  1  0  1
   -2.0780   18.3000   -4.4960  C 0  0  0  1  0  3
   -0.8010   18.4100   -4.0520  F 0  0  0  1  0  1
   -4.2470   19.2980   -4.9750  C 0  0  0  1  0  3
   -2.9200   19.4200   -4.5120  C 0  0  0  1  0  3
   -2.2860   21.0070   -3.9360  S 0  0  0  1  0  4
   -3.2800   22.0820   -4.3990  O 0  0  0  1  0  1
   -1.0920   21.4010   -4.8210  O 0  0  0  1  0  1
   -1.8640   21.4120   -2.2160  C 0  0  0  3  0  4
   -2.7300   20.6070   -1.2650  C 0  0  0  3  0  4
   -4.0950   21.2050   -1.1580  C 0  0  0  1  0  3
   -4.2760   22.4030   -0.4590  C 0  0  0  2  0  3
   -5.5510   22.9680   -0.3560  C 0  0  0  2  0  3
   -5.1900   20.5720   -1.7540  C 0  0  0  2  0  3
   -6.4690   21.1380   -1.6510  C 0  0  0  2  0  3
   -6.6470   22.3350   -0.9520  C 0  0  0  2  0  3
   -5.0870   20.4510   -4.9830  N 0  0  0  2  0  3
   -6.4550   20.4520   -5.4430  C 0  0  0  3  0  4
   -7.0240   21.8270   -5.3920  C 0  0  0  1  0  3
   -7.9090   22.1710   -4.3640  C 0  0  0  2  0  3
   -8.4490   23.4580   -4.3040  C 0  0  0  2  0  3
   -8.1050   24.4070   -5.2720  C 0  0  0  2  0  3
   -7.2210   24.0640   -6.3010  C 0  0  0  2  0  3
   -6.6800   22.7750   -6.3620  C 0  0  0  2  0  3
   -3.7153   13.0207   -5.9953  H 0  0  0  1  0  1
   -2.5374   14.0456   -5.2455  H 0  0  0  1  0  1
   -2.0330   22.4850   -2.0426  H 0  0  0  1  0  1
   -0.8056   21.1735   -2.0349  H 0  0  0  1  0  1
   -2.2611   20.5976   -0.2700  H 0  0  0  1  0  1
   -2.8159   19.5764   -1.6397  H 0  0  0  1  0  1
   -3.4272   22.8938    0.0032  H 0  0  0  1  0  1
   -5.6901   23.8966    0.1857  H 0  0  0  1  0  1
   -5.0503   19.6436   -2.2958  H 0  0  0  1  0  1
   -7.3183   20.6477   -2.1129  H 0  0  0  1  0  1
   -7.6352   22.7733   -0.8716  H 0  0  0  1  0  1
   -4.6926   21.3381   -4.6390  H 0  0  0  1  0  1
   -7.0530   19.7893   -4.8003  H 0  0  0  1  0  1
   -6.4882   20.0853   -6.4795  H 0  0  0  1  0  1
   -8.1762   21.4370   -3.6124  H 0  0  0  1  0  1
   -9.1349   23.7212   -3.5069  H 0  0  0  1  0  1
   -8.5224   25.4063   -5.2252  H 0  0  0  1  0  1
   -6.9547   24.7984   -7.0525  H 0  0  0  1  0  1
   -5.9952   22.5111   -7.1598  H 0  0  0  1  0  1
  1  2  1  0  0  2
  2  3  4  0  0  1
  2 12  4  0  0  1
  3  4  1  0  0  2
  3  8  4  0  0  1
  4  5  2  0  0  2
  4  6  1  0  0  2
  4  7  2  0  0  2
  8  9  1  0  0  2
  8 10  4  0  0  1
 10 11  1  0  0  2
 10 13  4  0  0  1
 12 13  4  0  0  1
 12 25  1  0  0  2
 13 14  1  0  0  2
 14 15  2  0  0  2
 14 16  2  0  0  2
 14 17  1  0  0  2
 17 18  1  0  0  2
 18 19  1  0  0  2
 19 20  4  0  0  1
 19 22  4  0  0  1
 20 21  4  0  0  1
 21 24  4  0  0  1
 22 23  4  0  0  1
 23 24  4  0  0  1
 25 26  1  0  0  2
 26 27  1  0  0  2
 27 28  4  0  0  1
 27 32  4  0  0  1
 28 29  4  0  0  1
 29 30  4  0  0  1
 30 31  4  0  0  1
 31 32  4  0  0  1
  6 33  1  0  0  2
  6 34  1  0  0  2
 17 35  1  0  0  2
 17 36  1  0  0  2
 18 37  1  0  0  2
 18 38  1  0  0  2
 20 39  1  0  0  2
 21 40  1  0  0  2
 22 41  1  0  0  2
 23 42  1  0  0  2
 24 43  1  0  0  2
 25 44  1  0  0  2
 26 45  1  0  0  2
 26 46  1  0  0  2
 28 47  1  0  0  2
 29 48  1  0  0  2
 30 49  1  0  0  2
 31 50  1  0  0  2
 32 51  1  0  0  2
M  END
> <MOLECULAR_FORMULA>
C21H19N2O4S2F3

> <MOLECULAR_WEIGHT>
484.4

> <NUM_HB_ATOMS>
6  

> <NUM_ROTOR>
7  

> <XLOGP2>
4.37 

$$$$
