REMARK  14 active torsions:
REMARK  status: ('A' for Active; 'I' for Inactive)
REMARK    1  A    between atoms: N01_1  and  C08_8 
REMARK    2  A    between atoms: N03_3  and  C23_23 
REMARK    3  A    between atoms: C04_4  and  C41_41 
REMARK    4  A    between atoms: C05_5  and  O30_30 
REMARK    5  A    between atoms: C06_6  and  O31_31 
REMARK    6  A    between atoms: C07_7  and  C32_32 
REMARK    7  A    between atoms: C08_8  and  C09_9 
REMARK    8  A    between atoms: C41_41  and  O16_16 
REMARK    9  A    between atoms: O16_16  and  C17_17 
REMARK   10  A    between atoms: C23_23  and  C24_24 
REMARK   11  A    between atoms: C32_32  and  O33_33 
REMARK   12  A    between atoms: O33_33  and  C34_34 
REMARK   13  A    between atoms: C42_42  and  O43_43 
REMARK   14  A    between atoms: C46_46  and  O47_47 
ROOT
ATOM      1  N01 AHF d          11.594  23.922   6.163  0.00  0.00    -0.180 NA
ATOM      2  S02 AHF d          11.941  22.288   6.477  0.00  0.00     0.302 S 
ATOM      3  N03 AHF d          13.610  22.422   6.259  0.00  0.00    -0.284 N 
ATOM      4  C04 AHF d          14.023  22.301   4.841  0.00  0.00     0.152 C 
ATOM      5  C05 AHF d          14.158  23.776   4.298  0.00  0.00     0.174 C 
ATOM      6  C06 AHF d          13.187  24.863   4.869  0.00  0.00     0.169 C 
ATOM      7  C07 AHF d          11.681  24.634   4.856  0.00  0.00     0.131 C 
ATOM      8  O15 AHF d          11.308  21.469   5.461  0.00  0.00    -0.188 OA
ATOM      9  O40 AHF d          11.737  22.006   7.833  0.00  0.00    -0.188 OA
ENDROOT
BRANCH   3  10
ATOM     10  C23 AHF d          14.508  22.802   7.411  0.00  0.00     0.175 C 
BRANCH  10  11
ATOM     11  C24 AHF d          15.413  21.902   8.178  0.00  0.00    -0.040 A 
ATOM     12  C29 AHF d          16.863  21.990   7.957  0.00  0.00     0.010 A 
ATOM     13  C28 AHF d          17.794  21.132   8.698  0.00  0.00     0.017 A 
ATOM     14  C27 AHF d          17.270  20.160   9.687  0.00  0.00     0.025 A 
ATOM     15  C26 AHF d          15.805  20.076   9.902  0.00  0.00     0.017 A 
ATOM     16  C42 AHF d          18.106  19.372  10.374  0.00  0.00     0.225 C 
ATOM     17  C25 AHF d          14.881  20.953   9.143  0.00  0.00     0.010 A 
ATOM     18  O44 AHF d          19.341  19.148   9.916  0.00  0.00    -0.163 OA
BRANCH  16  19
ATOM     19  O43 AHF d          17.702  18.805  11.552  0.00  0.00    -0.333 OA
ATOM     20  C45 AHF d          18.540  18.000  12.286  0.00  0.00     0.212 C 
ENDBRANCH  16  19
ENDBRANCH  10  11
ENDBRANCH   3  10
BRANCH   4  21
ATOM     21  C41 AHF d          15.336  21.479   4.610  0.00  0.00     0.204 C 
BRANCH  21  22
ATOM     22  O16 AHF d          15.016  20.468   3.576  0.00  0.00    -0.349 OA
BRANCH  22  23
ATOM     23  C17 AHF d          15.955  19.495   3.261  0.00  0.00     0.068 A 
ATOM     24  C22 AHF d          16.762  18.825   4.305  0.00  0.00     0.037 A 
ATOM     25  C21 AHF d          17.753  17.801   3.951  0.00  0.00     0.003 A 
ATOM     26  C20 AHF d          17.943  17.441   2.564  0.00  0.00     0.000 A 
ATOM     27  C19 AHF d          17.149  18.094   1.523  0.00  0.00     0.003 A 
ATOM     28  C18 AHF d          16.157  19.120   1.877  0.00  0.00     0.037 A 
ENDBRANCH  22  23
ENDBRANCH  21  22
ENDBRANCH   4  21
BRANCH   1  29
ATOM     29  C08 AHF d          10.312  24.239   6.727  0.00  0.00     0.148 C 
BRANCH  29  30
ATOM     30  C09 AHF d           9.736  25.450   7.351  0.00  0.00    -0.044 A 
ATOM     31  C14 AHF d          10.601  26.326   8.135  0.00  0.00     0.009 A 
ATOM     32  C13 AHF d          10.049  27.518   8.751  0.00  0.00     0.010 A 
ATOM     33  C12 AHF d           8.614  27.816   8.567  0.00  0.00    -0.035 A 
ATOM     34  C11 AHF d           7.767  26.912   7.771  0.00  0.00     0.010 A 
ATOM     35  C46 AHF d           8.147  28.853   9.111  0.00  0.00     0.202 C 
ATOM     36  C10 AHF d           8.341  25.748   7.178  0.00  0.00     0.009 A 
BRANCH  35  37
ATOM     37  O47 AHF d           7.648  29.675   8.176  0.00  0.00    -0.396 OA
ATOM     38  H38 AHF d           7.298  30.453   8.594  0.00  0.00     0.209 HD
ENDBRANCH  35  37
ENDBRANCH  29  30
ENDBRANCH   1  29
BRANCH   5  39
ATOM     39  O30 AHF d          15.424  24.325   4.512  0.00  0.00    -0.391 OA
ATOM     40  H22 AHF d          15.447  25.210   4.166  0.00  0.00     0.210 HD
ENDBRANCH   5  39
BRANCH   7  41
ATOM     41  C32 AHF d          11.127  23.823   3.607  0.00  0.00     0.199 C 
BRANCH  41  42
ATOM     42  O33 AHF d           9.707  23.725   3.747  0.00  0.00    -0.349 OA
BRANCH  42  43
ATOM     43  C34 AHF d           8.769  24.460   3.176  0.00  0.00     0.068 A 
ATOM     44  C39 AHF d           7.395  24.177   3.479  0.00  0.00     0.037 A 
ATOM     45  C38 AHF d           6.338  24.961   2.870  0.00  0.00     0.003 A 
ATOM     46  C37 AHF d           6.659  26.034   1.953  0.00  0.00     0.000 A 
ATOM     47  C36 AHF d           8.040  26.337   1.634  0.00  0.00     0.003 A 
ATOM     48  C35 AHF d           9.091  25.556   2.241  0.00  0.00     0.037 A 
ENDBRANCH  42  43
ENDBRANCH  41  42
ENDBRANCH   7  41
BRANCH   6  49
ATOM     49  O31 AHF d          13.421  26.016   4.176  0.00  0.00    -0.391 OA
ATOM     50  H23 AHF d          14.326  26.279   4.297  0.00  0.00     0.210 HD
ENDBRANCH   6  49
TORSDOF 14
