REMARK  3 active torsions:
REMARK  status: ('A' for Active; 'I' for Inactive)
REMARK    1  A    between atoms: C5_9  and  C8_13 
REMARK    2  A    between atoms: N4_11  and  C19_27 
REMARK    3  A    between atoms: C11_16  and  C12_18 
ROOT
ATOM      1  C12 MOL d          26.453  10.880  19.930  0.00  0.00    -0.017 A 
ATOM      2  C13 MOL d          27.194  10.488  21.057  0.00  0.00     0.038 A 
ATOM      3  C14 MOL d          28.590  10.563  21.068  0.00  0.00     0.084 A 
ATOM      4  C15 MOL d          29.265  11.050  19.927  0.00  0.00     0.137 A 
ATOM      5  C16 MOL d          28.547  11.461  18.788  0.00  0.00     0.045 A 
ATOM      6  C17 MOL d          27.132  11.381  18.798  0.00  0.00     0.016 A 
ATOM      7  C18 MOL d          29.276  10.132  22.252  0.00  0.00     0.102 C 
ATOM      8  N5  MOL d          29.804   9.774  23.218  0.00  0.00    -0.191 NA
ATOM      9  F1  MOL d          30.586  11.139  19.895  0.00  0.00    -0.204 F 
ENDROOT
BRANCH   1  10
ATOM     10  C11 MOL d          25.001  10.817  20.038  0.00  0.00     0.015 A 
ATOM     11  C10 MOL d          24.046  11.307  19.119  0.00  0.00     0.021 A 
ATOM     12  C9  MOL d          22.717  11.148  19.554  0.00  0.00     0.018 A 
ATOM     13  C8  MOL d          22.617  10.530  20.845  0.00  0.00     0.015 A 
ATOM     14  S1  MOL d          24.185  10.200  21.387  0.00  0.00    -0.091 SA
BRANCH  13  15
ATOM     15  C5  MOL d          21.393  10.225  21.627  0.00  0.00     0.110 C 
ATOM     16  N2  MOL d          21.744   9.428  22.806  0.00  0.00    -0.210 N 
ATOM     17  C2  MOL d          22.248   9.997  23.965  0.00  0.00     0.677 C 
ATOM     18  H1  MOL d          21.611   8.407  22.772  0.00  0.00     0.179 HD
ATOM     19  N1  MOL d          22.237  11.364  24.134  0.00  0.00    -0.156 N 
ATOM     20  N3  MOL d          22.737   9.226  24.909  0.00  0.00    -0.234 N 
ATOM     21  C1  MOL d          21.543  12.229  23.313  0.00  0.00     0.246 C 
ATOM     22  C3  MOL d          22.991  12.006  25.255  0.00  0.00     0.178 C 
ATOM     23  O1  MOL d          21.504  13.438  23.505  0.00  0.00    -0.272 OA
ATOM     24  C4  MOL d          20.787  11.584  22.117  0.00  0.00     0.132 C 
ATOM     25  C7  MOL d          19.347  11.258  22.460  0.00  0.00     0.140 C 
ATOM     26  N4  MOL d          19.044  10.179  21.507  0.00  0.00    -0.377 N 
ATOM     27  C6  MOL d          20.231   9.562  20.893  0.00  0.00     0.161 C 
ATOM     28  H2  MOL d          23.113   9.644  25.772  0.00  0.00     0.174 HD
ATOM     29  H3  MOL d          22.745   8.203  24.786  0.00  0.00     0.174 HD
BRANCH  26  30
ATOM     30  C19 MOL d          17.728   9.779  21.218  0.00  0.00     0.030 A 
ATOM     31  C20 MOL d          17.452   8.802  20.213  0.00  0.00     0.029 A 
ATOM     32  C21 MOL d          16.124   8.404  19.929  0.00  0.00     0.002 A 
ATOM     33  C22 MOL d          15.054   8.973  20.641  0.00  0.00     0.000 A 
ATOM     34  C23 MOL d          15.300   9.941  21.641  0.00  0.00     0.002 A 
ATOM     35  C24 MOL d          16.627  10.338  21.924  0.00  0.00     0.029 A 
ENDBRANCH  26  30
ENDBRANCH  13  15
ENDBRANCH   1  10
TORSDOF 3
