4qjp_ligand

Created by X-TOOL on Sun Nov 13 14:27:49 2016
 51 53  0  0  0  0  0  0  0  0999 V2000
  -37.1300  -36.2160   25.5330  F 0  0  0  1  0  1
  -36.9380  -35.9950   24.2160  C 0  0  0  1  0  3
  -35.7800  -36.2860   23.5390  C 0  0  0  1  0  3
  -34.3230  -36.9340   24.3530  S 0  0  0  1  0  4
  -33.4260  -35.8780   24.4870  O 0  0  0  1  0  1
  -34.6480  -37.4560   26.0020  N 0  0  0  3  0  3
  -34.0660  -38.0650   23.6060  O 0  0  0  1  0  1
  -35.7210  -36.0090   22.1860  C 0  0  0  1  0  3
  -34.5720  -36.3040   21.5080  F 0  0  0  1  0  1
  -36.8090  -35.5020   21.5440  C 0  0  0  1  0  3
  -36.6990  -35.2180   20.2000  F 0  0  0  1  0  1
  -38.0400  -35.3960   23.5710  C 0  0  0  1  0  3
  -37.9530  -35.2190   22.1810  C 0  0  0  1  0  3
  -39.4320  -34.6270   21.2870  S 0  0  0  1  0  4
  -38.9540  -33.8270   20.0780  O 0  0  0  1  0  1
  -40.2270  -33.6510   22.1550  O 0  0  0  1  0  1
  -40.6720  -35.9450   21.1460  C 0  0  0  3  0  4
  -40.0120  -37.2290   20.6880  C 0  0  0  3  0  4
  -40.5520  -37.6010   19.3290  C 0  0  0  1  0  3
  -39.7060  -37.5320   18.1910  C 0  0  0  2  0  3
  -40.1430  -37.8940   16.8880  C 0  0  0  2  0  3
  -41.8810  -38.0460   19.1720  C 0  0  0  2  0  3
  -42.3380  -38.4140   17.8760  C 0  0  0  2  0  3
  -41.4790  -38.3390   16.7360  C 0  0  0  2  0  3
  -39.2460  -35.1760   24.2770  N 0  0  0  2  0  3
  -40.1210  -34.0880   24.7180  C 0  0  0  3  0  4
  -41.6080  -34.4080   24.4640  C 0  0  0  1  0  3
  -42.1800  -35.6610   24.8630  C 0  0  0  2  0  3
  -43.5510  -35.8740   24.5370  C 0  0  0  2  0  3
  -44.3620  -34.8910   23.8730  C 0  0  0  2  0  3
  -43.7730  -33.6660   23.4780  C 0  0  0  2  0  3
  -42.4130  -33.4470   23.7990  C 0  0  0  2  0  3
  -33.9110  -37.8371   26.5602  H 0  0  0  1  0  1
  -35.5696  -37.3715   26.3807  H 0  0  0  1  0  1
  -41.4380  -35.6480   20.4146  H 0  0  0  1  0  1
  -41.1442  -36.1075   22.1261  H 0  0  0  1  0  1
  -40.2325  -38.0333   21.4053  H 0  0  0  1  0  1
  -38.9237  -37.0822   20.6248  H 0  0  0  1  0  1
  -38.6858  -37.1895   18.3211  H 0  0  0  1  0  1
  -39.4746  -37.8315   16.0369  H 0  0  0  1  0  1
  -42.5449  -38.1068   20.0267  H 0  0  0  1  0  1
  -43.3582  -38.7582   17.7505  H 0  0  0  1  0  1
  -41.8492  -38.6221   15.7573  H 0  0  0  1  0  1
  -39.6377  -36.0788   24.5810  H 0  0  0  1  0  1
  -39.8552  -33.1728   24.1687  H 0  0  0  1  0  1
  -39.9712  -33.9255   25.7955  H 0  0  0  1  0  1
  -41.5977  -36.4101   25.3873  H 0  0  0  1  0  1
  -44.0035  -36.8226   24.8026  H 0  0  0  1  0  1
  -45.4104  -35.0849   23.6773  H 0  0  0  1  0  1
  -44.3477  -32.9173   22.9449  H 0  0  0  1  0  1
  -41.9640  -32.4995   23.5238  H 0  0  0  1  0  1
  1  2  1  0  0  2
  2  3  4  0  0  1
  2 12  4  0  0  1
  3  4  1  0  0  2
  3  8  4  0  0  1
  4  5  2  0  0  2
  4  6  1  0  0  2
  4  7  2  0  0  2
  8  9  1  0  0  2
  8 10  4  0  0  1
 10 11  1  0  0  2
 10 13  4  0  0  1
 12 13  4  0  0  1
 12 25  1  0  0  2
 13 14  1  0  0  2
 14 15  2  0  0  2
 14 16  2  0  0  2
 14 17  1  0  0  2
 17 18  1  0  0  2
 18 19  1  0  0  2
 19 20  4  0  0  1
 19 22  4  0  0  1
 20 21  4  0  0  1
 21 24  4  0  0  1
 22 23  4  0  0  1
 23 24  4  0  0  1
 25 26  1  0  0  2
 26 27  1  0  0  2
 27 28  4  0  0  1
 27 32  4  0  0  1
 28 29  4  0  0  1
 29 30  4  0  0  1
 30 31  4  0  0  1
 31 32  4  0  0  1
  6 33  1  0  0  2
  6 34  1  0  0  2
 17 35  1  0  0  2
 17 36  1  0  0  2
 18 37  1  0  0  2
 18 38  1  0  0  2
 20 39  1  0  0  2
 21 40  1  0  0  2
 22 41  1  0  0  2
 23 42  1  0  0  2
 24 43  1  0  0  2
 25 44  1  0  0  2
 26 45  1  0  0  2
 26 46  1  0  0  2
 28 47  1  0  0  2
 29 48  1  0  0  2
 30 49  1  0  0  2
 31 50  1  0  0  2
 32 51  1  0  0  2
M  END
> <MOLECULAR_FORMULA>
C21H19N2O4S2F3

> <MOLECULAR_WEIGHT>
484.4

> <NUM_HB_ATOMS>
6  

> <NUM_ROTOR>
7  

> <XLOGP2>
4.37 

$$$$
