REMARK  8 active torsions:
REMARK  status: ('A' for Active; 'I' for Inactive)
REMARK    1  A    between atoms: C21_2  and  C14_3 
REMARK       I    between atoms: C21_2  and  N23_9 
REMARK    2  A    between atoms: N23_9  and  C31_10 
REMARK    3  A    between atoms: C37_16  and  N41_17 
REMARK       I    between atoms: N41_17  and  C42_18 
REMARK    4  A    between atoms: C42_18  and  C51_20 
REMARK    5  A    between atoms: C54_25  and  C61_26 
REMARK    6  A    between atoms: C61_26  and  C71_28 
REMARK    7  A    between atoms: C72_29  and  O82_30 
REMARK    8  A    between atoms: C75_33  and  C91_36 
ROOT
ATOM      1  C51 R68 d          12.717  12.298   1.229  0.00  0.00     0.032 A 
ATOM      2  C52 R68 d          13.101  13.653   1.137  0.00  0.00     0.018 A 
ATOM      3  C53 R68 d          14.041  14.066   0.203  0.00  0.00     0.016 A 
ATOM      4  C56 R68 d          13.343  11.362   0.389  0.00  0.00     0.018 A 
ATOM      5  C55 R68 d          14.297  11.775  -0.525  0.00  0.00     0.016 A 
ATOM      6  C54 R68 d          14.626  13.129  -0.658  0.00  0.00     0.015 A 
ENDROOT
BRANCH   1   7
ATOM      7  C42 R68 d          11.806  11.877   2.292  0.00  0.00     0.252 C 
ATOM      8  N41 R68 d          11.246  10.618   2.292  0.00  0.00    -0.350 N 
ATOM      9  H18 R68 d          11.253  10.107   1.432  0.00  0.00     0.163 HD
ATOM     10  O43 R68 d          11.677  12.582   3.305  0.00  0.00    -0.268 OA
BRANCH   8  11
ATOM     11  C37 R68 d          10.649   9.982   3.445  0.00  0.00     0.109 C 
ATOM     12  C31 R68 d           9.657   8.867   3.018  0.00  0.00     0.133 C 
ATOM     13  C32 R68 d           9.970   7.431   3.455  0.00  0.00     0.259 C 
ATOM     14  N33 R68 d          11.246   6.964   2.911  0.00  0.00    -0.073 N 
ATOM     15  C34 R68 d          12.410   7.176   3.833  0.00  0.00     0.232 C 
ATOM     16  H9  R68 d          11.426   7.460   2.052  0.00  0.00     0.277 HD
ATOM     17  H10 R68 d          11.168   5.978   2.719  0.00  0.00     0.277 HD
ATOM     18  C35 R68 d          12.821   8.638   3.830  0.00  0.00     0.029 C 
ATOM     19  C36 R68 d          11.748   9.574   4.455  0.00  0.00     0.029 C 
BRANCH  12  20
ATOM     20  N23 R68 d           8.309   9.138   3.561  0.00  0.00    -0.349 N 
ATOM     21  C21 R68 d           7.202   9.358   2.754  0.00  0.00     0.252 C 
ATOM     22  O22 R68 d           7.390   9.414   1.524  0.00  0.00    -0.268 OA
ATOM     23  H5  R68 d           8.190   9.164   4.553  0.00  0.00     0.163 HD
BRANCH  21  24
ATOM     24  C14 R68 d           5.851   9.495   3.363  0.00  0.00     0.034 A 
ATOM     25  C13 R68 d           4.713   9.520   2.526  0.00  0.00     0.036 A 
ATOM     26  C12 R68 d           3.435   9.635   3.084  0.00  0.00     0.117 A 
ATOM     27  N11 R68 d           3.265   9.637   4.411  0.00  0.00    -0.273 NA
ATOM     28  C16 R68 d           4.310   9.598   5.225  0.00  0.00     0.117 A 
ATOM     29  C15 R68 d           5.631   9.557   4.749  0.00  0.00     0.036 A 
ENDBRANCH  21  24
ENDBRANCH  12  20
ENDBRANCH   8  11
ENDBRANCH   1   7
BRANCH   6  30
ATOM     30  C61 R68 d          15.703  13.501  -1.577  0.00  0.00     0.198 C 
ATOM     31  O62 R68 d          16.295  14.590  -1.385  0.00  0.00    -0.286 OA
BRANCH  30  32
ATOM     32  C71 R68 d          16.236  12.536  -2.540  0.00  0.00     0.087 A 
ATOM     33  C72 R68 d          15.533  12.172  -3.669  0.00  0.00     0.083 A 
ATOM     34  C73 R68 d          16.010  11.256  -4.597  0.00  0.00     0.038 A 
ATOM     35  C74 R68 d          17.252  10.656  -4.378  0.00  0.00     0.015 A 
ATOM     36  C75 R68 d          17.996  10.960  -3.220  0.00  0.00     0.013 A 
ATOM     37  C76 R68 d          17.455  11.904  -2.350  0.00  0.00     0.141 A 
ATOM     38  F89 R68 d          18.118  12.245  -1.252  0.00  0.00    -0.204 F 
BRANCH  33  39
ATOM     39  O82 R68 d          14.363  12.796  -3.818  0.00  0.00    -0.360 OA
ATOM     40  H23 R68 d          13.943  12.492  -4.614  0.00  0.00     0.217 HD
ENDBRANCH  33  39
BRANCH  36  41
ATOM     41  C91 R68 d          19.358  10.327  -2.982  0.00  0.00     0.229 C 
ATOM     42  C92 R68 d          20.559  11.193  -3.523  0.00  0.00    -0.015 C 
ATOM     43  C97 R68 d          20.675  12.588  -2.839  0.00  0.00     0.017 C 
ATOM     44  C98 R68 d          20.440  11.380  -5.026  0.00  0.00     0.017 C 
ATOM     45  C93 R68 d          21.899  10.448  -3.265  0.00  0.00     0.013 C 
ATOM     46  C94 R68 d          22.032   9.958  -1.798  0.00  0.00     0.028 C 
ATOM     47  C95 R68 d          20.771   9.169  -1.351  0.00  0.00     0.233 C 
ATOM     48  N96 R68 d          19.514   9.965  -1.544  0.00  0.00    -0.066 N 
ATOM     49  H39 R68 d          18.722   9.415  -1.250  0.00  0.00     0.278 HD
ATOM     50  H40 R68 d          19.563  10.806  -0.991  0.00  0.00     0.278 HD
ENDBRANCH  36  41
ENDBRANCH  30  32
ENDBRANCH   6  30
TORSDOF 8
