REMARK  7 active torsions:
REMARK  status: ('A' for Active; 'I' for Inactive)
REMARK    1  A    between atoms: CA_4  and  C_1 
REMARK    2  A    between atoms: CA_4  and  N_2 
REMARK    3  A    between atoms: CB_5  and  CA_4 
REMARK    4  A    between atoms: NAZ_25  and  CB_5 
REMARK    5  A    between atoms: CAL_14  and  CAR_18 
REMARK    6  A    between atoms: NAY_24  and  CAL_14 
REMARK    7  A    between atoms: CAS_19  and  CAP_17 
ROOT
ATOM      1  OAD MOL d          45.684  55.351   2.225  0.00  0.00    -0.267 OA
ATOM      2  OAE MOL d          45.748  57.968   5.950  0.00  0.00    -0.246 OA
ATOM      3  CAJ MOL d          43.089  56.123   1.661  0.00  0.00     0.069 A 
ATOM      4  CAK MOL d          41.913  57.760   3.187  0.00  0.00     0.080 A 
ATOM      5  SAN MOL d          41.604  56.881   1.786  0.00  0.00    -0.110 SA
ATOM      6  CAT MOL d          45.118  56.144   2.975  0.00  0.00     0.264 A 
ATOM      7  CAU MOL d          45.164  57.529   4.958  0.00  0.00     0.332 A 
ATOM      8  CAV MOL d          43.818  56.542   2.698  0.00  0.00     0.066 A 
ATOM      9  CAW MOL d          43.163  57.466   3.565  0.00  0.00     0.061 A 
ATOM     10  NAY MOL d          45.797  56.632   4.079  0.00  0.00    -0.261 N 
ATOM     11  NAZ MOL d          43.856  57.959   4.688  0.00  0.00    -0.295 N 
ENDROOT
BRANCH  10  12
ATOM     12  CAL MOL d          47.152  56.100   4.300  0.00  0.00     0.177 C 
BRANCH  12  13
ATOM     13  CAR MOL d          48.294  57.067   4.157  0.00  0.00    -0.015 A 
ATOM     14  CAI MOL d          48.223  58.258   3.525  0.00  0.00     0.017 A 
ATOM     15  CAH MOL d          49.365  58.968   3.508  0.00  0.00     0.051 A 
ATOM     16  SAO MOL d          50.526  58.044   4.327  0.00  0.00    -0.095 SA
ATOM     17  CAS MOL d          49.552  56.773   4.684  0.00  0.00     0.089 A 
BRANCH  17  18
ATOM     18  CAP MOL d          50.010  55.498   5.429  0.00  0.00     0.217 C 
ATOM     19  OAB MOL d          49.214  54.549   5.606  0.00  0.00    -0.643 OA
ATOM     20  OAF MOL d          51.185  55.495   5.847  0.00  0.00    -0.643 OA
ENDBRANCH  17  18
ENDBRANCH  12  13
ENDBRANCH  10  12
BRANCH  11  21
ATOM     21  CB  MOL d          43.226  58.922   5.638  0.00  0.00     0.178 C 
BRANCH  21  22
ATOM     22  CA  MOL d          42.978  58.258   6.999  0.00  0.00     0.301 C 
BRANCH  22  23
ATOM     23  C   MOL d          42.389  59.254   8.007  0.00  0.00     0.206 C 
ATOM     24  O   MOL d          41.253  59.016   8.452  0.00  0.00    -0.646 OA
ATOM     25  OXT MOL d          43.133  60.183   8.397  0.00  0.00    -0.646 OA
ENDBRANCH  22  23
BRANCH  22  26
ATOM     26  N   MOL d          42.055  57.119   6.808  0.00  0.00    -0.064 N 
ATOM     27  H1  MOL d          42.452  56.472   6.145  0.00  0.00     0.275 HD
ATOM     28  H2  MOL d          41.172  57.457   6.460  0.00  0.00     0.275 HD
ATOM     29  H3  MOL d          41.912  56.651   7.689  0.00  0.00     0.275 HD
ENDBRANCH  22  26
ENDBRANCH  21  22
ENDBRANCH  11  21
TORSDOF 7
