REMARK  1 active torsions:
REMARK  status: ('A' for Active; 'I' for Inactive)
REMARK    1  A    between atoms: P4_7  and  N4_5 
ROOT
ATOM      1  N1  O7U d         -68.661  18.138 -14.984  0.00  0.00    -0.319 N 
ATOM      2  C2  O7U d         -68.557  19.505 -15.259  0.00  0.00     0.327 A 
ATOM      3  O2  O7U d         -69.233  20.405 -14.720  0.00  0.00    -0.247 OA
ATOM      4  N3  O7U d         -67.665  19.897 -16.222  0.00  0.00    -0.271 N 
ATOM      5  O4  O7U d         -65.293  19.428 -16.623  0.00  0.00    -0.270 OA
ATOM      6  P4  O7U d         -66.620  18.956 -17.044  0.00  0.00     0.276 P 
ATOM      7  C5  O7U d         -66.953  17.268 -16.562  0.00  0.00     0.104 A 
ATOM      8  C6  O7U d         -67.854  17.128 -15.664  0.00  0.00     0.099 A 
ATOM      9  H1  O7U d         -69.317  17.838 -14.291  0.00  0.00     0.170 HD
ATOM     10  H2  O7U d         -67.654  20.872 -16.446  0.00  0.00     0.173 HD
ENDROOT
BRANCH   6  11
ATOM     11  N4  O7U d         -66.792  19.180 -18.649  0.00  0.00    -0.361 N 
ATOM     12  H3  O7U d         -66.218  18.670 -19.289  0.00  0.00     0.159 HD
ATOM     13  H4  O7U d         -67.472  19.827 -18.994  0.00  0.00     0.159 HD
ENDBRANCH   6  11
TORSDOF 1
