REMARK  8 active torsions:
REMARK  status: ('A' for Active; 'I' for Inactive)
REMARK    1  A    between atoms: C1_1  and  C2_2 
REMARK       I    between atoms: N_7  and  C1_1 
REMARK    2  A    between atoms: CA_8  and  N_7 
REMARK    3  A    between atoms: C_9  and  CA_8 
REMARK    4  A    between atoms: CA_8  and  CB_11 
REMARK       I    between atoms: N_14  and  C_9 
REMARK    5  A    between atoms: CA_15  and  N_14 
REMARK    6  A    between atoms: C_16  and  CA_15 
REMARK       I    between atoms: C_16  and  N_19 
REMARK    7  A    between atoms: N_19  and  C1_20 
REMARK    8  A    between atoms: C4_23  and  C7_26 
ROOT
ATOM      1  C   MOL d          39.295  20.854  37.319  0.00  0.00     0.241 C 
ATOM      2  O   MOL d          38.617  21.153  38.305  0.00  0.00    -0.271 OA
ATOM      3  N   MOL d          38.736  20.548  36.129  0.00  0.00    -0.346 N 
ATOM      4  H10 MOL d          39.314  20.467  35.317  0.00  0.00     0.163 HD
ENDROOT
BRANCH   3   5
ATOM      5  CA  MOL d          37.291  20.334  36.016  0.00  0.00     0.172 C 
ATOM      6  CB  MOL d          36.806  20.258  34.564  0.00  0.00     0.042 C 
BRANCH   5   7
ATOM      7  C   MOL d          37.026  18.983  36.667  0.00  0.00     0.244 C 
ATOM      8  O   MOL d          37.497  17.929  36.208  0.00  0.00    -0.271 OA
ATOM      9  N   MOL d          36.339  19.208  37.808  0.00  0.00    -0.325 N 
ATOM     10  H15 MOL d          36.064  20.147  38.014  0.00  0.00     0.169 HD
BRANCH   9  11
ATOM     11  C1  MOL d          36.000  18.237  38.690  0.00  0.00     0.034 A 
ATOM     12  C6  MOL d          36.275  16.888  38.489  0.00  0.00     0.030 A 
ATOM     13  C5  MOL d          35.950  15.968  39.450  0.00  0.00     0.018 A 
ATOM     14  C4  MOL d          35.342  16.372  40.636  0.00  0.00     0.048 A 
ATOM     15  C3  MOL d          35.057  17.724  40.823  0.00  0.00     0.018 A 
ATOM     16  C2  MOL d          35.385  18.637  39.861  0.00  0.00     0.030 A 
BRANCH  14  17
ATOM     17  C7  MOL d          35.037  15.326  41.780  0.00  0.00     0.417 C 
ATOM     18  F3  MOL d          33.733  15.316  42.082  0.00  0.00    -0.166 F 
ATOM     19  F2  MOL d          35.650  15.727  42.894  0.00  0.00    -0.166 F 
ATOM     20  F1  MOL d          35.418  14.014  41.614  0.00  0.00    -0.166 F 
ENDBRANCH  14  17
ENDBRANCH   9  11
ENDBRANCH   5   7
ENDBRANCH   3   5
BRANCH   1  21
ATOM     21  CA  MOL d          40.820  21.012  37.332  0.00  0.00     0.180 C 
BRANCH  21  22
ATOM     22  CB  MOL d          41.694  19.901  38.052  0.00  0.00     0.009 C 
ATOM     23  CG1 MOL d          41.033  19.351  39.286  0.00  0.00     0.012 C 
ATOM     24  CG2 MOL d          42.002  18.802  37.056  0.00  0.00     0.012 C 
ENDBRANCH  21  22
BRANCH  21  25
ATOM     25  N   MOL d          41.111  22.203  38.083  0.00  0.00    -0.340 N 
ATOM     26  C1  MOL d          40.859  23.454  37.632  0.00  0.00     0.326 C 
ATOM     27  O   MOL d          40.222  23.639  36.576  0.00  0.00    -0.263 OA
ATOM     28  H1  MOL d          41.522  22.102  38.989  0.00  0.00     0.163 HD
BRANCH  26  29
ATOM     29  C2  MOL d          41.306  24.644  38.565  0.00  0.00     0.472 C 
ATOM     30  F3  MOL d          40.234  25.342  38.941  0.00  0.00    -0.162 F 
ATOM     31  F2  MOL d          42.128  25.511  37.941  0.00  0.00    -0.162 F 
ATOM     32  F1  MOL d          41.971  24.317  39.695  0.00  0.00    -0.162 F 
ENDBRANCH  26  29
ENDBRANCH  21  25
ENDBRANCH   1  21
TORSDOF 8
