REMARK  8 active torsions:
REMARK  status: ('A' for Active; 'I' for Inactive)
REMARK       I    between atoms: CAG_2  and  NAI_4 
REMARK    1  A    between atoms: NAI_4  and  CAB_5 
REMARK    2  A    between atoms: CAC_6  and  OAJ_7 
REMARK    3  A    between atoms: CAD_8  and  OAK_9 
REMARK    4  A    between atoms: CAE_10  and  CAF_11 
REMARK    5  A    between atoms: CAF_11  and  OAM_12 
REMARK    6  A    between atoms: NAY_15  and  OAQ_16 
REMARK    7  A    between atoms: OAQ_16  and  CAP_17 
REMARK       I    between atoms: CAP_17  and  NAO_19 
REMARK    8  A    between atoms: NAO_19  and  CAS_20 
ROOT
ATOM      1  CAB OAN d          32.890  42.492  21.404  0.00  0.00     0.194 C 
ATOM      2  CAC OAN d          32.217  42.765  22.785  0.00  0.00     0.180 C 
ATOM      3  CAD OAN d          30.778  42.283  22.810  0.00  0.00     0.180 C 
ATOM      4  CAE OAN d          30.773  40.758  22.596  0.00  0.00     0.185 C 
ATOM      5  OAL OAN d          31.321  40.487  21.280  0.00  0.00    -0.324 OA
ATOM      6  CAA OAN d          32.191  41.347  20.659  0.00  0.00     0.194 C 
ATOM      7  NAY OAN d          32.402  41.196  19.342  0.00  0.00    -0.100 NA
ENDROOT
BRANCH   1   8
ATOM      8  NAI OAN d          34.330  42.239  21.619  0.00  0.00    -0.347 N 
ATOM      9  CAG OAN d          34.832  41.118  22.159  0.00  0.00     0.214 C 
ATOM     10  CAH OAN d          36.361  41.126  22.347  0.00  0.00     0.117 C 
ATOM     11  OAN OAN d          34.159  40.137  22.499  0.00  0.00    -0.274 OA
ATOM     12  H4  OAN d          34.974  42.952  21.343  0.00  0.00     0.163 HD
ENDBRANCH   1   8
BRANCH   7  13
ATOM     13  OAQ OAN d          31.801  40.209  18.573  0.00  0.00    -0.153 OA
BRANCH  13  14
ATOM     14  CAP OAN d          31.153  40.697  17.477  0.00  0.00     0.389 C 
ATOM     15  OAR OAN d          31.513  41.779  16.993  0.00  0.00    -0.236 OA
ATOM     16  NAO OAN d          30.140  39.940  16.971  0.00  0.00    -0.301 N 
ATOM     17  H14 OAN d          29.945  39.068  17.420  0.00  0.00     0.171 HD
BRANCH  16  18
ATOM     18  CAS OAN d          29.365  40.286  15.889  0.00  0.00     0.036 A 
ATOM     19  CAT OAN d          29.874  40.990  14.769  0.00  0.00     0.029 A 
ATOM     20  CAU OAN d          29.053  41.345  13.681  0.00  0.00     0.002 A 
ATOM     21  CAV OAN d          27.701  41.000  13.698  0.00  0.00     0.000 A 
ATOM     22  CAW OAN d          27.172  40.293  14.789  0.00  0.00     0.002 A 
ATOM     23  CAX OAN d          28.001  39.939  15.865  0.00  0.00     0.029 A 
ENDBRANCH  16  18
ENDBRANCH  13  14
ENDBRANCH   7  13
BRANCH   2  24
ATOM     24  OAJ OAN d          32.267  44.150  23.108  0.00  0.00    -0.390 OA
ATOM     25  H7  OAN d          31.852  44.293  23.951  0.00  0.00     0.210 HD
ENDBRANCH   2  24
BRANCH   4  26
ATOM     26  CAF OAN d          29.433  39.975  22.733  0.00  0.00     0.199 C 
BRANCH  26  27
ATOM     27  OAM OAN d          28.370  40.686  22.098  0.00  0.00    -0.398 OA
ATOM     28  H13 OAN d          27.562  40.195  22.191  0.00  0.00     0.209 HD
ENDBRANCH  26  27
ENDBRANCH   4  26
BRANCH   3  29
ATOM     29  OAK OAN d          30.162  42.606  24.051  0.00  0.00    -0.390 OA
ATOM     30  H9  OAN d          30.173  43.548  24.173  0.00  0.00     0.210 HD
ENDBRANCH   3  29
TORSDOF 8
