REMARK  2 active torsions:
REMARK  status: ('A' for Active; 'I' for Inactive)
REMARK    1  A    between atoms: N_1  and  CA_2 
REMARK    2  A    between atoms: CA_2  and  C_3 
ROOT
ATOM      1  N   BET d         -29.623 -29.755   9.196  0.00  0.00    -0.069 N 
ATOM      2  C1  BET d         -30.724 -28.960   8.578  0.00  0.00     0.272 C 
ATOM      3  C2  BET d         -28.365 -29.248   8.689  0.00  0.00     0.272 C 
ATOM      4  C3  BET d         -29.696 -29.575  10.627  0.00  0.00     0.272 C 
ENDROOT
BRANCH   1   5
ATOM      5  CA  BET d         -29.809 -31.151   8.875  0.00  0.00     0.348 C 
BRANCH   5   6
ATOM      6  C   BET d         -28.759 -32.214   9.219  0.00  0.00     0.199 C 
ATOM      7  O1  BET d         -28.661 -33.263   8.647  0.00  0.00    -0.647 OA
ATOM      8  O2  BET d         -28.038 -31.888  10.205  0.00  0.00    -0.647 OA
ENDBRANCH   5   6
ENDBRANCH   1   5
TORSDOF 2
