REMARK  3 active torsions:
REMARK  status: ('A' for Active; 'I' for Inactive)
REMARK    1  A    between atoms: C14_2  and  C13_4 
REMARK    2  A    between atoms: C8_9  and  N7_10 
REMARK    3  A    between atoms: N7_10  and  C6_11 
ROOT
ATOM      1  N7  ID8 d           9.149   7.003  22.829  0.00  0.00    -0.355 N 
ATOM      2  H5  ID8 d           8.600   7.708  22.317  0.00  0.00     0.166 HD
ENDROOT
BRANCH   1   3
ATOM      3  C8  ID8 d           8.844   6.686  24.146  0.00  0.00     0.049 A 
ATOM      4  C13 ID8 d           7.899   7.611  24.879  0.00  0.00     0.067 A 
ATOM      5  C12 ID8 d           7.547   7.330  26.204  0.00  0.00     0.021 A 
ATOM      6  C11 ID8 d           8.080   6.225  26.863  0.00  0.00     0.001 A 
ATOM      7  C10 ID8 d           8.973   5.373  26.218  0.00  0.00     0.002 A 
ATOM      8  C9  ID8 d           9.357   5.602  24.891  0.00  0.00     0.030 A 
BRANCH   4   9
ATOM      9  C14 ID8 d           7.280   8.824  24.193  0.00  0.00     0.211 C 
ATOM     10  O16 ID8 d           6.094   9.142  24.463  0.00  0.00    -0.644 OA
ATOM     11  O15 ID8 d           7.938   9.486  23.346  0.00  0.00    -0.644 OA
ENDBRANCH   4   9
ENDBRANCH   1   3
BRANCH   1  12
ATOM     12  C6  ID8 d          10.188   6.363  22.228  0.00  0.00     0.039 A 
ATOM     13  C1  ID8 d          10.205   4.873  22.033  0.00  0.00    -0.029 A 
ATOM     14  C17 ID8 d           8.963   4.028  22.216  0.00  0.00     0.051 C 
ATOM     15  C2  ID8 d          11.490   4.236  21.617  0.00  0.00    -0.054 A 
ATOM     16  C3  ID8 d          12.625   5.029  21.450  0.00  0.00     0.007 A 
ATOM     17  C18 ID8 d          11.579   2.752  21.369  0.00  0.00     0.049 C 
ATOM     18  C4  ID8 d          12.573   6.406  21.674  0.00  0.00     0.003 A 
ATOM     19  C5  ID8 d          11.394   7.055  22.070  0.00  0.00     0.030 A 
ENDBRANCH   1  12
TORSDOF 3
