REMARK  6 active torsions:
REMARK  status: ('A' for Active; 'I' for Inactive)
REMARK    1  A    between atoms: P_1  and  O5_5 
REMARK    2  A    between atoms: O5_5  and  C6_6 
REMARK    3  A    between atoms: C6_6  and  C7_7 
REMARK    4  A    between atoms: C9_9  and  O10_10 
REMARK    5  A    between atoms: C11_11  and  O12_12 
REMARK    6  A    between atoms: C13_13  and  N9_14 
ROOT
ATOM      1  C7  IMP d          70.386  39.560  32.118  0.00  0.00     0.180 C 
ATOM      2  O8  IMP d          70.855  40.917  31.851  0.00  0.00    -0.353 OA
ATOM      3  C9  IMP d          71.526  38.675  31.612  0.00  0.00     0.182 C 
ATOM      4  C11 IMP d          72.044  39.421  30.397  0.00  0.00     0.198 C 
ATOM      5  C13 IMP d          71.971  40.861  30.963  0.00  0.00     0.262 C 
ENDROOT
BRANCH   5   6
ATOM      6  N9  IMP d          73.165  41.094  31.802  0.00  0.00    -0.294 N 
ATOM      7  C8  IMP d          73.382  40.926  33.151  0.00  0.00     0.214 A 
ATOM      8  N7  IMP d          74.587  41.251  33.491  0.00  0.00    -0.234 NA
ATOM      9  C5  IMP d          75.199  41.650  32.332  0.00  0.00     0.172 A 
ATOM     10  C6  IMP d          76.522  42.117  32.074  0.00  0.00     0.279 A 
ATOM     11  C4  IMP d          74.326  41.557  31.275  0.00  0.00     0.169 A 
ATOM     12  O6  IMP d          77.437  42.269  32.870  0.00  0.00    -0.265 OA
ATOM     13  N1  IMP d          76.759  42.431  30.716  0.00  0.00    -0.316 N 
ATOM     14  C2  IMP d          75.779  42.289  29.742  0.00  0.00     0.212 A 
ATOM     15  H10 IMP d          77.662  42.766  30.448  0.00  0.00     0.170 HD
ATOM     16  N3  IMP d          74.535  41.847  29.995  0.00  0.00    -0.223 NA
ENDBRANCH   5   6
BRANCH   4  17
ATOM     17  O12 IMP d          71.275  39.247  29.211  0.00  0.00    -0.388 OA
ATOM     18  H7  IMP d          71.257  38.326  28.979  0.00  0.00     0.210 HD
ENDBRANCH   4  17
BRANCH   1  19
ATOM     19  C6  IMP d          69.978  39.672  33.577  0.00  0.00     0.217 C 
BRANCH  19  20
ATOM     20  O5  IMP d          70.718  38.922  34.562  0.00  0.00    -0.280 OA
BRANCH  20  21
ATOM     21  P   IMP d          70.309  39.124  36.139  0.00  0.00     0.422 P 
ATOM     22  O1P IMP d          70.641  40.498  36.628  0.00  0.00    -0.617 OA
ATOM     23  O2P IMP d          71.058  38.106  36.958  0.00  0.00    -0.617 OA
ATOM     24  O3P IMP d          68.785  38.837  36.213  0.00  0.00    -0.617 OA
ENDBRANCH  20  21
ENDBRANCH  19  20
ENDBRANCH   1  19
BRANCH   3  25
ATOM     25  O10 IMP d          71.157  37.358  31.290  0.00  0.00    -0.390 OA
ATOM     26  H5  IMP d          70.499  37.373  30.605  0.00  0.00     0.210 HD
ENDBRANCH   3  25
TORSDOF 6
