REMARK  18 active torsions:
REMARK  status: ('A' for Active; 'I' for Inactive)
REMARK    1  A    between atoms: C1_1  and  C2_2 
REMARK    2  A    between atoms: C1_1  and  C3_3 
REMARK    3  A    between atoms: C2_2  and  N2_9 
REMARK    4  A    between atoms: C3_3  and  N1_4 
REMARK    5  A    between atoms: N1_4  and  C4_5 
REMARK    6  A    between atoms: C4_5  and  C5_6 
REMARK    7  A    between atoms: C4_5  and  C6_7 
REMARK    8  A    between atoms: C4_5  and  C7_8 
REMARK    9  A    between atoms: C5_6  and  O4_17 
REMARK   10  A    between atoms: C6_7  and  O5_18 
REMARK   11  A    between atoms: C7_8  and  O6_19 
REMARK   12  A    between atoms: N2_9  and  C8_10 
REMARK   13  A    between atoms: C8_10  and  C9_11 
REMARK   14  A    between atoms: C8_10  and  C10_12 
REMARK   15  A    between atoms: C8_10  and  C11_13 
REMARK   16  A    between atoms: C9_11  and  O1_14 
REMARK   17  A    between atoms: C10_12  and  O2_15 
REMARK   18  A    between atoms: C11_13  and  O3_16 
ROOT
ATOM      1  C1  B3P d          61.118  38.132  48.256  0.00  0.00     0.055 C 
ENDROOT
BRANCH   1   2
ATOM      2  C2  B3P d          60.336  38.961  47.255  0.00  0.00     0.235 C 
BRANCH   2   3
ATOM      3  N2  B3P d          59.410  38.156  46.504  0.00  0.00    -0.060 N 
ATOM      4  H15 B3P d          58.685  38.789  46.204  0.00  0.00     0.278 HD
ATOM      5  H16 B3P d          59.029  37.498  47.165  0.00  0.00     0.278 HD
BRANCH   3   6
ATOM      6  C8  B3P d          59.751  37.370  45.326  0.00  0.00     0.188 C 
BRANCH   6   7
ATOM      7  C9  B3P d          60.817  36.298  45.575  0.00  0.00     0.207 C 
BRANCH   7   8
ATOM      8  O1  B3P d          60.437  35.201  46.427  0.00  0.00    -0.398 OA
ATOM      9  H23 B3P d          59.695  34.747  46.045  0.00  0.00     0.209 HD
ENDBRANCH   7   8
ENDBRANCH   6   7
BRANCH   6  10
ATOM     10  C10 B3P d          60.306  38.234  44.166  0.00  0.00     0.207 C 
BRANCH  10  11
ATOM     11  O2  B3P d          59.449  39.387  43.949  0.00  0.00    -0.398 OA
ATOM     12  H24 B3P d          59.798  39.910  43.236  0.00  0.00     0.209 HD
ENDBRANCH  10  11
ENDBRANCH   6  10
BRANCH   6  13
ATOM     13  C11 B3P d          58.420  36.780  44.907  0.00  0.00     0.207 C 
BRANCH  13  14
ATOM     14  O3  B3P d          58.631  35.747  43.960  0.00  0.00    -0.398 OA
ATOM     15  H25 B3P d          59.169  35.067  44.349  0.00  0.00     0.209 HD
ENDBRANCH  13  14
ENDBRANCH   6  13
ENDBRANCH   3   6
ENDBRANCH   2   3
ENDBRANCH   1   2
BRANCH   1  16
ATOM     16  C3  B3P d          60.206  37.532  49.284  0.00  0.00     0.235 C 
BRANCH  16  17
ATOM     17  N1  B3P d          61.024  36.803  50.253  0.00  0.00    -0.060 N 
ATOM     18  H7  B3P d          61.288  37.466  50.965  0.00  0.00     0.278 HD
ATOM     19  H8  B3P d          61.847  36.494  49.761  0.00  0.00     0.278 HD
BRANCH  17  20
ATOM     20  C4  B3P d          60.492  35.641  50.944  0.00  0.00     0.188 C 
BRANCH  20  21
ATOM     21  C5  B3P d          61.445  35.115  51.959  0.00  0.00     0.207 C 
BRANCH  21  22
ATOM     22  O4  B3P d          61.808  36.239  52.877  0.00  0.00    -0.398 OA
ATOM     23  H26 B3P d          62.417  35.925  53.535  0.00  0.00     0.209 HD
ENDBRANCH  21  22
ENDBRANCH  20  21
BRANCH  20  24
ATOM     24  C6  B3P d          59.242  36.059  51.727  0.00  0.00     0.207 C 
BRANCH  24  25
ATOM     25  O5  B3P d          58.440  34.945  52.134  0.00  0.00    -0.398 OA
ATOM     26  H27 B3P d          58.154  34.465  51.366  0.00  0.00     0.209 HD
ENDBRANCH  24  25
ENDBRANCH  20  24
BRANCH  20  27
ATOM     27  C7  B3P d          60.342  34.527  49.902  0.00  0.00     0.207 C 
BRANCH  27  28
ATOM     28  O6  B3P d          59.039  34.494  49.334  0.00  0.00    -0.398 OA
ATOM     29  H28 B3P d          58.399  34.345  50.020  0.00  0.00     0.209 HD
ENDBRANCH  27  28
ENDBRANCH  20  27
ENDBRANCH  17  20
ENDBRANCH  16  17
ENDBRANCH   1  16
TORSDOF 18
