REMARK  7 active torsions:
REMARK  status: ('A' for Active; 'I' for Inactive)
REMARK    1  A    between atoms: C5_3  and  C7_7 
REMARK    2  A    between atoms: C9_11  and  N13_13 
REMARK    3  A    between atoms: N13_13  and  C14_14 
REMARK    4  A    between atoms: C16_18  and  N21_20 
REMARK       I    between atoms: N21_20  and  C22_21 
REMARK    5  A    between atoms: C22_21  and  C23_22 
REMARK    6  A    between atoms: C27_25  and  C46_28 
REMARK    7  A    between atoms: C46_28  and  N48_29 
ROOT
ATOM      1  C14 STI d          -5.047 -34.787   9.553  0.00  0.00     0.057 A 
ATOM      2  C19 STI d          -4.738 -35.471  10.823  0.00  0.00    -0.035 A 
ATOM      3  C18 STI d          -3.486 -35.187  11.465  0.00  0.00     0.011 A 
ATOM      4  C17 STI d          -2.554 -34.255  10.885  0.00  0.00     0.030 A 
ATOM      5  C16 STI d          -2.849 -33.586   9.654  0.00  0.00     0.037 A 
ATOM      6  C15 STI d          -4.117 -33.870   8.995  0.00  0.00     0.060 A 
ATOM      7  C20 STI d          -5.694 -36.479  11.505  0.00  0.00     0.050 C 
ENDROOT
BRANCH   5   8
ATOM      8  N21 STI d          -1.869 -32.671   9.141  0.00  0.00    -0.323 N 
ATOM      9  C22 STI d          -1.908 -31.906   7.980  0.00  0.00     0.256 C 
ATOM     10  O29 STI d          -2.729 -32.046   7.073  0.00  0.00    -0.267 OA
ATOM     11  H11 STI d          -1.043 -32.569   9.696  0.00  0.00     0.169 HD
BRANCH   9  12
ATOM     12  C23 STI d          -0.860 -30.841   7.806  0.00  0.00     0.032 A 
ATOM     13  C25 STI d          -1.009 -29.753   6.831  0.00  0.00     0.017 A 
ATOM     14  C26 STI d           0.037 -28.761   6.694  0.00  0.00     0.010 A 
ATOM     15  C27 STI d           1.229 -28.856   7.532  0.00  0.00    -0.033 A 
ATOM     16  C28 STI d           1.341 -29.939   8.486  0.00  0.00     0.010 A 
ATOM     17  C29 STI d           0.327 -30.907   8.623  0.00  0.00     0.017 A 
BRANCH  15  18
ATOM     18  C46 STI d           2.397 -27.861   7.448  0.00  0.00     0.273 C 
BRANCH  18  19
ATOM     19  N48 STI d           3.784 -28.404   7.295  0.00  0.00    -0.064 N 
ATOM     20  C53 STI d           3.878 -29.312   6.101  0.00  0.00     0.263 C 
ATOM     21  C52 STI d           5.310 -29.890   5.936  0.00  0.00     0.262 C 
ATOM     22  N51 STI d           6.328 -28.771   5.830  0.00  0.00    -0.072 N 
ATOM     23  C54 STI d           7.706 -29.257   5.664  0.00  0.00     0.269 C 
ATOM     24  C50 STI d           6.265 -27.848   7.044  0.00  0.00     0.262 C 
ATOM     25  H23 STI d           6.094 -28.229   5.013  0.00  0.00     0.279 HD
ATOM     26  C49 STI d           4.818 -27.286   7.193  0.00  0.00     0.263 C 
ATOM     27  H18 STI d           3.995 -28.947   8.118  0.00  0.00     0.280 HD
ENDBRANCH  18  19
ENDBRANCH  15  18
ENDBRANCH   9  12
ENDBRANCH   5   8
BRANCH   1  28
ATOM     28  N13 STI d          -6.257 -35.020   8.879  0.00  0.00    -0.188 N 
ATOM     29  H7  STI d          -7.046 -34.377   9.035  0.00  0.00     0.184 HD
BRANCH  28  30
ATOM     30  C9  STI d          -6.426 -36.096   8.003  0.00  0.00     0.727 A 
ATOM     31  N10 STI d          -5.418 -37.002   7.726  0.00  0.00    -0.075 NA
ATOM     32  C11 STI d          -5.629 -38.061   6.856  0.00  0.00     0.139 A 
ATOM     33  C12 STI d          -6.894 -38.234   6.231  0.00  0.00     0.053 A 
ATOM     34  C7  STI d          -7.915 -37.272   6.544  0.00  0.00     0.089 A 
ATOM     35  N8  STI d          -7.636 -36.243   7.418  0.00  0.00    -0.062 NA
BRANCH  34  36
ATOM     36  C5  STI d          -9.298 -37.312   5.984  0.00  0.00     0.011 A 
ATOM     37  C6  STI d          -9.779 -38.386   5.130  0.00  0.00     0.017 A 
ATOM     38  C1  STI d         -11.122 -38.379   4.620  0.00  0.00     0.020 A 
ATOM     39  C2  STI d         -11.978 -37.284   4.976  0.00  0.00     0.116 A 
ATOM     40  N3  STI d         -11.504 -36.256   5.802  0.00  0.00    -0.272 NA
ATOM     41  C4  STI d         -10.217 -36.237   6.306  0.00  0.00     0.130 A 
ENDBRANCH  34  36
ENDBRANCH  28  30
ENDBRANCH   1  28
TORSDOF 7
