REMARK  6 active torsions:
REMARK  status: ('A' for Active; 'I' for Inactive)
REMARK       I    between atoms: C15_1  and  N13_2 
REMARK       I    between atoms: C15_1  and  N15_7 
REMARK    1  A    between atoms: N13_2  and  C18_3 
REMARK    2  A    between atoms: C18_3  and  C19_4 
REMARK    3  A    between atoms: N15_7  and  C12_8 
REMARK    4  A    between atoms: C12_8  and  C23_9 
REMARK    5  A    between atoms: C12_8  and  C61_15 
REMARK    6  A    between atoms: N16_21  and  C46_22 
ROOT
ATOM      1  C46 GAS d          -7.243  39.255  16.565  0.00  0.00     0.049 A 
ATOM      2  C36 GAS d          -7.256  38.222  17.479  0.00  0.00     0.031 A 
ATOM      3  C26 GAS d          -6.431  37.125  17.295  0.00  0.00     0.025 A 
ATOM      4  C16 GAS d          -5.598  37.063  16.194  0.00  0.00     0.044 A 
ATOM      5  C17 GAS d          -4.697  35.872  15.968  0.00  0.00     0.099 C 
ATOM      6  N17 GAS d          -4.006  34.958  15.800  0.00  0.00    -0.191 NA
ATOM      7  C66 GAS d          -5.596  38.083  15.291  0.00  0.00     0.025 A 
ATOM      8  C56 GAS d          -6.420  39.179  15.472  0.00  0.00     0.031 A 
ENDROOT
BRANCH   1   9
ATOM      9  N16 GAS d          -8.102  40.452  16.753  0.00  0.00    -0.192 N 
ATOM     10  C15 GAS d          -9.236  40.666  17.336  0.00  0.00     0.675 C 
ATOM     11  N13 GAS d          -9.548  41.889  17.732  0.00  0.00    -0.216 N 
ATOM     12  N15 GAS d         -10.187  39.764  17.158  0.00  0.00    -0.214 N 
ATOM     13  H1  GAS d         -10.387  42.322  17.320  0.00  0.00     0.178 HD
ATOM     14  H4  GAS d          -9.976  38.978  16.527  0.00  0.00     0.178 HD
ATOM     15  H16 GAS d          -7.706  41.300  16.323  0.00  0.00     0.184 HD
BRANCH  11  16
ATOM     16  C18 GAS d          -8.798  42.671  18.704  0.00  0.00     0.251 C 
BRANCH  16  17
ATOM     17  C19 GAS d          -9.559  43.610  19.614  0.00  0.00     0.191 C 
ATOM     18  O29 GAS d          -8.923  44.493  20.231  0.00  0.00    -0.647 OA
ATOM     19  O39 GAS d         -10.802  43.659  19.468  0.00  0.00    -0.647 OA
ENDBRANCH  16  17
ENDBRANCH  11  16
BRANCH  12  20
ATOM     20  C12 GAS d         -11.510  39.783  17.777  0.00  0.00     0.166 C 
BRANCH  20  21
ATOM     21  C23 GAS d         -12.437  40.612  17.142  0.00  0.00    -0.030 A 
ATOM     22  C13 GAS d         -12.706  40.449  15.779  0.00  0.00     0.009 A 
ATOM     23  C63 GAS d         -13.427  41.402  15.102  0.00  0.00     0.001 A 
ATOM     24  C53 GAS d         -13.894  42.527  15.765  0.00  0.00     0.000 A 
ATOM     25  C43 GAS d         -13.654  42.701  17.114  0.00  0.00     0.001 A 
ATOM     26  C33 GAS d         -12.932  41.748  17.805  0.00  0.00     0.009 A 
ENDBRANCH  20  21
BRANCH  20  27
ATOM     27  C61 GAS d         -11.982  38.500  18.062  0.00  0.00    -0.030 A 
ATOM     28  C11 GAS d         -13.213  38.043  17.618  0.00  0.00     0.009 A 
ATOM     29  C21 GAS d         -13.567  36.707  17.787  0.00  0.00     0.001 A 
ATOM     30  C31 GAS d         -12.692  35.827  18.399  0.00  0.00     0.000 A 
ATOM     31  C41 GAS d         -11.472  36.284  18.847  0.00  0.00     0.001 A 
ATOM     32  C51 GAS d         -11.126  37.609  18.680  0.00  0.00     0.009 A 
ENDBRANCH  20  27
ENDBRANCH  12  20
ENDBRANCH   1   9
TORSDOF 6
