REMARK  8 active torsions:
REMARK  status: ('A' for Active; 'I' for Inactive)
REMARK    1  A    between atoms: C1_1  and  C7_7 
REMARK    2  A    between atoms: C7_7  and  N1_8 
REMARK    3  A    between atoms: C8_12  and  C1'_13 
REMARK    4  A    between atoms: C3'_15  and  C31'_16 
REMARK    5  A    between atoms: C31'_16  and  C32'_17 
REMARK    6  A    between atoms: C31'_16  and  C42'_20 
REMARK    7  A    between atoms: C42'_20  and  C43'_21 
REMARK    8  A    between atoms: C6'_26  and  O6'_27 
ROOT
ATOM      1  C1  MOL d          44.071  -2.959  26.471  0.00  0.00     0.009 A 
ATOM      2  C2  MOL d          44.452  -1.581  26.446  0.00  0.00     0.017 A 
ATOM      3  C3  MOL d          44.373  -0.760  27.573  0.00  0.00     0.033 A 
ATOM      4  C4  MOL d          43.914  -1.346  28.722  0.00  0.00     0.062 A 
ATOM      5  C5  MOL d          43.543  -2.633  28.799  0.00  0.00     0.086 A 
ATOM      6  C6  MOL d          43.598  -3.489  27.706  0.00  0.00     0.049 A 
ATOM      7  N3  MOL d          43.744  -0.852  29.895  0.00  0.00    -0.338 N 
ATOM      8  N4  MOL d          43.136  -2.977  30.004  0.00  0.00    -0.228 NA
ATOM      9  C8  MOL d          43.293  -1.819  30.626  0.00  0.00     0.142 A 
ATOM     10  H8  MOL d          43.929   0.117  30.193  0.00  0.00     0.167 HD
ENDROOT
BRANCH   9  11
ATOM     11  C1' MOL d          43.022  -1.646  32.005  0.00  0.00     0.045 A 
ATOM     12  C2' MOL d          42.579  -2.715  32.811  0.00  0.00     0.026 A 
ATOM     13  C3' MOL d          42.303  -2.571  34.178  0.00  0.00    -0.041 A 
ATOM     14  C4' MOL d          42.485  -1.300  34.756  0.00  0.00     0.030 A 
ATOM     15  C5' MOL d          42.924  -0.200  34.005  0.00  0.00     0.045 A 
ATOM     16  C6' MOL d          43.183  -0.390  32.639  0.00  0.00     0.097 A 
ATOM     17 BR5' MOL d          43.181   1.571  34.851  0.00  0.00    -0.048 Br
BRANCH  13  18
ATOM     18  C31 MOL d          41.770  -3.838  34.955  0.00  0.00     0.129 C 
BRANCH  18  19
ATOM     19  C32 MOL d          40.278  -4.005  34.462  0.00  0.00     0.182 C 
ATOM     20  O33 MOL d          40.001  -4.984  33.793  0.00  0.00    -0.647 OA
ATOM     21  O34 MOL d          39.444  -3.162  34.734  0.00  0.00    -0.647 OA
ENDBRANCH  18  19
BRANCH  18  22
ATOM     22  C42 MOL d          41.959  -3.757  36.578  0.00  0.00     0.133 C 
BRANCH  22  23
ATOM     23  C43 MOL d          42.960  -4.800  37.255  0.00  0.00     0.173 C 
ATOM     24  O44 MOL d          43.159  -5.906  36.788  0.00  0.00    -0.648 OA
ATOM     25  O45 MOL d          43.551  -4.473  38.274  0.00  0.00    -0.648 OA
ENDBRANCH  22  23
ENDBRANCH  18  22
ENDBRANCH  13  18
BRANCH  16  26
ATOM     26  O6' MOL d          43.594   0.695  31.901  0.00  0.00    -0.358 OA
ATOM     27  H14 MOL d          43.733   0.429  31.000  0.00  0.00     0.217 HD
ENDBRANCH  16  26
ENDBRANCH   9  11
BRANCH   1  28
ATOM     28  C7  MOL d          44.175  -3.746  25.323  0.00  0.00     0.102 C 
ATOM     29  N2  MOL d          44.489  -3.174  24.179  0.00  0.00    -0.385 N 
ATOM     30  H6  MOL d          44.658  -2.159  24.140  0.00  0.00     0.157 HD
ATOM     31  H7  MOL d          44.565  -3.742  23.323  0.00  0.00     0.157 HD
BRANCH  28  32
ATOM     32  N1  MOL d          43.953  -5.033  25.411  0.00  0.00    -0.385 N 
ATOM     33  H4  MOL d          44.026  -5.627  24.573  0.00  0.00     0.157 HD
ATOM     34  H5  MOL d          43.705  -5.452  26.319  0.00  0.00     0.157 HD
ENDBRANCH  28  32
ENDBRANCH   1  28
TORSDOF 8
