REMARK  3 active torsions:
REMARK  status: ('A' for Active; 'I' for Inactive)
REMARK    1  A    between atoms: C1_1  and  C2_4 
REMARK    2  A    between atoms: C2_4  and  C3_5 
REMARK    3  A    between atoms: C3_5  and  S_7 
ROOT
ATOM      1  C2  SPV d          -0.116  -3.184   9.494  0.00  0.00     0.241 C 
ATOM      2  O2  SPV d          -1.348  -2.935   9.313  0.00  0.00    -0.285 OA
ENDROOT
BRANCH   1   3
ATOM      3  C1  SPV d           0.805  -2.197   9.818  0.00  0.00     0.247 C 
ATOM      4  O1  SPV d           0.420  -1.016   9.932  0.00  0.00    -0.642 OA
ATOM      5  O2' SPV d           2.037  -2.526   9.995  0.00  0.00    -0.642 OA
ENDBRANCH   1   3
BRANCH   1   6
ATOM      6  C3  SPV d           0.371  -4.701   9.247  0.00  0.00     0.255 C 
BRANCH   6   7
ATOM      7  S   SPV d           0.892  -5.001   7.591  0.00  0.00     0.109 S 
ATOM      8  O1S SPV d           1.500  -6.273   7.676  0.00  0.00    -0.595 OA
ATOM      9  O2S SPV d           1.835  -3.953   7.249  0.00  0.00    -0.595 OA
ATOM     10  O3S SPV d          -0.324  -5.028   6.762  0.00  0.00    -0.595 OA
ENDBRANCH   6   7
ENDBRANCH   1   6
TORSDOF 3
