REMARK  7 active torsions:
REMARK  status: ('A' for Active; 'I' for Inactive)
REMARK    1  A    between atoms: O2_1  and  C2_2 
REMARK    2  A    between atoms: C3_3  and  O3_4 
REMARK    3  A    between atoms: C4_5  and  O4_6 
REMARK    4  A    between atoms: C5_7  and  C6_8 
REMARK    5  A    between atoms: C6_8  and  O6_9 
REMARK    6  A    between atoms: C1_11  and  SAI_12 
REMARK    7  A    between atoms: SAI_12  and  NAJ_15 
ROOT
ATOM      1  C2  MOL d          16.560   3.477  14.036  0.00  0.00     0.195 C 
ATOM      2  C3  MOL d          17.254   4.443  13.075  0.00  0.00     0.181 C 
ATOM      3  C4  MOL d          16.840   5.877  13.407  0.00  0.00     0.180 C 
ATOM      4  C5  MOL d          17.113   6.161  14.885  0.00  0.00     0.178 C 
ATOM      5  O5  MOL d          16.362   5.237  15.688  0.00  0.00    -0.356 OA
ATOM      6  C1  MOL d          16.823   3.891  15.486  0.00  0.00     0.295 C 
ENDROOT
BRANCH   6   7
ATOM      7  SAI MOL d          15.919   2.779  16.626  0.00  0.00     0.254 S 
ATOM      8  OAM MOL d          16.367   3.043  18.033  0.00  0.00    -0.203 OA
ATOM      9  OAE MOL d          14.445   3.035  16.523  0.00  0.00    -0.203 OA
BRANCH   7  10
ATOM     10  NAJ MOL d          16.244   1.230  16.237  0.00  0.00    -0.326 N 
ATOM     11  H12 MOL d          15.830   0.485  16.761  0.00  0.00     0.168 HD
ATOM     12  H13 MOL d          16.857   1.024  15.474  0.00  0.00     0.168 HD
ENDBRANCH   7  10
ENDBRANCH   6   7
BRANCH   1  13
ATOM     13  O2  MOL d          17.046   2.150  13.814  0.00  0.00    -0.389 OA
ATOM     14  H1  MOL d          16.862   1.892  12.918  0.00  0.00     0.210 HD
ENDBRANCH   1  13
BRANCH   2  15
ATOM     15  O3  MOL d          16.865   4.141  11.732  0.00  0.00    -0.390 OA
ATOM     16  H4  MOL d          15.923   4.232  11.648  0.00  0.00     0.210 HD
ENDBRANCH   2  15
BRANCH   4  17
ATOM     17  C6  MOL d          16.693   7.594  15.218  0.00  0.00     0.198 C 
BRANCH  17  18
ATOM     18  O6  MOL d          15.297   7.754  14.957  0.00  0.00    -0.398 OA
ATOM     19  H10 MOL d          15.125   7.578  14.039  0.00  0.00     0.209 HD
ENDBRANCH  17  18
ENDBRANCH   4  17
BRANCH   3  20
ATOM     20  O4  MOL d          15.443   6.037  13.147  0.00  0.00    -0.390 OA
ATOM     21  H6  MOL d          15.184   6.928  13.353  0.00  0.00     0.210 HD
ENDBRANCH   3  20
TORSDOF 7
