REMARK  10 active torsions:
REMARK  status: ('A' for Active; 'I' for Inactive)
REMARK    1  A    between atoms: C2_2  and  C1_1 
REMARK    2  A    between atoms: C2_2  and  O2_16 
REMARK    3  A    between atoms: C4_4  and  O4_17 
REMARK    4  A    between atoms: N5_13  and  C5_5 
REMARK    5  A    between atoms: C6_6  and  C7_7 
REMARK    6  A    between atoms: C7_7  and  C8_8 
REMARK    7  A    between atoms: C7_7  and  O7_19 
REMARK    8  A    between atoms: C8_8  and  C9_9 
REMARK    9  A    between atoms: C8_8  and  O8_20 
REMARK   10  A    between atoms: C9_9  and  O9_21 
REMARK       I    between atoms: C10_10  and  N5_13 
ROOT
ATOM      1  C2  MNA d          44.254  11.404  19.333  0.00  0.00     0.258 C 
ATOM      2  C3  MNA d          45.298  12.493  19.070  0.00  0.00     0.114 C 
ATOM      3  C4  MNA d          44.920  13.386  17.875  0.00  0.00     0.149 C 
ATOM      4  C5  MNA d          43.486  13.903  17.981  0.00  0.00     0.145 C 
ATOM      5  C6  MNA d          42.554  12.698  18.173  0.00  0.00     0.182 C 
ATOM      6  O6  MNA d          42.947  11.983  19.368  0.00  0.00    -0.336 OA
ENDROOT
BRANCH   5   7
ATOM      7  C7  MNA d          41.075  13.044  18.306  0.00  0.00     0.180 C 
BRANCH   7   8
ATOM      8  C8  MNA d          40.211  11.786  18.409  0.00  0.00     0.173 C 
BRANCH   8   9
ATOM      9  C9  MNA d          38.781  12.098  18.001  0.00  0.00     0.198 C 
BRANCH   9  10
ATOM     10  O9  MNA d          37.990  10.922  18.247  0.00  0.00    -0.398 OA
ATOM     11  H20 MNA d          38.331  10.199  17.733  0.00  0.00     0.209 HD
ENDBRANCH   9  10
ENDBRANCH   8   9
BRANCH   8  12
ATOM     12  O8  MNA d          40.723  10.744  17.568  0.00  0.00    -0.391 OA
ATOM     13  H19 MNA d          41.617  10.546  17.820  0.00  0.00     0.210 HD
ENDBRANCH   8  12
ENDBRANCH   7   8
BRANCH   7  14
ATOM     14  O7  MNA d          40.863  13.842  19.484  0.00  0.00    -0.390 OA
ATOM     15  H18 MNA d          41.395  14.628  19.433  0.00  0.00     0.210 HD
ENDBRANCH   7  14
ENDBRANCH   5   7
BRANCH   4  16
ATOM     16  N5  MNA d          43.156  14.671  16.794  0.00  0.00    -0.352 N 
ATOM     17  C10 MNA d          42.411  15.783  16.795  0.00  0.00     0.214 C 
ATOM     18  C11 MNA d          42.088  16.348  15.443  0.00  0.00     0.117 C 
ATOM     19  O10 MNA d          42.011  16.299  17.828  0.00  0.00    -0.274 OA
ATOM     20  H16 MNA d          43.509  14.347  15.916  0.00  0.00     0.163 HD
ENDBRANCH   4  16
BRANCH   3  21
ATOM     21  O4  MNA d          45.871  14.459  17.789  0.00  0.00    -0.393 OA
ATOM     22  H17 MNA d          46.748  14.099  17.725  0.00  0.00     0.210 HD
ENDBRANCH   3  21
BRANCH   1  23
ATOM     23  C1  MNA d          44.353  10.254  18.340  0.00  0.00     0.239 C 
ATOM     24  O1A MNA d          45.467   9.707  18.176  0.00  0.00    -0.644 OA
ATOM     25  O1B MNA d          43.316   9.857  17.751  0.00  0.00    -0.644 OA
ENDBRANCH   1  23
BRANCH   1  26
ATOM     26  O2  MNA d          44.489  10.912  20.647  0.00  0.00    -0.351 OA
ATOM     27  C12 MNA d          43.715   9.801  21.111  0.00  0.00     0.206 C 
ENDBRANCH   1  26
TORSDOF 10
