REMARK  4 active torsions:
REMARK  status: ('A' for Active; 'I' for Inactive)
REMARK    1  A    between atoms: C3_1  and  S1_11 
REMARK    2  A    between atoms: C10_3  and  N15_22 
REMARK    3  A    between atoms: C21_7  and  O23_25 
REMARK    4  A    between atoms: S1_11  and  N21_10 
ROOT
ATOM      1  C3  AL7 d          -5.457   1.879  15.876  0.00  0.00     0.121 A 
ATOM      2  C9  AL7 d          -4.142   4.635  12.254  0.00  0.00     0.180 C 
ATOM      3  C10 AL7 d          -3.484   3.472  13.012  0.00  0.00     0.239 C 
ATOM      4  C19 AL7 d          -2.617   8.721  11.878  0.00  0.00     0.005 A 
ATOM      5  C20 AL7 d          -1.896   9.192  12.963  0.00  0.00     0.037 A 
ATOM      6  C21 AL7 d          -1.914   8.483  14.161  0.00  0.00     0.070 A 
ATOM      7  C22 AL7 d          -2.646   7.292  14.281  0.00  0.00     0.067 A 
ATOM      8  S2  AL7 d          -6.148   3.441  16.036  0.00  0.00    -0.062 SA
ATOM      9  C6  AL7 d          -5.215   3.957  14.720  0.00  0.00     0.130 A 
ATOM     10  C5  AL7 d          -4.377   2.990  14.153  0.00  0.00     0.006 A 
ATOM     11  C4  AL7 d          -4.544   1.808  14.839  0.00  0.00     0.044 A 
ATOM     12  N8  AL7 d          -4.191   5.736  13.214  0.00  0.00    -0.269 N 
ATOM     13  S7  AL7 d          -5.345   5.564  14.155  0.00  0.00     0.272 S 
ATOM     14  O3B AL7 d          -6.628   5.742  13.410  0.00  0.00    -0.199 OA
ATOM     15  O4B AL7 d          -5.266   6.431  15.364  0.00  0.00    -0.199 OA
ATOM     16  C17 AL7 d          -3.391   6.819  13.181  0.00  0.00     0.048 A 
ATOM     17  C18 AL7 d          -3.359   7.548  11.985  0.00  0.00     0.030 A 
ENDROOT
BRANCH   3  18
ATOM     18  N15 AL7 d          -2.162   3.854  13.498  0.00  0.00    -0.069 N 
ATOM     19  C16 AL7 d          -1.547   3.046  12.446  0.00  0.00     0.267 C 
ATOM     20  H16 AL7 d          -1.959   3.537  14.433  0.00  0.00     0.277 HD
ATOM     21  H17 AL7 d          -1.966   4.840  13.428  0.00  0.00     0.277 HD
ENDBRANCH   3  18
BRANCH   6  22
ATOM     22  O23 AL7 d          -1.311   8.895  15.238  0.00  0.00    -0.356 OA
ATOM     23  C24 AL7 d          -0.603  10.141  15.242  0.00  0.00     0.210 C 
ENDBRANCH   6  22
BRANCH   1  24
ATOM     24  S1  AL7 d          -5.932   0.597  16.939  0.00  0.00     0.263 S 
ATOM     25  O2A AL7 d          -7.314   0.773  16.914  0.00  0.00    -0.200 OA
ATOM     26  O1A AL7 d          -5.314   0.852  18.188  0.00  0.00    -0.200 OA
BRANCH  24  27
ATOM     27  N21 AL7 d          -5.608  -0.756  16.435  0.00  0.00    -0.324 N 
ATOM     28  H13 AL7 d          -5.843  -1.562  16.979  0.00  0.00     0.169 HD
ATOM     29  H14 AL7 d          -5.154  -0.865  15.551  0.00  0.00     0.169 HD
ENDBRANCH  24  27
ENDBRANCH   1  24
TORSDOF 4
