REMARK  4 active torsions:
REMARK  status: ('A' for Active; 'I' for Inactive)
REMARK    1  A    between atoms: C4_7  and  C8_8 
REMARK    2  A    between atoms: C8_8  and  N9_9 
REMARK    3  A    between atoms: C10_13  and  N14_14 
REMARK    4  A    between atoms: N14_14  and  N15_15 
ROOT
ATOM      1  N9  IM4 d          55.638 -20.115  -3.167  0.00  0.00    -0.184 N 
ATOM      2  C13 IM4 d          55.598 -18.947  -2.308  0.00  0.00     0.129 A 
ATOM      3  C12 IM4 d          54.903 -19.435  -1.010  0.00  0.00     0.154 A 
ATOM      4  N11 IM4 d          54.656 -20.839  -1.293  0.00  0.00    -0.074 NA
ATOM      5  C10 IM4 d          55.081 -21.137  -2.531  0.00  0.00     0.725 A 
ENDROOT
BRANCH   1   6
ATOM      6  C8  IM4 d          56.196 -20.182  -4.526  0.00  0.00     0.187 C 
BRANCH   6   7
ATOM      7  C4  IM4 d          55.084 -20.091  -5.623  0.00  0.00    -0.022 A 
ATOM      8  C5  IM4 d          55.275 -20.512  -6.923  0.00  0.00     0.013 A 
ATOM      9  C6  IM4 d          54.261 -20.401  -7.930  0.00  0.00     0.045 A 
ATOM     10  C1  IM4 d          53.029 -19.851  -7.656  0.00  0.00     0.125 A 
ATOM     11 CL7  IM4 d          51.891 -19.734  -8.658  0.00  0.00    -0.062 Cl
ATOM     12  N2  IM4 d          52.934 -19.368  -6.365  0.00  0.00    -0.248 NA
ATOM     13  C3  IM4 d          53.853 -19.478  -5.392  0.00  0.00     0.127 A 
ENDBRANCH   6   7
ENDBRANCH   1   6
BRANCH   5  14
ATOM     14  N14 IM4 d          55.028 -22.355  -3.086  0.00  0.00    -0.070 N 
ATOM     15  H8  IM4 d          55.414 -22.520  -4.026  0.00  0.00     0.212 HD
BRANCH  14  16
ATOM     16  N15 IM4 d          54.507 -23.277  -2.449  0.00  0.00    -0.024 N 
ATOM     17  O16 IM4 d          54.407 -24.761  -2.958  0.00  0.00    -0.516 OA
ATOM     18  O17 IM4 d          53.998 -22.942  -1.144  0.00  0.00    -0.516 OA
ENDBRANCH  14  16
ENDBRANCH   5  14
TORSDOF 4
