REMARK  11 active torsions:
REMARK  status: ('A' for Active; 'I' for Inactive)
REMARK    1  A    between atoms: C2_2  and  C3_3 
REMARK    2  A    between atoms: C3_3  and  N5_4 
REMARK    3  A    between atoms: C3_3  and  C21_14 
REMARK    4  A    between atoms: N5_4  and  C8_5 
REMARK    5  A    between atoms: C8_5  and  C11_7 
REMARK    6  A    between atoms: C11_7  and  C12_8 
REMARK       I    between atoms: C12_8  and  N14_10 
REMARK    7  A    between atoms: N14_10  and  C15_11 
REMARK    8  A    between atoms: C15_11  and  C16_12 
REMARK    9  A    between atoms: C16_12  and  N17_13 
REMARK   10  A    between atoms: C26_19  and  O27_20 
REMARK   11  A    between atoms: O27_20  and  C28_21 
ROOT
ATOM      1  C3  MOL d           0.523  14.291 -41.594  0.00  0.00     0.222 C 
ENDROOT
BRANCH   1   2
ATOM      2  C2  MOL d           0.672  13.911 -43.058  0.00  0.00     0.033 C 
ATOM      3  C1  MOL d           0.625  15.093 -43.998  0.00  0.00     0.007 C 
ENDBRANCH   1   2
BRANCH   1   4
ATOM      4  N5  MOL d           0.318  13.029 -40.784  0.00  0.00    -0.062 N 
ATOM      5  H7  MOL d           0.621  13.228 -39.843  0.00  0.00     0.278 HD
ATOM      6  H8  MOL d           0.911  12.320 -41.185  0.00  0.00     0.278 HD
BRANCH   4   7
ATOM      7  C8  MOL d          -1.069  12.444 -40.688  0.00  0.00     0.191 C 
ATOM      8  C10 MOL d          -1.012  11.081 -40.014  0.00  0.00     0.040 C 
BRANCH   7   9
ATOM      9  C11 MOL d          -2.015  13.409 -39.967  0.00  0.00     0.135 C 
BRANCH   9  10
ATOM     10  C12 MOL d          -1.663  13.693 -38.526  0.00  0.00     0.219 C 
ATOM     11  O13 MOL d          -0.527  14.017 -38.187  0.00  0.00    -0.274 OA
ATOM     12  N14 MOL d          -2.669  13.567 -37.663  0.00  0.00    -0.359 N 
ATOM     13  H15 MOL d          -3.584  13.362 -38.010  0.00  0.00     0.162 HD
BRANCH  12  14
ATOM     14  C15 MOL d          -2.476  13.719 -36.232  0.00  0.00     0.150 C 
BRANCH  14  15
ATOM     15  C16 MOL d          -3.619  14.466 -35.581  0.00  0.00     0.249 C 
BRANCH  15  16
ATOM     16  N17 MOL d          -3.709  15.851 -36.102  0.00  0.00    -0.078 N 
ATOM     17  H20 MOL d          -4.476  16.329 -35.655  0.00  0.00     0.274 HD
ATOM     18  H21 MOL d          -3.863  15.826 -37.098  0.00  0.00     0.274 HD
ATOM     19  H22 MOL d          -2.849  16.340 -35.907  0.00  0.00     0.274 HD
ENDBRANCH  15  16
ENDBRANCH  14  15
ENDBRANCH  12  14
ENDBRANCH   9  10
ENDBRANCH   7   9
ENDBRANCH   4   7
ENDBRANCH   1   4
BRANCH   1  20
ATOM     20  C21 MOL d           1.703  15.096 -41.067  0.00  0.00     0.014 A 
ATOM     21  C22 MOL d           1.549  16.425 -40.686  0.00  0.00     0.014 A 
ATOM     22  C23 MOL d           2.633  17.141 -40.209  0.00  0.00     0.027 A 
ATOM     23  C24 MOL d           3.881  16.545 -40.104  0.00  0.00     0.071 A 
ATOM     24 CL2  MOL d           5.189  17.505 -39.498  0.00  0.00    -0.081 Cl
ATOM     25  C26 MOL d           4.083  15.218 -40.473  0.00  0.00     0.137 A 
ATOM     26  C34 MOL d           2.987  14.520 -40.948  0.00  0.00     0.160 A 
ATOM     27  F35 MOL d           3.147  13.237 -41.312  0.00  0.00    -0.202 F 
BRANCH  25  28
ATOM     28  O27 MOL d           5.308  14.558 -40.394  0.00  0.00    -0.306 OA
BRANCH  28  29
ATOM     29  C28 MOL d           5.870  14.260 -39.169  0.00  0.00     0.076 A 
ATOM     30  C29 MOL d           5.264  14.387 -37.930  0.00  0.00     0.037 A 
ATOM     31  C30 MOL d           5.963  14.045 -36.785  0.00  0.00     0.003 A 
ATOM     32  C31 MOL d           7.255  13.580 -36.878  0.00  0.00     0.000 A 
ATOM     33  C32 MOL d           7.858  13.453 -38.110  0.00  0.00     0.003 A 
ATOM     34  C33 MOL d           7.167  13.792 -39.258  0.00  0.00     0.037 A 
ENDBRANCH  28  29
ENDBRANCH  25  28
ENDBRANCH   1  20
TORSDOF 11
