REMARK  13 active torsions:
REMARK  status: ('A' for Active; 'I' for Inactive)
REMARK    1  A    between atoms: C4_4  and  N1_6 
REMARK    2  A    between atoms: C8_9  and  O1_10 
REMARK    3  A    between atoms: O1_10  and  C9_11 
REMARK    4  A    between atoms: C9_11  and  C10_12 
REMARK       I    between atoms: C10_12  and  N3_14 
REMARK    5  A    between atoms: N3_14  and  C11_15 
REMARK    6  A    between atoms: C11_15  and  C12_16 
REMARK    7  A    between atoms: C11_15  and  C19_23 
REMARK    8  A    between atoms: C12_16  and  C13_17 
REMARK    9  A    between atoms: C19_23  and  O2_24 
REMARK   10  A    between atoms: C19_23  and  C20_25 
REMARK       I    between atoms: C20_25  and  N4_27 
REMARK   11  A    between atoms: C21_33  and  C26_34 
REMARK       I    between atoms: C26_34  and  N5_36 
REMARK   12  A    between atoms: N5_36  and  C27_37 
REMARK   13  A    between atoms: C27_37  and  C28_38 
ROOT
ATOM      1  C11 KNJ d          15.137  22.317  17.539  0.00  0.00     0.126 C 
ENDROOT
BRANCH   1   2
ATOM      2  N3  KNJ d          14.366  21.179  17.983  0.00  0.00    -0.351 N 
ATOM      3  C10 KNJ d          14.922  19.988  18.190  0.00  0.00     0.242 C 
ATOM      4  O6  KNJ d          16.137  19.762  18.070  0.00  0.00    -0.271 OA
ATOM      5  H13 KNJ d          13.384  21.290  18.140  0.00  0.00     0.163 HD
BRANCH   3   6
ATOM      6  C9  KNJ d          14.024  18.815  18.606  0.00  0.00     0.278 C 
BRANCH   6   7
ATOM      7  O1  KNJ d          12.777  19.314  19.047  0.00  0.00    -0.341 OA
BRANCH   7   8
ATOM      8  C8  KNJ d          11.846  18.315  19.180  0.00  0.00     0.081 A 
ATOM      9  C7  KNJ d          10.976  18.091  18.094  0.00  0.00    -0.026 A 
ATOM     10  C6  KNJ d          11.024  18.907  16.834  0.00  0.00     0.051 C 
ATOM     11  C5  KNJ d          10.022  17.080  18.221  0.00  0.00     0.038 A 
ATOM     12  C4  KNJ d           9.902  16.285  19.357  0.00  0.00     0.026 A 
ATOM     13  C3  KNJ d          10.790  16.543  20.380  0.00  0.00     0.038 A 
ATOM     14  C2  KNJ d          11.765  17.547  20.317  0.00  0.00    -0.026 A 
ATOM     15  C1  KNJ d          12.713  17.785  21.451  0.00  0.00     0.051 C 
BRANCH  12  16
ATOM     16  N1  KNJ d           8.967  15.308  19.453  0.00  0.00    -0.399 N 
ATOM     17  H5  KNJ d           8.905  14.737  20.308  0.00  0.00     0.156 HD
ATOM     18  H6  KNJ d           8.319  15.137  18.671  0.00  0.00     0.156 HD
ENDBRANCH  12  16
ENDBRANCH   7   8
ENDBRANCH   6   7
ENDBRANCH   3   6
ENDBRANCH   1   2
BRANCH   1  19
ATOM     19  C12 KNJ d          14.525  22.934  16.282  0.00  0.00     0.066 C 
BRANCH  19  20
ATOM     20  C13 KNJ d          14.306  21.914  15.210  0.00  0.00    -0.056 A 
ATOM     21  C14 KNJ d          15.384  21.400  14.450  0.00  0.00     0.007 A 
ATOM     22  C15 KNJ d          15.157  20.395  13.523  0.00  0.00     0.001 A 
ATOM     23  C16 KNJ d          13.905  19.876  13.350  0.00  0.00     0.000 A 
ATOM     24  C17 KNJ d          12.861  20.375  14.045  0.00  0.00     0.001 A 
ATOM     25  C18 KNJ d          13.029  21.413  14.990  0.00  0.00     0.007 A 
ENDBRANCH  19  20
ENDBRANCH   1  19
BRANCH   1  26
ATOM     26  C19 KNJ d          15.281  23.349  18.688  0.00  0.00     0.233 C 
BRANCH  26  27
ATOM     27  O2  KNJ d          14.164  24.182  18.692  0.00  0.00    -0.384 OA
ATOM     28  H23 KNJ d          14.105  24.635  17.859  0.00  0.00     0.210 HD
ENDBRANCH  26  27
BRANCH  26  29
ATOM     29  C20 KNJ d          16.569  24.132  18.514  0.00  0.00     0.252 C 
ATOM     30  O4  KNJ d          16.597  25.177  17.848  0.00  0.00    -0.270 OA
ATOM     31  N4  KNJ d          17.686  23.637  19.054  0.00  0.00    -0.326 N 
ATOM     32  C25 KNJ d          17.746  22.422  19.890  0.00  0.00     0.201 C 
ATOM     33  C21 KNJ d          18.955  24.356  18.885  0.00  0.00     0.198 C 
ATOM     34  S2  KNJ d          19.483  22.070  20.124  0.00  0.00    -0.137 SA
ATOM     35  C22 KNJ d          19.873  23.838  20.024  0.00  0.00     0.032 C 
ATOM     36  C24 KNJ d          19.478  24.550  21.329  0.00  0.00     0.029 C 
ATOM     37  C23 KNJ d          21.342  24.034  19.727  0.00  0.00     0.029 C 
BRANCH  33  38
ATOM     38  C26 KNJ d          19.478  24.145  17.467  0.00  0.00     0.242 C 
ATOM     39  O5  KNJ d          19.248  23.111  16.840  0.00  0.00    -0.271 OA
ATOM     40  N5  KNJ d          20.156  25.171  16.961  0.00  0.00    -0.355 N 
ATOM     41  H33 KNJ d          20.302  25.978  17.534  0.00  0.00     0.162 HD
BRANCH  40  42
ATOM     42  C27 KNJ d          20.701  25.169  15.594  0.00  0.00     0.155 C 
BRANCH  42  43
ATOM     43  C28 KNJ d          19.826  26.003  14.683  0.00  0.00    -0.075 C 
ATOM     44  C30 KNJ d          18.437  25.516  14.455  0.00  0.00     0.044 C 
ATOM     45  C29 KNJ d          20.338  27.131  14.125  0.00  0.00     0.015 C 
ENDBRANCH  42  43
ENDBRANCH  40  42
ENDBRANCH  33  38
ENDBRANCH  26  29
ENDBRANCH   1  26
TORSDOF 13
