REMARK  10 active torsions:
REMARK  status: ('A' for Active; 'I' for Inactive)
REMARK    1  A    between atoms: C27_5  and  S9_6 
REMARK    2  A    between atoms: S9_6  and  N32_7 
REMARK    3  A    between atoms: N32_7  and  C24_8 
REMARK    4  A    between atoms: N32_7  and  C33_31 
REMARK    5  A    between atoms: C23_9  and  N28_10 
REMARK    6  A    between atoms: N28_10  and  S8_11 
REMARK    7  A    between atoms: N28_10  and  C7_21 
REMARK    8  A    between atoms: S8_11  and  C26_14 
REMARK    9  A    between atoms: C7_21  and  C12_22 
REMARK   10  A    between atoms: C33_31  and  C34_32 
ROOT
ATOM      1  C24 QN3 d         -16.499  19.696  -5.068  0.00  0.00     0.147 C 
ATOM      2  C23 QN3 d         -17.120  18.386  -5.696  0.00  0.00     0.147 C 
ATOM      3  C21 QN3 d         -16.331  17.260  -4.976  0.00  0.00     0.260 C 
ATOM      4  N22 QN3 d         -14.982  17.816  -4.706  0.00  0.00    -0.071 N 
ATOM      5  C25 QN3 d         -15.136  19.267  -4.452  0.00  0.00     0.260 C 
ATOM      6  H19 QN3 d         -14.384  17.669  -5.504  0.00  0.00     0.277 HD
ATOM      7  H20 QN3 d         -14.581  17.367  -3.898  0.00  0.00     0.277 HD
ENDROOT
BRANCH   1   8
ATOM      8  N32 QN3 d         -17.377  20.435  -4.104  0.00  0.00    -0.294 N 
BRANCH   8   9
ATOM      9  S9  QN3 d         -17.644  22.156  -4.474  0.00  0.00     0.263 S 
ATOM     10  O11 QN3 d         -17.733  22.225  -5.926  0.00  0.00    -0.200 OA
ATOM     11  O40 QN3 d         -18.582  22.787  -3.554  0.00  0.00    -0.200 OA
BRANCH   9  12
ATOM     12  C27 QN3 d         -16.049  22.761  -3.834  0.00  0.00     0.101 A 
ATOM     13  C20 QN3 d         -14.934  23.233  -4.606  0.00  0.00     0.057 A 
ATOM     14  C5  QN3 d         -13.749  23.688  -3.956  0.00  0.00     0.025 A 
ATOM     15 CL3  QN3 d         -14.955  23.272  -6.327  0.00  0.00    -0.083 Cl
ATOM     16  C6  QN3 d         -13.649  23.687  -2.543  0.00  0.00     0.002 A 
ATOM     17  C2  QN3 d         -14.737  23.224  -1.764  0.00  0.00     0.002 A 
ATOM     18  C18 QN3 d         -15.921  22.767  -2.405  0.00  0.00     0.027 A 
ENDBRANCH   9  12
ENDBRANCH   8   9
BRANCH   8  19
ATOM     19  C33 QN3 d         -18.009  19.816  -2.912  0.00  0.00     0.174 C 
BRANCH  19  20
ATOM     20  C34 QN3 d         -19.398  19.189  -3.037  0.00  0.00    -0.040 A 
ATOM     21  C35 QN3 d         -20.368  19.700  -3.938  0.00  0.00     0.009 A 
ATOM     22  C36 QN3 d         -21.656  19.094  -4.018  0.00  0.00     0.001 A 
ATOM     23  C37 QN3 d         -21.981  17.972  -3.197  0.00  0.00     0.000 A 
ATOM     24  C39 QN3 d         -21.011  17.458  -2.294  0.00  0.00     0.001 A 
ATOM     25  C38 QN3 d         -19.727  18.066  -2.216  0.00  0.00     0.009 A 
ENDBRANCH  19  20
ENDBRANCH   8  19
ENDBRANCH   1   8
BRANCH   2  26
ATOM     26  N28 QN3 d         -17.073  18.383  -7.191  0.00  0.00    -0.294 N 
BRANCH  26  27
ATOM     27  S8  QN3 d         -18.545  18.702  -8.064  0.00  0.00     0.263 S 
ATOM     28  O10 QN3 d         -19.097  19.932  -7.532  0.00  0.00    -0.200 OA
ATOM     29  O41 QN3 d         -18.224  18.693  -9.490  0.00  0.00    -0.200 OA
BRANCH  27  30
ATOM     30  C26 QN3 d         -19.746  17.373  -7.862  0.00  0.00     0.101 A 
ATOM     31  C19 QN3 d         -20.968  17.669  -7.192  0.00  0.00     0.027 A 
ATOM     32  C3  QN3 d         -21.969  16.672  -7.009  0.00  0.00     0.002 A 
ATOM     33  C4  QN3 d         -21.756  15.352  -7.502  0.00  0.00     0.002 A 
ATOM     34  C1  QN3 d         -20.542  15.036  -8.176  0.00  0.00     0.025 A 
ATOM     35  C17 QN3 d         -19.536  16.035  -8.360  0.00  0.00     0.057 A 
ATOM     36 CL1  QN3 d         -18.079  15.579  -9.203  0.00  0.00    -0.083 Cl
ENDBRANCH  27  30
ENDBRANCH  26  27
BRANCH  26  37
ATOM     37  C7  QN3 d         -15.845  18.091  -7.974  0.00  0.00     0.174 C 
BRANCH  37  38
ATOM     38  C12 QN3 d         -14.958  19.325  -8.284  0.00  0.00    -0.040 A 
ATOM     39  C13 QN3 d         -15.498  20.447  -8.985  0.00  0.00     0.009 A 
ATOM     40  C29 QN3 d         -14.686  21.577  -9.282  0.00  0.00     0.001 A 
ATOM     41  C31 QN3 d         -13.320  21.600  -8.878  0.00  0.00     0.000 A 
ATOM     42  C30 QN3 d         -12.771  20.489  -8.177  0.00  0.00     0.001 A 
ATOM     43  C14 QN3 d         -13.586  19.362  -7.884  0.00  0.00     0.009 A 
ENDBRANCH  37  38
ENDBRANCH  26  37
ENDBRANCH   2  26
TORSDOF 10
