REMARK  6 active torsions:
REMARK  status: ('A' for Active; 'I' for Inactive)
REMARK    1  A    between atoms: C9_6  and  C4_5 
REMARK    2  A    between atoms: S1_8  and  N1_11 
REMARK    3  A    between atoms: S1_8  and  C6_29 
REMARK    4  A    between atoms: N1_11  and  C12_12 
REMARK    5  A    between atoms: N2_17  and  C16_18 
REMARK    6  A    between atoms: C16_18  and  C18_20 
REMARK       I    between atoms: C18_20  and  N3_22 
ROOT
ATOM      1  C12 MOL d           5.832   6.582  22.765  0.00  0.00     0.186 C 
ATOM      2  C13 MOL d           4.511   6.085  22.153  0.00  0.00     0.055 C 
ATOM      3  C14 MOL d           4.891   4.758  21.491  0.00  0.00     0.129 C 
ATOM      4  C15 MOL d           6.898   5.928  21.886  0.00  0.00     0.244 C 
ATOM      5  O3  MOL d           8.068   6.303  21.747  0.00  0.00    -0.271 OA
ATOM      6  N2  MOL d           6.347   4.840  21.311  0.00  0.00    -0.337 N 
ENDROOT
BRANCH   1   7
ATOM      7  N1  MOL d           5.931   8.024  22.925  0.00  0.00    -0.302 N 
ATOM      8  H6  MOL d           5.952   8.646  22.143  0.00  0.00     0.173 HD
BRANCH   7   9
ATOM      9  S1  MOL d           6.010   8.592  24.556  0.00  0.00     0.250 S 
ATOM     10  O2  MOL d           4.987   7.872  25.261  0.00  0.00    -0.201 OA
ATOM     11  O1  MOL d           5.935   9.992  24.414  0.00  0.00    -0.201 OA
BRANCH   9  12
ATOM     12  C6  MOL d           7.534   8.066  25.212  0.00  0.00     0.139 C 
ATOM     13  C9  MOL d           8.735   8.632  24.924  0.00  0.00    -0.032 C 
ATOM     14  C8  MOL d           8.990   9.696  23.882  0.00  0.00     0.050 C 
BRANCH  13  15
ATOM     15  C4  MOL d           9.953   8.117  25.644  0.00  0.00     0.013 A 
ATOM     16  C3  MOL d           9.994   7.373  26.833  0.00  0.00     0.021 A 
ATOM     17  C2  MOL d          11.306   7.042  27.232  0.00  0.00     0.033 A 
ATOM     18  C1  MOL d          12.245   7.573  26.319  0.00  0.00     0.075 A 
ATOM     19 CL1  MOL d          13.937   7.390  26.443  0.00  0.00    -0.076 Cl
ATOM     20  S6  MOL d          11.523   8.449  25.057  0.00  0.00    -0.078 SA
ENDBRANCH  13  15
ENDBRANCH   9  12
ENDBRANCH   7   9
ENDBRANCH   1   7
BRANCH   6  21
ATOM     21  C16 MOL d           7.155   3.823  20.618  0.00  0.00     0.175 C 
ATOM     22  C17 MOL d           6.817   2.401  21.089  0.00  0.00     0.042 C 
BRANCH  21  23
ATOM     23  C18 MOL d           7.008   3.922  19.087  0.00  0.00     0.242 C 
ATOM     24  O4  MOL d           5.947   4.339  18.667  0.00  0.00    -0.271 OA
ATOM     25  N3  MOL d           8.025   3.565  18.239  0.00  0.00    -0.346 N 
ATOM     26  C19 MOL d           7.866   3.874  16.808  0.00  0.00     0.152 C 
ATOM     27  C23 MOL d           9.287   2.880  18.606  0.00  0.00     0.152 C 
ATOM     28  C20 MOL d           8.262   2.688  15.928  0.00  0.00     0.187 C 
ATOM     29  O5  MOL d           9.522   2.211  16.340  0.00  0.00    -0.388 OA
ATOM     30  C22 MOL d           9.598   1.722  17.661  0.00  0.00     0.187 C 
ENDBRANCH  21  23
ENDBRANCH   6  21
TORSDOF 6
