REMARK  10 active torsions:
REMARK  status: ('A' for Active; 'I' for Inactive)
REMARK    1  A    between atoms: O3B_8  and  PG_1 
REMARK    2  A    between atoms: PB_5  and  O3B_8 
REMARK    3  A    between atoms: O3A_12  and  PB_5 
REMARK    4  A    between atoms: PA_9  and  O3A_12 
REMARK    5  A    between atoms: PA_9  and  O5'_13 
REMARK    6  A    between atoms: O5'_13  and  C5'_14 
REMARK    7  A    between atoms: C5'_14  and  C4'_15 
REMARK    8  A    between atoms: C3'_17  and  O3'_18 
REMARK    9  A    between atoms: C2'_19  and  O2'_20 
REMARK   10  A    between atoms: C1'_21  and  N9_22 
ROOT
ATOM      1  C4' ATP d          18.742   9.529 -16.715  0.00  0.00     0.180 C 
ATOM      2  O4' ATP d          20.115   9.428 -16.334  0.00  0.00    -0.353 OA
ATOM      3  C3' ATP d          18.289  10.944 -16.378  0.00  0.00     0.182 C 
ATOM      4  C2' ATP d          19.457  11.575 -15.633  0.00  0.00     0.198 C 
ATOM      5  C1' ATP d          20.415  10.421 -15.355  0.00  0.00     0.262 C 
ENDROOT
BRANCH   1   6
ATOM      6  C5' ATP d          18.550   9.209 -18.193  0.00  0.00     0.216 C 
BRANCH   6   7
ATOM      7  O5' ATP d          19.515   8.247 -18.617  0.00  0.00    -0.287 OA
BRANCH   7   8
ATOM      8  PA  ATP d          19.374   7.525 -20.049  0.00  0.00     0.417 P 
ATOM      9  O1A ATP d          19.584   6.043 -19.867  0.00  0.00    -0.624 OA
ATOM     10  O2A ATP d          18.115   8.040 -20.707  0.00  0.00    -0.624 OA
BRANCH   8  11
ATOM     11  O3A ATP d          20.627   8.174 -20.827  0.00  0.00    -0.180 OA
BRANCH  11  12
ATOM     12  PB  ATP d          20.704   8.188 -22.432  0.00  0.00     0.428 P 
ATOM     13  O1B ATP d          19.455   7.556 -22.993  0.00  0.00    -0.624 OA
ATOM     14  O2B ATP d          22.053   7.638 -22.823  0.00  0.00    -0.624 OA
BRANCH  12  15
ATOM     15  O3B ATP d          20.685   9.771 -22.749  0.00  0.00    -0.173 OA
BRANCH  15  16
ATOM     16  PG  ATP d          20.712  10.342 -24.254  0.00  0.00     0.431 P 
ATOM     17  O1G ATP d          19.299  10.160 -24.753  0.00  0.00    -0.616 OA
ATOM     18  O2G ATP d          21.125  11.782 -24.072  0.00  0.00    -0.616 OA
ATOM     19  O3G ATP d          21.735   9.475 -24.949  0.00  0.00    -0.616 OA
ENDBRANCH  15  16
ENDBRANCH  12  15
ENDBRANCH  11  12
ENDBRANCH   8  11
ENDBRANCH   7   8
ENDBRANCH   6   7
ENDBRANCH   1   6
BRANCH   3  20
ATOM     20  O3' ATP d          17.109  10.894 -15.567  0.00  0.00    -0.390 OA
ATOM     21  H5  ATP d          16.831  11.778 -15.360  0.00  0.00     0.210 HD
ENDBRANCH   3  20
BRANCH   5  22
ATOM     22  N9  ATP d          21.829  10.853 -15.443  0.00  0.00    -0.294 N 
ATOM     23  C8  ATP d          22.427  11.397 -16.521  0.00  0.00     0.214 A 
ATOM     24  N7  ATP d          23.730  11.681 -16.268  0.00  0.00    -0.236 NA
ATOM     25  C5  ATP d          23.988  11.318 -14.997  0.00  0.00     0.149 A 
ATOM     26  C6  ATP d          25.163  11.343 -14.094  0.00  0.00     0.155 A 
ATOM     27  C4  ATP d          22.732  10.777 -14.458  0.00  0.00     0.167 A 
ATOM     28  N6  ATP d          26.362  11.829 -14.505  0.00  0.00    -0.382 N 
ATOM     29  N1  ATP d          25.003  10.865 -12.845  0.00  0.00    -0.222 NA
ATOM     30  H10 ATP d          27.164  11.836 -13.859  0.00  0.00     0.157 HD
ATOM     31  H11 ATP d          26.470  12.191 -15.463  0.00  0.00     0.157 HD
ATOM     32  C2  ATP d          23.820  10.382 -12.420  0.00  0.00     0.237 A 
ATOM     33  N3  ATP d          22.713  10.331 -13.180  0.00  0.00    -0.222 NA
ENDBRANCH   5  22
BRANCH   4  34
ATOM     34  O2' ATP d          19.054  12.202 -14.412  0.00  0.00    -0.388 OA
ATOM     35  H7  ATP d          18.658  11.555 -13.841  0.00  0.00     0.210 HD
ENDBRANCH   4  34
TORSDOF 10
