REMARK  5 active torsions:
REMARK  status: ('A' for Active; 'I' for Inactive)
REMARK    1  A    between atoms: C5_5  and  C24_16 
REMARK    2  A    between atoms: C6_6  and  O19_14 
REMARK    3  A    between atoms: C11_9  and  C16_11 
REMARK    4  A    between atoms: C16_11  and  N17_12 
REMARK    5  A    between atoms: N26_18  and  S34_21 
ROOT
ATOM      1  C1  UI3 d          22.863  15.286  32.969  0.00  0.00     0.038 A 
ATOM      2  C2  UI3 d          21.605  15.517  32.350  0.00  0.00     0.015 A 
ATOM      3  C3  UI3 d          20.818  16.610  32.735  0.00  0.00    -0.025 A 
ATOM      4  C4  UI3 d          21.296  17.527  33.742  0.00  0.00    -0.015 A 
ATOM      5  C5  UI3 d          22.569  17.306  34.348  0.00  0.00    -0.007 A 
ATOM      6  C6  UI3 d          23.324  16.186  33.987  0.00  0.00     0.075 A 
ATOM      7  C9  UI3 d          19.546  16.756  32.138  0.00  0.00     0.013 A 
ATOM      8  C10 UI3 d          18.732  17.798  32.545  0.00  0.00     0.016 A 
ATOM      9  C11 UI3 d          19.178  18.698  33.539  0.00  0.00     0.008 A 
ATOM     10  C12 UI3 d          20.451  18.574  34.144  0.00  0.00     0.028 A 
ENDROOT
BRANCH   5  11
ATOM     11  C24 UI3 d          23.231  18.279  35.262  0.00  0.00     0.065 C 
ATOM     12  C25 UI3 d          23.843  17.982  36.413  0.00  0.00     0.150 C 
ATOM     13  N26 UI3 d          23.982  19.216  37.205  0.00  0.00    -0.036 NA
ATOM     14  N27 UI3 d          24.144  20.153  36.098  0.00  0.00     0.002 N 
ATOM     15  C28 UI3 d          23.351  19.713  35.084  0.00  0.00     0.265 C 
ATOM     16  H16 UI3 d          25.107  20.174  35.800  0.00  0.00     0.300 HD
ATOM     17  H17 UI3 d          23.860  21.077  36.383  0.00  0.00     0.300 HD
BRANCH  13  18
ATOM     18  S34 UI3 d          24.976  19.186  38.668  0.00  0.00     0.230 S 
ATOM     19  O35 UI3 d          24.839  20.513  39.240  0.00  0.00    -0.210 OA
ATOM     20  O36 UI3 d          26.270  18.810  38.154  0.00  0.00    -0.210 OA
ATOM     21  C37 UI3 d          24.435  17.892  39.769  0.00  0.00     0.181 C 
ENDBRANCH  13  18
ENDBRANCH   5  11
BRANCH   6  22
ATOM     22  O19 UI3 d          24.553  16.055  34.706  0.00  0.00    -0.355 OA
ATOM     23  C20 UI3 d          25.559  15.138  34.287  0.00  0.00     0.210 C 
ENDBRANCH   6  22
BRANCH   9  24
ATOM     24  C16 UI3 d          18.314  19.790  33.954  0.00  0.00     0.102 C 
ATOM     25  N18 UI3 d          18.773  20.831  34.596  0.00  0.00    -0.385 N 
ATOM     26  H8  UI3 d          19.777  20.898  34.818  0.00  0.00     0.157 HD
ATOM     27  H9  UI3 d          18.131  21.585  34.881  0.00  0.00     0.157 HD
BRANCH  24  28
ATOM     28  N17 UI3 d          16.978  19.747  33.684  0.00  0.00    -0.385 N 
ATOM     29  H6  UI3 d          16.368  20.522  33.979  0.00  0.00     0.157 HD
ATOM     30  H7  UI3 d          16.579  18.939  33.185  0.00  0.00     0.157 HD
ENDBRANCH  24  28
ENDBRANCH   9  24
TORSDOF 5
