REMARK  14 active torsions:
REMARK  status: ('A' for Active; 'I' for Inactive)
REMARK    1  A    between atoms: C2_2  and  N1_1 
REMARK    2  A    between atoms: S8_8  and  C5_5 
REMARK    3  A    between atoms: N11_11  and  S8_8 
REMARK    4  A    between atoms: N11_11  and  C12_12 
REMARK    5  A    between atoms: C16_16  and  N11_11 
REMARK    6  A    between atoms: C12_12  and  C13_13 
REMARK    7  A    between atoms: C17_17  and  C16_16 
REMARK    8  A    between atoms: C17_17  and  O18_18 
REMARK    9  A    between atoms: C19_19  and  C17_17 
REMARK   10  A    between atoms: C19_19  and  N20_20 
REMARK   11  A    between atoms: C32_32  and  C19_19 
REMARK       I    between atoms: N20_20  and  C21_21 
REMARK   12  A    between atoms: C21_21  and  O23_23 
REMARK   13  A    between atoms: O23_23  and  C24_24 
REMARK   14  A    between atoms: C38_38  and  C32_32 
ROOT
ATOM      1  C17 MOL d          20.082  29.311  16.015  0.00  0.00     0.160 C 
ENDROOT
BRANCH   1   2
ATOM      2  C16 MOL d          19.217  30.448  16.629  0.00  0.00     0.169 C 
BRANCH   2   3
ATOM      3  N11 MOL d          19.547  31.705  15.872  0.00  0.00    -0.304 N 
BRANCH   3   4
ATOM      4  S8  MOL d          18.310  32.342  14.899  0.00  0.00     0.260 S 
ATOM      5  O9  MOL d          17.496  31.213  14.407  0.00  0.00    -0.200 OA
ATOM      6  O10 MOL d          19.002  33.184  13.917  0.00  0.00    -0.200 OA
BRANCH   4   7
ATOM      7  C5  MOL d          17.325  33.576  15.808  0.00  0.00     0.079 A 
ATOM      8  C4  MOL d          16.271  33.173  16.666  0.00  0.00     0.027 A 
ATOM      9  C3  MOL d          15.578  34.164  17.389  0.00  0.00     0.030 A 
ATOM     10  C2  MOL d          15.971  35.518  17.253  0.00  0.00     0.025 A 
ATOM     11  C7  MOL d          17.008  35.880  16.399  0.00  0.00     0.030 A 
ATOM     12  C6  MOL d          17.721  34.892  15.708  0.00  0.00     0.027 A 
BRANCH  10  13
ATOM     13  N1  MOL d          15.369  36.522  17.952  0.00  0.00    -0.399 N 
ATOM     14  H1  MOL d          14.596  36.308  18.598  0.00  0.00     0.156 HD
ATOM     15  H2  MOL d          15.687  37.494  17.834  0.00  0.00     0.156 HD
ENDBRANCH  10  13
ENDBRANCH   4   7
ENDBRANCH   3   4
BRANCH   3  16
ATOM     16  C12 MOL d          20.385  32.719  16.539  0.00  0.00     0.139 C 
BRANCH  16  17
ATOM     17  C13 MOL d          21.864  32.326  16.569  0.00  0.00    -0.004 C 
ATOM     18  C14 MOL d          22.409  32.281  15.142  0.00  0.00     0.011 C 
ATOM     19  C15 MOL d          22.599  33.350  17.422  0.00  0.00     0.011 C 
ENDBRANCH  16  17
ENDBRANCH   3  16
ENDBRANCH   2   3
ENDBRANCH   1   2
BRANCH   1  20
ATOM     20  O18 MOL d          19.992  28.199  16.929  0.00  0.00    -0.392 OA
ATOM     21  H19 MOL d          20.508  27.474  16.596  0.00  0.00     0.210 HD
ENDBRANCH   1  20
BRANCH   1  22
ATOM     22  C19 MOL d          19.683  28.868  14.606  0.00  0.00     0.121 C 
BRANCH  22  23
ATOM     23  N20 MOL d          20.679  27.940  14.099  0.00  0.00    -0.329 N 
ATOM     24  C21 MOL d          21.531  28.287  13.131  0.00  0.00     0.361 C 
ATOM     25  O22 MOL d          21.616  29.343  12.526  0.00  0.00    -0.238 OA
ATOM     26  H21 MOL d          20.728  27.018  14.484  0.00  0.00     0.165 HD
BRANCH  24  27
ATOM     27  O23 MOL d          22.386  27.235  12.884  0.00  0.00    -0.296 OA
BRANCH  27  28
ATOM     28  C24 MOL d          23.207  27.316  11.700  0.00  0.00     0.166 C 
ATOM     29  C25 MOL d          24.526  26.625  12.047  0.00  0.00     0.204 C 
ATOM     30  O26 MOL d          24.254  25.237  11.965  0.00  0.00    -0.358 OA
ATOM     31  C27 MOL d          23.257  25.046  10.973  0.00  0.00     0.266 C 
ATOM     32  O28 MOL d          22.229  24.229  11.527  0.00  0.00    -0.361 OA
ATOM     33  C31 MOL d          22.653  26.378  10.613  0.00  0.00     0.075 C 
ATOM     34  C29 MOL d          20.986  24.964  11.569  0.00  0.00     0.171 C 
ATOM     35  C30 MOL d          21.176  26.163  10.605  0.00  0.00     0.038 C 
ENDBRANCH  27  28
ENDBRANCH  24  27
ENDBRANCH  22  23
BRANCH  22  36
ATOM     36  C32 MOL d          18.304  28.178  14.523  0.00  0.00     0.066 C 
BRANCH  36  37
ATOM     37  C38 MOL d          17.985  27.731  13.114  0.00  0.00    -0.056 A 
ATOM     38  C33 MOL d          17.870  26.361  12.811  0.00  0.00     0.007 A 
ATOM     39  C34 MOL d          17.589  25.958  11.509  0.00  0.00     0.001 A 
ATOM     40  C35 MOL d          17.463  26.881  10.486  0.00  0.00     0.000 A 
ATOM     41  C36 MOL d          17.558  28.244  10.803  0.00  0.00     0.001 A 
ATOM     42  C37 MOL d          17.834  28.682  12.082  0.00  0.00     0.007 A 
ENDBRANCH  36  37
ENDBRANCH  22  36
ENDBRANCH   1  22
TORSDOF 14
