REMARK  2 active torsions:
REMARK  status: ('A' for Active; 'I' for Inactive)
REMARK    1  A    between atoms: C_7  and  C1_1 
REMARK    2  A    between atoms: C_7  and  N1_8 
ROOT
ATOM      1  C   BAM d          10.901 -11.741  24.207  0.00  0.00     0.102 C 
ATOM      2  N2  BAM d          10.629 -10.639  24.875  0.00  0.00    -0.385 N 
ATOM      3  H8  BAM d          11.094  -9.755  24.622  0.00  0.00     0.157 HD
ATOM      4  H9  BAM d           9.951 -10.661  25.650  0.00  0.00     0.157 HD
ENDROOT
BRANCH   1   5
ATOM      5  C1  BAM d          11.827 -11.737  23.151  0.00  0.00     0.007 A 
ATOM      6  C6  BAM d          12.383 -10.549  22.661  0.00  0.00     0.015 A 
ATOM      7  C5  BAM d          13.309 -10.525  21.626  0.00  0.00     0.001 A 
ATOM      8  C4  BAM d          13.703 -11.697  21.052  0.00  0.00     0.000 A 
ATOM      9  C3  BAM d          13.177 -12.895  21.506  0.00  0.00     0.001 A 
ATOM     10  C2  BAM d          12.252 -12.916  22.540  0.00  0.00     0.015 A 
ENDBRANCH   1   5
BRANCH   1  11
ATOM     11  N1  BAM d          10.321 -12.861  24.516  0.00  0.00    -0.385 N 
ATOM     12  H6  BAM d           9.638 -12.892  25.286  0.00  0.00     0.157 HD
ATOM     13  H7  BAM d          10.544 -13.719  23.991  0.00  0.00     0.157 HD
ENDBRANCH   1  11
TORSDOF 2
