REMARK  23 active torsions:
REMARK  status: ('A' for Active; 'I' for Inactive)
REMARK    1  A    between atoms: CA1_2  and  N1_1 
REMARK    2  A    between atoms: CA1_2  and  C1_3 
REMARK    3  A    between atoms: CB1_6  and  CA1_2 
REMARK    4  A    between atoms: CG1_7  and  CB1_6 
REMARK    5  A    between atoms: CD1_8  and  CG1_7 
REMARK       I    between atoms: N2_10  and  CD1_8 
REMARK    6  A    between atoms: CA2_11  and  N2_10 
REMARK    7  A    between atoms: CA2_11  and  C2_12 
REMARK    8  A    between atoms: CB2_14  and  CA2_11 
REMARK       I    between atoms: C2_12  and  N3_16 
REMARK    9  A    between atoms: SG2_15  and  CB2_14 
REMARK   10  A    between atoms: SG5_31  and  SG2_15 
REMARK   11  A    between atoms: N3_16  and  CA3_17 
REMARK   12  A    between atoms: CA3_17  and  C3_18 
REMARK   13  A    between atoms: N4_21  and  CA4_22 
REMARK       I    between atoms: C5_26  and  N4_21 
REMARK   14  A    between atoms: CA4_22  and  C4_23 
REMARK   15  A    between atoms: CA5_28  and  C5_26 
REMARK   16  A    between atoms: N5_29  and  CA5_28 
REMARK   17  A    between atoms: CA5_28  and  CB5_30 
REMARK       I    between atoms: CD6_39  and  N5_29 
REMARK   18  A    between atoms: CB5_30  and  SG5_31 
REMARK   19  A    between atoms: CA6_32  and  C6_33 
REMARK   20  A    between atoms: CA6_32  and  N6_36 
REMARK   21  A    between atoms: CB6_37  and  CA6_32 
REMARK   22  A    between atoms: CG6_38  and  CB6_37 
REMARK   23  A    between atoms: CG6_38  and  CD6_39 
ROOT
ATOM      1  SG2 GDS d          15.418 -14.911 -15.544  0.00  0.00    -0.095 SA
ENDROOT
BRANCH   1   2
ATOM      2  CB2 GDS d          15.141 -13.681 -14.295  0.00  0.00     0.120 C 
BRANCH   2   3
ATOM      3  CA2 GDS d          15.368 -14.179 -12.851  0.00  0.00     0.186 C 
BRANCH   3   4
ATOM      4  N2  GDS d          14.963 -13.088 -12.002  0.00  0.00    -0.347 N 
ATOM      5  CD1 GDS d          13.814 -13.213 -11.126  0.00  0.00     0.218 C 
ATOM      6  O1  GDS d          13.381 -14.334 -10.805  0.00  0.00    -0.274 OA
ATOM      7  H9  GDS d          15.481 -12.233 -12.017  0.00  0.00     0.163 HD
BRANCH   5   8
ATOM      8  CG1 GDS d          13.290 -11.939 -10.361  0.00  0.00     0.105 C 
BRANCH   8   9
ATOM      9  CB1 GDS d          11.857 -11.674 -10.719  0.00  0.00     0.053 C 
BRANCH   9  10
ATOM     10  CA1 GDS d          11.808 -11.072 -12.075  0.00  0.00     0.283 C 
BRANCH  10  11
ATOM     11  N1  GDS d          12.274  -9.717 -11.995  0.00  0.00    -0.065 N 
ATOM     12  H1  GDS d          13.215  -9.706 -11.634  0.00  0.00     0.275 HD
ATOM     13  H2  GDS d          11.672  -9.190 -11.381  0.00  0.00     0.275 HD
ATOM     14  H3  GDS d          12.262  -9.303 -12.914  0.00  0.00     0.275 HD
ENDBRANCH  10  11
BRANCH  10  15
ATOM     15  C1  GDS d          10.427 -11.021 -12.610  0.00  0.00     0.204 C 
ATOM     16  OE1 GDS d           9.818  -9.922 -12.611  0.00  0.00    -0.646 OA
ATOM     17  OE2 GDS d           9.777 -12.070 -12.799  0.00  0.00    -0.646 OA
ENDBRANCH  10  15
ENDBRANCH   9  10
ENDBRANCH   8   9
ENDBRANCH   5   8
ENDBRANCH   3   4
BRANCH   3  18
ATOM     18  C2  GDS d          16.803 -14.422 -12.591  0.00  0.00     0.241 C 
ATOM     19  O2  GDS d          17.580 -13.455 -12.517  0.00  0.00    -0.271 OA
ATOM     20  N3  GDS d          17.297 -15.715 -12.388  0.00  0.00    -0.349 N 
ATOM     21  H13 GDS d          16.690 -16.503 -12.287  0.00  0.00     0.163 HD
BRANCH  20  22
ATOM     22  CA3 GDS d          18.735 -15.846 -12.333  0.00  0.00     0.235 C 
BRANCH  22  23
ATOM     23  C3  GDS d          19.149 -17.162 -12.958  0.00  0.00     0.191 C 
ATOM     24  OE3 GDS d          18.369 -17.721 -13.772  0.00  0.00    -0.647 OA
ATOM     25  OE4 GDS d          20.290 -17.641 -12.706  0.00  0.00    -0.647 OA
ENDBRANCH  22  23
ENDBRANCH  20  22
ENDBRANCH   3  18
ENDBRANCH   2   3
ENDBRANCH   1   2
BRANCH   1  26
ATOM     26  SG5 GDS d          13.760 -16.074 -15.823  0.00  0.00    -0.095 SA
BRANCH  26  27
ATOM     27  CB5 GDS d          13.762 -17.214 -14.480  0.00  0.00     0.120 C 
BRANCH  27  28
ATOM     28  CA5 GDS d          15.012 -18.121 -14.564  0.00  0.00     0.186 C 
BRANCH  28  29
ATOM     29  C5  GDS d          15.283 -18.813 -13.252  0.00  0.00     0.241 C 
ATOM     30  N4  GDS d          15.063 -20.222 -13.099  0.00  0.00    -0.349 N 
ATOM     31  H16 GDS d          14.579 -20.719 -13.819  0.00  0.00     0.163 HD
ATOM     32  O5  GDS d          15.554 -18.127 -12.236  0.00  0.00    -0.271 OA
BRANCH  30  33
ATOM     33  CA4 GDS d          15.518 -20.939 -11.941  0.00  0.00     0.235 C 
BRANCH  33  34
ATOM     34  C4  GDS d          14.511 -20.951 -10.808  0.00  0.00     0.191 C 
ATOM     35  OE5 GDS d          14.908 -21.188  -9.640  0.00  0.00    -0.647 OA
ATOM     36  OE6 GDS d          13.280 -20.677 -11.005  0.00  0.00    -0.647 OA
ENDBRANCH  33  34
ENDBRANCH  30  33
ENDBRANCH  28  29
BRANCH  28  37
ATOM     37  N5  GDS d          14.790 -19.074 -15.615  0.00  0.00    -0.347 N 
ATOM     38  CD6 GDS d          15.871 -19.815 -16.268  0.00  0.00     0.218 C 
ATOM     39  O6  GDS d          17.050 -19.685 -15.875  0.00  0.00    -0.274 OA
ATOM     40  H20 GDS d          13.851 -19.240 -15.916  0.00  0.00     0.163 HD
BRANCH  38  41
ATOM     41  CG6 GDS d          15.529 -20.599 -17.531  0.00  0.00     0.105 C 
BRANCH  41  42
ATOM     42  CB6 GDS d          16.366 -21.868 -17.682  0.00  0.00     0.053 C 
BRANCH  42  43
ATOM     43  CA6 GDS d          15.797 -23.033 -16.859  0.00  0.00     0.283 C 
BRANCH  43  44
ATOM     44  C6  GDS d          15.911 -22.818 -15.387  0.00  0.00     0.204 C 
ATOM     45  OE7 GDS d          14.904 -22.513 -14.697  0.00  0.00    -0.646 OA
ATOM     46  OE8 GDS d          17.016 -22.995 -14.811  0.00  0.00    -0.646 OA
ENDBRANCH  43  44
BRANCH  43  47
ATOM     47  N6  GDS d          14.405 -23.313 -17.219  0.00  0.00    -0.065 N 
ATOM     48  H24 GDS d          14.338 -23.457 -18.214  0.00  0.00     0.275 HD
ATOM     49  H25 GDS d          13.825 -22.533 -16.952  0.00  0.00     0.275 HD
ATOM     50  H26 GDS d          14.094 -24.142 -16.738  0.00  0.00     0.275 HD
ENDBRANCH  43  47
ENDBRANCH  42  43
ENDBRANCH  41  42
ENDBRANCH  38  41
ENDBRANCH  28  37
ENDBRANCH  27  28
ENDBRANCH  26  27
ENDBRANCH   1  26
TORSDOF 23
