REMARK  3 active torsions:
REMARK  status: ('A' for Active; 'I' for Inactive)
REMARK    1  A    between atoms: C2_3  and  C8_9 
REMARK    2  A    between atoms: C4_5  and  O1_11 
REMARK    3  A    between atoms: C7_8  and  C9_10 
ROOT
ATOM      1  C'  BAR d          32.334  30.611  44.401  0.00  0.00     0.004 C 
ATOM      2  C1  BAR d          31.929  31.771  44.965  0.00  0.00    -0.007 C 
ATOM      3  C2  BAR d          31.024  31.883  46.171  0.00  0.00     0.071 C 
ATOM      4  C3  BAR d          31.122  30.557  46.915  0.00  0.00     0.059 C 
ATOM      5  C4  BAR d          31.789  29.279  44.841  0.00  0.00     0.169 C 
ATOM      6  C5  BAR d          30.728  29.446  45.932  0.00  0.00     0.156 C 
ATOM      7  C6  BAR d          29.543  32.105  45.837  0.00  0.00     0.067 C 
ATOM      8  C7  BAR d          28.877  30.910  45.131  0.00  0.00     0.224 C 
ATOM      9  O'  BAR d          29.380  29.634  45.502  0.00  0.00    -0.367 OA
ENDROOT
BRANCH   3  10
ATOM     10  C8  BAR d          31.433  33.076  47.043  0.00  0.00     0.186 C 
ATOM     11  O5  BAR d          31.529  32.929  48.246  0.00  0.00    -0.647 OA
ATOM     12  O4  BAR d          31.661  34.167  46.525  0.00  0.00    -0.647 OA
ENDBRANCH   3  10
BRANCH   8  13
ATOM     13  C9  BAR d          28.884  31.050  43.615  0.00  0.00     0.203 C 
ATOM     14  O3  BAR d          28.728  32.161  43.125  0.00  0.00    -0.646 OA
ATOM     15  O2  BAR d          29.048  30.055  42.928  0.00  0.00    -0.646 OA
ENDBRANCH   8  13
BRANCH   5  16
ATOM     16  O1  BAR d          32.870  28.550  45.367  0.00  0.00    -0.389 OA
ATOM     17  H10 BAR d          33.534  28.442  44.696  0.00  0.00     0.210 HD
ENDBRANCH   5  16
TORSDOF 3
