REMARK  6 active torsions:
REMARK  status: ('A' for Active; 'I' for Inactive)
REMARK    1  A    between atoms: C6_2  and  C5_3 
REMARK    2  A    between atoms: O2_14  and  C6_2 
REMARK    3  A    between atoms: C5_3  and  C4_13 
REMARK    4  A    between atoms: C1_4  and  C_9 
REMARK    5  A    between atoms: C4_13  and  C1_4 
REMARK    6  A    between atoms: O2_14  and  C7_15 
ROOT
ATOM      1  C6  MOL d          -0.908   0.804   6.070  0.00  0.00     0.175 C 
ENDROOT
BRANCH   1   2
ATOM      2  C5  MOL d           0.209   0.418   5.134  0.00  0.00     0.028 C 
BRANCH   2   3
ATOM      3  C4  MOL d          -0.347   0.344   3.726  0.00  0.00     0.022 C 
BRANCH   3   4
ATOM      4  C1  MOL d           0.732   0.151   2.676  0.00  0.00     0.041 C 
ATOM      5  C2  MOL d           1.557  -1.079   3.022  0.00  0.00     0.026 C 
ATOM      6  C3  MOL d           1.637   1.366   2.569  0.00  0.00     0.026 C 
BRANCH   4   7
ATOM      7  C   MOL d           0.029  -0.037   1.354  0.00  0.00     0.181 C 
ATOM      8  O   MOL d          -1.182   0.079   1.284  0.00  0.00    -0.647 OA
ATOM      9  O1  MOL d           0.699  -0.319   0.240  0.00  0.00    -0.647 OA
ENDBRANCH   4   7
ENDBRANCH   3   4
ENDBRANCH   2   3
ENDBRANCH   1   2
BRANCH   1  10
ATOM     10  O2  MOL d          -0.262   1.346   7.204  0.00  0.00    -0.351 OA
BRANCH  10  11
ATOM     11  C7  MOL d          -0.078   0.672   8.370  0.00  0.00     0.075 A 
ATOM     12  C8  MOL d          -0.217  -0.709   8.521  0.00  0.00     0.044 A 
ATOM     13  C9  MOL d           0.004  -1.267   9.778  0.00  0.00    -0.059 A 
ATOM     14  C10 MOL d           0.351  -0.461  10.848  0.00  0.00     0.007 A 
ATOM     15  C14 MOL d          -0.145  -2.745  10.006  0.00  0.00     0.048 C 
ATOM     16  C11 MOL d           0.493   0.906  10.681  0.00  0.00     0.010 A 
ATOM     17  C12 MOL d           0.267   1.467   9.430  0.00  0.00    -0.029 A 
ATOM     18  C13 MOL d           0.403   2.940   9.149  0.00  0.00     0.051 C 
ENDBRANCH  10  11
ENDBRANCH   1  10
TORSDOF 6
