REMARK  2 active torsions:
REMARK  status: ('A' for Active; 'I' for Inactive)
REMARK    1  A    between atoms: C1_3  and  C2_4 
REMARK    2  A    between atoms: C1_3  and  N1_7 
ROOT
ATOM      1  C3  MOL d          20.805  33.479   6.970  0.00  0.00     0.053 A 
ATOM      2  C4  MOL d          20.080  33.281   8.273  0.00  0.00     0.053 A 
ATOM      3  C1  MOL d          21.313  32.501   8.002  0.00  0.00     0.210 A 
ENDROOT
BRANCH   3   4
ATOM      4  C2  MOL d          22.629  32.806   8.675  0.00  0.00     0.210 C 
ATOM      5  O2  MOL d          22.836  34.001   9.028  0.00  0.00    -0.646 OA
ATOM      6  O1  MOL d          23.342  31.824   8.945  0.00  0.00    -0.646 OA
ENDBRANCH   3   4
BRANCH   3   7
ATOM      7  N1  MOL d          21.181  31.094   7.552  0.00  0.00    -0.060 N 
ATOM      8  H5  MOL d          22.098  30.699   7.410  0.00  0.00     0.275 HD
ATOM      9  H6  MOL d          20.665  31.065   6.687  0.00  0.00     0.275 HD
ATOM     10  H7  MOL d          20.691  30.561   8.254  0.00  0.00     0.275 HD
ENDBRANCH   3   7
TORSDOF 2
