REMARK  3 active torsions:
REMARK  status: ('A' for Active; 'I' for Inactive)
REMARK    1  A    between atoms: C5_7  and  C1_1 
REMARK    2  A    between atoms: N3_8  and  C11_15 
REMARK    3  A    between atoms: C12_18  and  C9_12 
ROOT
ATOM      1  N4  MOL d          29.816   9.515  23.602  0.00  0.00    -0.191 NA
ATOM      2  C12 MOL d          26.986  11.058  19.959  0.00  0.00    -0.024 A 
ATOM      3  C14 MOL d          29.403   9.963  22.623  0.00  0.00     0.099 C 
ATOM      4  C16 MOL d          27.521  10.518  21.154  0.00  0.00     0.034 A 
ATOM      5  C18 MOL d          28.912  10.521  21.401  0.00  0.00     0.045 A 
ATOM      6  C19 MOL d          27.898  11.607  19.017  0.00  0.00     0.012 A 
ATOM      7  C21 MOL d          29.294  11.610  19.259  0.00  0.00     0.002 A 
ATOM      8  C23 MOL d          29.816  11.067  20.458  0.00  0.00     0.023 A 
ENDROOT
BRANCH   2   9
ATOM      9  C9  MOL d          25.499  11.059  19.714  0.00  0.00    -0.018 A 
ATOM     10  C8  MOL d          24.560  10.848  20.749  0.00  0.00     0.030 A 
ATOM     11  C5  MOL d          23.185  10.898  20.311  0.00  0.00     0.015 A 
ATOM     12  S1  MOL d          23.158  11.212  18.628  0.00  0.00    -0.103 SA
ATOM     13  C10 MOL d          24.863  11.279  18.468  0.00  0.00     0.062 A 
BRANCH  11  14
ATOM     14  C1  MOL d          21.955  10.717  21.186  0.00  0.00     0.110 C 
ATOM     15  C2  MOL d          21.495  12.118  21.625  0.00  0.00     0.132 C 
ATOM     16  C4  MOL d          22.249  12.634  22.879  0.00  0.00     0.246 C 
ATOM     17  C7  MOL d          19.977  11.999  21.819  0.00  0.00     0.141 C 
ATOM     18  N1  MOL d          22.691  11.670  23.790  0.00  0.00    -0.156 N 
ATOM     19  O1  MOL d          22.438  13.840  23.023  0.00  0.00    -0.272 OA
ATOM     20  C3  MOL d          22.571  10.297  23.580  0.00  0.00     0.677 C 
ATOM     21  C17 MOL d          23.336  12.152  25.049  0.00  0.00     0.178 C 
ATOM     22  N2  MOL d          22.173   9.835  22.352  0.00  0.00    -0.210 N 
ATOM     23  N5  MOL d          22.859   9.432  24.556  0.00  0.00    -0.234 N 
ATOM     24  H2  MOL d          22.018   8.823  22.236  0.00  0.00     0.179 HD
ATOM     25  H9  MOL d          23.158   9.778  25.479  0.00  0.00     0.174 HD
ATOM     26  H10 MOL d          22.782   8.419  24.386  0.00  0.00     0.174 HD
ATOM     27  N3  MOL d          19.630  10.789  21.067  0.00  0.00    -0.361 N 
ATOM     28  C6  MOL d          20.788  10.164  20.432  0.00  0.00     0.162 C 
BRANCH  27  29
ATOM     29  C11 MOL d          18.321  10.298  21.018  0.00  0.00     0.146 A 
ATOM     30  C13 MOL d          17.722   9.505  19.965  0.00  0.00     0.090 A 
ATOM     31  C15 MOL d          16.381   9.095  20.102  0.00  0.00     0.028 A 
ATOM     32  C24 MOL d          18.405   9.094  18.753  0.00  0.00     0.103 C 
ATOM     33  C22 MOL d          15.644   9.455  21.248  0.00  0.00     0.021 A 
ATOM     34  C20 MOL d          16.280  10.222  22.230  0.00  0.00     0.119 A 
ATOM     35  N6  MOL d          17.567  10.643  22.112  0.00  0.00    -0.242 NA
ATOM     36  N7  MOL d          19.003   8.791  17.802  0.00  0.00    -0.191 NA
ENDBRANCH  27  29
ENDBRANCH  11  14
ENDBRANCH   2   9
TORSDOF 3
