REMARK  9 active torsions:
REMARK  status: ('A' for Active; 'I' for Inactive)
REMARK    1  A    between atoms: PB_1  and  O3A_5 
REMARK    2  A    between atoms: O3A_5  and  PA_6 
REMARK    3  A    between atoms: PA_6  and  O5'_9 
REMARK    4  A    between atoms: O5'_9  and  C5'_10 
REMARK    5  A    between atoms: C5'_10  and  C4'_11 
REMARK    6  A    between atoms: C3'_13  and  O3'_14 
REMARK    7  A    between atoms: C2'_15  and  O2'_16 
REMARK    8  A    between atoms: C1'_17  and  N9_18 
REMARK    9  A    between atoms: C2_25  and  N2_26 
ROOT
ATOM      1  C4' GDP d          22.995  68.011 -16.729  0.00  0.00     0.180 C 
ATOM      2  O4' GDP d          23.653  68.504 -15.517  0.00  0.00    -0.353 OA
ATOM      3  C3' GDP d          24.073  67.181 -17.511  0.00  0.00     0.182 C 
ATOM      4  C2' GDP d          25.096  66.843 -16.423  0.00  0.00     0.198 C 
ATOM      5  C1' GDP d          25.055  68.124 -15.579  0.00  0.00     0.262 C 
ENDROOT
BRANCH   5   6
ATOM      6  N9  GDP d          25.598  67.909 -14.236  0.00  0.00    -0.295 N 
ATOM      7  C8  GDP d          25.131  67.023 -13.292  0.00  0.00     0.214 A 
ATOM      8  N7  GDP d          25.759  67.196 -12.163  0.00  0.00    -0.234 NA
ATOM      9  C5  GDP d          26.588  68.258 -12.278  0.00  0.00     0.171 A 
ATOM     10  C6  GDP d          27.579  68.847 -11.436  0.00  0.00     0.292 C 
ATOM     11  C4  GDP d          26.473  68.744 -13.607  0.00  0.00     0.161 A 
ATOM     12  O6  GDP d          27.718  68.468 -10.287  0.00  0.00    -0.265 OA
ATOM     13  N1  GDP d          28.281  69.931 -11.907  0.00  0.00    -0.154 N 
ATOM     14  C2  GDP d          28.170  70.319 -13.228  0.00  0.00     0.680 C 
ATOM     15  H10 GDP d          28.877  70.443 -11.288  0.00  0.00     0.187 HD
ATOM     16  N3  GDP d          27.313  69.716 -14.047  0.00  0.00    -0.174 N 
ATOM     17  H13 GDP d          27.286  69.993 -15.039  0.00  0.00     0.186 HD
BRANCH  14  18
ATOM     18  N2  GDP d          29.004  71.288 -13.722  0.00  0.00    -0.234 N 
ATOM     19  H11 GDP d          28.926  71.582 -14.706  0.00  0.00     0.174 HD
ATOM     20  H12 GDP d          29.709  71.722 -13.109  0.00  0.00     0.174 HD
ENDBRANCH  14  18
ENDBRANCH   5   6
BRANCH   4  21
ATOM     21  O2' GDP d          26.390  66.630 -16.980  0.00  0.00    -0.388 OA
ATOM     22  H7  GDP d          27.003  66.423 -16.284  0.00  0.00     0.210 HD
ENDBRANCH   4  21
BRANCH   1  23
ATOM     23  C5' GDP d          21.750  67.175 -16.351  0.00  0.00     0.216 C 
BRANCH  23  24
ATOM     24  O5' GDP d          22.163  66.040 -15.568  0.00  0.00    -0.287 OA
BRANCH  24  25
ATOM     25  PA  GDP d          20.856  65.187 -15.154  0.00  0.00     0.418 P 
ATOM     26  O1A GDP d          20.231  64.602 -16.364  0.00  0.00    -0.624 OA
ATOM     27  O2A GDP d          21.319  64.003 -14.173  0.00  0.00    -0.624 OA
BRANCH  25  28
ATOM     28  O3A GDP d          19.824  66.186 -14.368  0.00  0.00    -0.173 OA
BRANCH  28  29
ATOM     29  PB  GDP d          18.370  65.504 -14.116  0.00  0.00     0.431 P 
ATOM     30  O1B GDP d          17.830  66.012 -12.832  0.00  0.00    -0.616 OA
ATOM     31  O2B GDP d          17.378  65.920 -15.305  0.00  0.00    -0.616 OA
ATOM     32  O3B GDP d          18.463  63.902 -14.036  0.00  0.00    -0.616 OA
ENDBRANCH  28  29
ENDBRANCH  25  28
ENDBRANCH  24  25
ENDBRANCH  23  24
ENDBRANCH   1  23
BRANCH   3  33
ATOM     33  O3' GDP d          23.532  65.984 -18.088  0.00  0.00    -0.390 OA
ATOM     34  H5  GDP d          23.180  65.433 -17.399  0.00  0.00     0.210 HD
ENDBRANCH   3  33
TORSDOF 9
