REMARK  17 active torsions:
REMARK  status: ('A' for Active; 'I' for Inactive)
REMARK    1  A    between atoms: C1D_9  and  N1U_1 
REMARK    2  A    between atoms: C2D_10  and  O2D_11 
REMARK    3  A    between atoms: C3D_12  and  O3D_15 
REMARK    4  A    between atoms: C5D_16  and  C4D_13 
REMARK    5  A    between atoms: O5D_17  and  C5D_16 
REMARK    6  A    between atoms: PA_18  and  O5D_17 
REMARK    7  A    between atoms: O3A_21  and  PA_18 
REMARK    8  A    between atoms: PB_22  and  O3A_21 
REMARK    9  A    between atoms: O1_34  and  PB_22 
REMARK   10  A    between atoms: C1_25  and  O1_34 
REMARK   11  A    between atoms: C2_26  and  N2_33 
REMARK   12  A    between atoms: O3_35  and  C3_27 
REMARK   13  A    between atoms: C4_28  and  O4_36 
REMARK   14  A    between atoms: C5_29  and  C6_30 
REMARK   15  A    between atoms: C6_30  and  O6_38 
REMARK       I    between atoms: N2_33  and  C7_31 
REMARK   16  A    between atoms: C2E_43  and  O3_35 
REMARK   17  A    between atoms: C1E_40  and  C2E_43 
ROOT
ATOM      1  PB  EPU d          -3.021  -7.958  -0.670  0.00  0.00     0.420 P 
ATOM      2  O1B EPU d          -1.849  -8.633  -0.188  0.00  0.00    -0.624 OA
ATOM      3  O2B EPU d          -4.235  -8.129   0.083  0.00  0.00    -0.624 OA
ENDROOT
BRANCH   1   4
ATOM      4  O3A EPU d          -3.263  -8.241  -2.206  0.00  0.00    -0.180 OA
BRANCH   4   5
ATOM      5  PA  EPU d          -3.143  -9.589  -2.985  0.00  0.00     0.417 P 
ATOM      6  O1A EPU d          -3.091 -10.689  -2.079  0.00  0.00    -0.624 OA
ATOM      7  O2A EPU d          -2.174  -9.455  -4.038  0.00  0.00    -0.624 OA
BRANCH   5   8
ATOM      8  O5D EPU d          -4.503  -9.674  -3.706  0.00  0.00    -0.287 OA
BRANCH   8   9
ATOM      9  C5D EPU d          -4.681 -10.732  -4.618  0.00  0.00     0.216 C 
BRANCH   9  10
ATOM     10  C4D EPU d          -6.093 -10.907  -5.127  0.00  0.00     0.180 C 
ATOM     11  C3D EPU d          -7.137 -10.239  -4.275  0.00  0.00     0.182 C 
ATOM     12  C2D EPU d          -7.660 -11.293  -3.368  0.00  0.00     0.198 C 
ATOM     13  C1D EPU d          -7.232 -12.582  -4.001  0.00  0.00     0.263 C 
ATOM     14  O4D EPU d          -6.321 -12.284  -5.035  0.00  0.00    -0.353 OA
BRANCH  11  15
ATOM     15  O3D EPU d          -8.240  -9.836  -5.060  0.00  0.00    -0.390 OA
ATOM     16  H9  EPU d          -8.887  -9.417  -4.504  0.00  0.00     0.210 HD
ENDBRANCH  11  15
BRANCH  12  17
ATOM     17  O2D EPU d          -9.065 -11.199  -3.405  0.00  0.00    -0.388 OA
ATOM     18  H6  EPU d          -9.359 -11.223  -4.308  0.00  0.00     0.210 HD
ENDBRANCH  12  17
BRANCH  13  19
ATOM     19  N1U EPU d          -6.641 -13.447  -3.010  0.00  0.00    -0.280 N 
ATOM     20  C2U EPU d          -7.124 -14.725  -2.911  0.00  0.00     0.331 A 
ATOM     21  N3U EPU d          -6.665 -15.598  -2.029  0.00  0.00    -0.275 N 
ATOM     22  O2U EPU d          -8.010 -15.062  -3.670  0.00  0.00    -0.246 OA
ATOM     23  C4U EPU d          -5.698 -15.234  -1.217  0.00  0.00     0.250 A 
ATOM     24  H1  EPU d          -7.048 -16.520  -1.981  0.00  0.00     0.173 HD
ATOM     25  C5U EPU d          -5.190 -13.961  -1.297  0.00  0.00     0.092 A 
ATOM     26  O4U EPU d          -5.274 -16.048  -0.408  0.00  0.00    -0.268 OA
ATOM     27  C6U EPU d          -5.685 -13.060  -2.213  0.00  0.00     0.104 A 
ENDBRANCH  13  19
ENDBRANCH   9  10
ENDBRANCH   8   9
ENDBRANCH   5   8
ENDBRANCH   4   5
ENDBRANCH   1   4
BRANCH   1  28
ATOM     28  O1  EPU d          -2.815  -6.450  -0.670  0.00  0.00    -0.256 OA
BRANCH  28  29
ATOM     29  C1  EPU d          -1.587  -5.957  -1.016  0.00  0.00     0.298 C 
ATOM     30  C2  EPU d          -1.559  -4.521  -0.575  0.00  0.00     0.171 C 
ATOM     31  C3  EPU d          -2.784  -3.832  -1.095  0.00  0.00     0.181 C 
ATOM     32  C4  EPU d          -2.685  -3.891  -2.569  0.00  0.00     0.180 C 
ATOM     33  C5  EPU d          -2.694  -5.337  -2.939  0.00  0.00     0.179 C 
ATOM     34  O5  EPU d          -1.572  -5.978  -2.410  0.00  0.00    -0.348 OA
BRANCH  30  35
ATOM     35  N2  EPU d          -1.774  -4.473   0.834  0.00  0.00    -0.349 N 
ATOM     36  C7  EPU d          -0.735  -4.313   1.607  0.00  0.00     0.214 C 
ATOM     37  C8  EPU d          -0.952  -4.227   3.068  0.00  0.00     0.117 C 
ATOM     38  O7  EPU d           0.352  -4.250   1.146  0.00  0.00    -0.274 OA
ATOM     39  H22 EPU d          -2.693  -4.559   1.218  0.00  0.00     0.163 HD
ENDBRANCH  30  35
BRANCH  31  40
ATOM     40  O3  EPU d          -2.776  -2.483  -0.741  0.00  0.00    -0.365 OA
BRANCH  40  41
ATOM     41  C2E EPU d          -3.595  -2.205   0.380  0.00  0.00     0.218 C 
ATOM     42  C3E EPU d          -5.005  -1.923  -0.083  0.00  0.00     0.051 C 
BRANCH  41  43
ATOM     43  C1E EPU d          -3.059  -1.070   1.207  0.00  0.00     0.202 C 
ATOM     44  O1E EPU d          -2.515  -0.129   0.653  0.00  0.00    -0.646 OA
ATOM     45  O2E EPU d          -3.139  -1.080   2.434  0.00  0.00    -0.646 OA
ENDBRANCH  41  43
ENDBRANCH  40  41
ENDBRANCH  31  40
BRANCH  32  46
ATOM     46  O4  EPU d          -3.852  -3.276  -3.024  0.00  0.00    -0.390 OA
ATOM     47  H23 EPU d          -3.838  -2.357  -2.785  0.00  0.00     0.210 HD
ENDBRANCH  32  46
BRANCH  33  48
ATOM     48  C6  EPU d          -2.597  -5.369  -4.424  0.00  0.00     0.198 C 
BRANCH  48  49
ATOM     49  O6  EPU d          -1.783  -4.261  -4.707  0.00  0.00    -0.398 OA
ATOM     50  H24 EPU d          -2.201  -3.471  -4.384  0.00  0.00     0.209 HD
ENDBRANCH  48  49
ENDBRANCH  33  48
ENDBRANCH  28  29
ENDBRANCH   1  28
TORSDOF 17
