REMARK  6 active torsions:
REMARK  status: ('A' for Active; 'I' for Inactive)
REMARK    1  A    between atoms: O5'_1  and  C5'_2 
REMARK    2  A    between atoms: C5'_2  and  C4'_3 
REMARK    3  A    between atoms: C3'_5  and  O3'_6 
REMARK    4  A    between atoms: C2'_7  and  O2'_8 
REMARK    5  A    between atoms: C1'_9  and  N9_10 
REMARK    6  A    between atoms: C6_14  and  N6_15 
ROOT
ATOM      1  C4' ADN d           1.451   9.238  14.227  0.00  0.00     0.179 C 
ATOM      2  O4' ADN d           0.354   8.690  15.005  0.00  0.00    -0.353 OA
ATOM      3  C3' ADN d           1.038  10.668  13.918  0.00  0.00     0.182 C 
ATOM      4  C2' ADN d          -0.475  10.559  13.789  0.00  0.00     0.198 C 
ATOM      5  C1' ADN d          -0.802   9.498  14.846  0.00  0.00     0.262 C 
ENDROOT
BRANCH   5   6
ATOM      6  N9  ADN d          -1.156  10.044  16.160  0.00  0.00    -0.294 N 
ATOM      7  C8  ADN d          -0.749  11.228  16.724  0.00  0.00     0.214 A 
ATOM      8  N7  ADN d          -1.240  11.441  17.922  0.00  0.00    -0.236 NA
ATOM      9  C5  ADN d          -2.024  10.322  18.165  0.00  0.00     0.149 A 
ATOM     10  C6  ADN d          -2.818   9.941  19.264  0.00  0.00     0.155 A 
ATOM     11  C4  ADN d          -1.982   9.454  17.089  0.00  0.00     0.167 A 
ATOM     12  N1  ADN d          -3.466   8.761  19.189  0.00  0.00    -0.222 NA
ATOM     13  C2  ADN d          -3.328   8.026  18.080  0.00  0.00     0.237 A 
ATOM     14  N3  ADN d          -2.619   8.276  16.983  0.00  0.00    -0.222 NA
BRANCH  10  15
ATOM     15  N6  ADN d          -2.967  10.679  20.366  0.00  0.00    -0.382 N 
ATOM     16  H11 ADN d          -3.563  10.342  21.135  0.00  0.00     0.157 HD
ATOM     17  H12 ADN d          -2.486  11.586  20.448  0.00  0.00     0.157 HD
ENDBRANCH  10  15
ENDBRANCH   5   6
BRANCH   4  18
ATOM     18  O2' ADN d          -0.903  10.162  12.500  0.00  0.00    -0.388 OA
ATOM     19  H8  ADN d          -0.607  10.798  11.859  0.00  0.00     0.210 HD
ENDBRANCH   4  18
BRANCH   1  20
ATOM     20  C5' ADN d           2.731   9.118  15.024  0.00  0.00     0.198 C 
BRANCH  20  21
ATOM     21  O5' ADN d           2.927   7.770  15.444  0.00  0.00    -0.398 OA
ATOM     22  H1  ADN d           2.196   7.499  15.987  0.00  0.00     0.209 HD
ENDBRANCH  20  21
ENDBRANCH   1  20
BRANCH   3  23
ATOM     23  O3' ADN d           1.639  11.129  12.712  0.00  0.00    -0.390 OA
ATOM     24  H6  ADN d           1.368  10.572  11.992  0.00  0.00     0.210 HD
ENDBRANCH   3  23
TORSDOF 6
