REMARK  5 active torsions:
REMARK  status: ('A' for Active; 'I' for Inactive)
REMARK       I    between atoms: CAQ_2  and  N_4 
REMARK    1  A    between atoms: CG_6  and  OD1_7 
REMARK    2  A    between atoms: CA_9  and  C_10 
REMARK       I    between atoms: C_10  and  NAO_12 
REMARK    3  A    between atoms: NAO_12  and  CAK_13 
REMARK    4  A    between atoms: CAK_13  and  CAS_14 
REMARK    5  A    between atoms: CAT_19  and  CAU_20 
ROOT
ATOM      1  C   X6C d          -6.404  34.358   2.064  0.00  0.00     0.241 C 
ATOM      2  O   X6C d          -5.292  33.918   1.738  0.00  0.00    -0.271 OA
ATOM      3  NAO X6C d          -6.600  35.335   2.990  0.00  0.00    -0.355 N 
ATOM      4  H11 X6C d          -7.526  35.691   3.113  0.00  0.00     0.162 HD
ENDROOT
BRANCH   3   5
ATOM      5  CAK X6C d          -5.514  35.901   3.827  0.00  0.00     0.161 C 
BRANCH   5   6
ATOM      6  CAS X6C d          -5.217  35.074   4.958  0.00  0.00    -0.040 A 
ATOM      7  CAF X6C d          -6.112  34.079   5.426  0.00  0.00     0.010 A 
ATOM      8  CAH X6C d          -5.801  33.270   6.531  0.00  0.00     0.015 A 
ATOM      9  CAT X6C d          -4.607  33.468   7.244  0.00  0.00    -0.001 A 
ATOM     10  CAG X6C d          -3.716  34.470   6.789  0.00  0.00     0.015 A 
ATOM     11  CAE X6C d          -4.017  35.265   5.664  0.00  0.00     0.010 A 
BRANCH   9  12
ATOM     12  CAU X6C d          -4.326  32.689   8.312  0.00  0.00     0.104 A 
ATOM     13  OAP X6C d          -4.892  31.450   8.572  0.00  0.00    -0.302 OA
ATOM     14  CAI X6C d          -4.340  31.002   9.744  0.00  0.00     0.258 A 
ATOM     15  NAN X6C d          -3.484  31.932  10.169  0.00  0.00    -0.246 NA
ATOM     16  CAJ X6C d          -3.470  32.955   9.302  0.00  0.00     0.156 A 
ENDBRANCH   9  12
ENDBRANCH   5   6
ENDBRANCH   3   5
BRANCH   1  17
ATOM     17  CA  X6C d          -7.588  33.834   1.512  0.00  0.00     0.181 C 
ATOM     18  N   X6C d          -7.448  33.382   0.062  0.00  0.00    -0.337 N 
ATOM     19  CAQ X6C d          -7.104  34.222  -0.954  0.00  0.00     0.216 C 
ATOM     20  CD2 X6C d          -7.815  31.932   0.000  0.00  0.00     0.158 C 
ATOM     21  CAA X6C d          -6.961  33.619  -2.386  0.00  0.00     0.117 C 
ATOM     22  OAB X6C d          -6.853  35.417  -0.769  0.00  0.00    -0.274 OA
ATOM     23  CG  X6C d          -8.617  31.667   1.255  0.00  0.00     0.138 C 
ATOM     24  CB  X6C d          -7.982  32.561   2.292  0.00  0.00     0.068 C 
BRANCH  23  25
ATOM     25  OD1 X6C d          -9.983  32.059   1.062  0.00  0.00    -0.394 OA
ATOM     26  H7  X6C d         -10.476  31.888   1.856  0.00  0.00     0.210 HD
ENDBRANCH  23  25
ENDBRANCH   1  17
TORSDOF 5
