REMARK  6 active torsions:
REMARK  status: ('A' for Active; 'I' for Inactive)
REMARK    1  A    between atoms: CAJ_14  and  CAI_15 
REMARK       I    between atoms: CAI_15  and  NAV_17 
REMARK    2  A    between atoms: NAV_17  and  CAD_18 
REMARK    3  A    between atoms: CAD_18  and  CAA_19 
REMARK    4  A    between atoms: CAG_23  and  OAX_24 
REMARK    5  A    between atoms: CAF_25  and  OAY_26 
REMARK    6  A    between atoms: CAB_27  and  OBA_28 
ROOT
ATOM      1  CAI TA9 d         -29.249   1.877  25.558  0.00  0.00     0.252 C 
ATOM      2  OAZ TA9 d         -28.723   0.771  25.574  0.00  0.00    -0.268 OA
ATOM      3  NAV TA9 d         -29.104   2.771  26.542  0.00  0.00    -0.355 N 
ATOM      4  H8  TA9 d         -29.449   3.699  26.399  0.00  0.00     0.162 HD
ENDROOT
BRANCH   3   5
ATOM      5  CAD TA9 d         -28.469   2.457  27.807  0.00  0.00     0.158 C 
BRANCH   5   6
ATOM      6  CAA TA9 d         -26.969   2.375  27.644  0.00  0.00     0.235 C 
ATOM      7  NAW TA9 d         -26.451   3.711  27.265  0.00  0.00    -0.060 N 
ATOM      8  CAE TA9 d         -24.978   3.558  26.993  0.00  0.00     0.213 C 
ATOM      9  H12 TA9 d         -26.597   4.364  28.019  0.00  0.00     0.278 HD
ATOM     10  H13 TA9 d         -26.922   4.042  26.438  0.00  0.00     0.278 HD
ATOM     11  CAU TA9 d         -24.414   4.965  26.629  0.00  0.00     0.043 C 
ATOM     12  CAG TA9 d         -24.242   2.939  28.148  0.00  0.00     0.179 C 
ATOM     13  CAF TA9 d         -24.884   1.610  28.599  0.00  0.00     0.179 C 
ATOM     14  CAB TA9 d         -26.331   1.890  28.940  0.00  0.00     0.181 C 
BRANCH  12  15
ATOM     15  OAX TA9 d         -24.253   3.837  29.249  0.00  0.00    -0.391 OA
ATOM     16  H19 TA9 d         -23.788   3.446  29.980  0.00  0.00     0.210 HD
ENDBRANCH  12  15
BRANCH  13  17
ATOM     17  OAY TA9 d         -24.156   1.090  29.729  0.00  0.00    -0.390 OA
ATOM     18  H21 TA9 d         -24.189   1.718  30.441  0.00  0.00     0.210 HD
ENDBRANCH  13  17
BRANCH  14  19
ATOM     19  OBA TA9 d         -26.997   0.684  29.388  0.00  0.00    -0.391 OA
ATOM     20  H23 TA9 d         -26.559   0.350  30.162  0.00  0.00     0.210 HD
ENDBRANCH  14  19
ENDBRANCH   5   6
ENDBRANCH   3   5
BRANCH   1  21
ATOM     21  CAJ TA9 d         -29.888   2.407  24.260  0.00  0.00     0.047 A 
ATOM     22  CAK TA9 d         -30.977   3.288  24.250  0.00  0.00     0.042 A 
ATOM     23  CAQ TA9 d         -31.776   3.858  25.247  0.00  0.00     0.195 A 
ATOM     24  CAL TA9 d         -31.482   3.750  23.026  0.00  0.00    -0.010 A 
ATOM     25  OBB TA9 d         -31.694   3.641  26.459  0.00  0.00    -0.287 OA
ATOM     26  CAN TA9 d         -32.731   4.683  24.672  0.00  0.00     0.026 A 
ATOM     27  CAS TA9 d         -33.734   5.485  25.214  0.00  0.00     0.016 A 
ATOM     28  CAM TA9 d         -32.547   4.616  23.282  0.00  0.00    -0.011 A 
ATOM     29  CAH TA9 d         -34.536   6.240  24.343  0.00  0.00     0.001 A 
ATOM     30  CAC TA9 d         -34.347   6.187  22.955  0.00  0.00     0.001 A 
ATOM     31  CAR TA9 d         -33.345   5.383  22.426  0.00  0.00     0.013 A 
ATOM     32  CAO TA9 d         -30.905   3.332  21.829  0.00  0.00     0.013 A 
ATOM     33  CAT TA9 d         -29.816   2.464  21.843  0.00  0.00     0.002 A 
ATOM     34  CAP TA9 d         -29.308   1.998  23.057  0.00  0.00     0.018 A 
ENDBRANCH   1  21
TORSDOF 6
