REMARK  8 active torsions:
REMARK  status: ('A' for Active; 'I' for Inactive)
REMARK    1  A    between atoms: C5_7  and  C35_9 
REMARK    2  A    between atoms: C35_9  and  N3_10 
REMARK    3  A    between atoms: C5_13  and  C5A_16 
REMARK    4  A    between atoms: C5A_16  and  C5B_17 
REMARK    5  A    between atoms: C5B_17  and  O5G_18 
REMARK    6  A    between atoms: O5G_18  and  P1_19 
REMARK    7  A    between atoms: P1_19  and  O11_20 
REMARK    8  A    between atoms: O11_20  and  P2_23 
ROOT
ATOM      1  N3  TDP d          75.603   2.007   6.964  0.00  0.00    -0.349 N 
ATOM      2  C2  TDP d          75.746   3.291   6.305  0.00  0.00     0.141 A 
ATOM      3  S1  TDP d          74.001   3.632   5.892  0.00  0.00    -0.087 SA
ATOM      4  C5  TDP d          73.320   2.150   6.506  0.00  0.00     0.008 A 
ATOM      5  C4  TDP d          74.385   1.403   7.004  0.00  0.00     0.021 A 
ATOM      6  C4A TDP d          74.257  -0.026   7.616  0.00  0.00     0.069 C 
ENDROOT
BRANCH   1   7
ATOM      7  C35 TDP d          76.882   1.399   7.413  0.00  0.00     0.172 C 
BRANCH   7   8
ATOM      8  C5  TDP d          77.028   1.586   8.962  0.00  0.00     0.023 A 
ATOM      9  C4  TDP d          77.288   2.851   9.562  0.00  0.00     0.132 A 
ATOM     10  N3  TDP d          77.366   2.911  10.925  0.00  0.00    -0.216 NA
ATOM     11  N4  TDP d          77.428   4.019   8.893  0.00  0.00    -0.383 N 
ATOM     12  C2  TDP d          77.297   1.818  11.737  0.00  0.00     0.124 A 
ATOM     13  N1  TDP d          77.048   0.641  11.188  0.00  0.00    -0.245 NA
ATOM     14  C2A TDP d          77.439   1.995  13.277  0.00  0.00     0.093 C 
ATOM     15  C6  TDP d          76.883   0.504   9.849  0.00  0.00     0.131 A 
ATOM     16  H4  TDP d          77.378   4.032   7.864  0.00  0.00     0.157 HD
ATOM     17  H5  TDP d          77.585   4.894   9.412  0.00  0.00     0.157 HD
ENDBRANCH   7   8
ENDBRANCH   1   7
BRANCH   4  18
ATOM     18  C5A TDP d          71.823   1.903   6.400  0.00  0.00     0.075 C 
BRANCH  18  19
ATOM     19  C5B TDP d          71.044   2.936   7.228  0.00  0.00     0.186 C 
BRANCH  19  20
ATOM     20  O5G TDP d          69.633   2.748   7.118  0.00  0.00    -0.289 OA
BRANCH  20  21
ATOM     21  P1  TDP d          68.632   3.743   7.691  0.00  0.00     0.418 P 
ATOM     22  O12 TDP d          69.055   4.169   9.043  0.00  0.00    -0.624 OA
ATOM     23  O13 TDP d          67.285   3.110   7.531  0.00  0.00    -0.624 OA
BRANCH  21  24
ATOM     24  O11 TDP d          68.756   5.037   6.747  0.00  0.00    -0.173 OA
BRANCH  24  25
ATOM     25  P2  TDP d          68.496   5.153   5.122  0.00  0.00     0.431 P 
ATOM     26  O21 TDP d          69.834   4.826   4.444  0.00  0.00    -0.616 OA
ATOM     27  O22 TDP d          67.404   4.163   4.750  0.00  0.00    -0.616 OA
ATOM     28  O23 TDP d          68.085   6.558   4.850  0.00  0.00    -0.616 OA
ENDBRANCH  24  25
ENDBRANCH  21  24
ENDBRANCH  20  21
ENDBRANCH  19  20
ENDBRANCH  18  19
ENDBRANCH   4  18
TORSDOF 8
