4lw1_ligand

Created by X-TOOL on Fri Sep 26 17:34:59 2014
 21 22  0  0  0  0  0  0  0  0999 V2000
  -15.5000  -12.8220   20.5450  O 0  0  0  1  0  2
  -16.7290  -12.8670   19.8610  C 0  0  0  1  0  3
  -15.4770  -11.6690   21.3550  C 0  0  0  1  0  3
  -17.4370  -11.7730   20.2330  C 0  0  0  2  0  3
  -16.6340  -11.0100   21.1760  C 0  0  0  2  0  3
  -17.1240  -13.9500   18.9130  C 0  5  0  1  0  3
  -14.3030  -11.3090   22.2040  C 0  0  0  1  0  3
  -11.9590  -11.6960   22.6390  C 0  0  0  1  0  3
  -13.1130  -11.9620   21.9250  C 0  0  0  2  0  3
  -11.9670  -10.7610   23.6650  C 0  0  0  1  0  3
  -16.3600  -14.9470   18.7560  O 0  0  0  1  0  1
  -14.3320  -10.3620   23.2280  C 0  0  0  2  0  3
  -13.1830  -10.0740   23.9640  C 0  0  0  2  0  3
  -10.5180  -12.5560   22.2350 Cl 0  0  0  1  0  1
  -18.2050  -13.8710   18.2670  O 0  0  0  1  0  1
  -10.8500  -10.5180   24.3450  F 0  0  0  1  0  1
  -18.4352  -11.5103   19.8858  H 0  0  0  1  0  1
  -16.9195  -10.0728   21.6515  H 0  0  0  1  0  1
  -13.0861  -12.6977   21.1293  H 0  0  0  1  0  1
  -15.2574   -9.8446   23.4540  H 0  0  0  1  0  1
  -13.2125   -9.3349   24.7564  H 0  0  0  1  0  1
  1  2  1  0  0  1
  1  3  1  0  0  1
  2  4  2  0  0  1
  2  6  1  0  0  2
  3  5  2  0  0  1
  3  7  1  0  0  2
  4  5  1  0  0  1
  6 11  2  0  0  2
  6 15  2  0  0  2
  7  9  4  0  0  1
  7 12  4  0  0  1
  9  8  4  0  0  1
  8 10  4  0  0  1
  8 14  1  0  0  2
 10 13  4  0  0  1
 10 16  1  0  0  2
 12 13  4  0  0  1
  4 17  1  0  0  2
  5 18  1  0  0  2
  9 19  1  0  0  2
 12 20  1  0  0  2
 13 21  1  0  0  2
M  END
> <MOLECULAR_FORMULA>
C11H5O3FCl

> <MOLECULAR_WEIGHT>
239.6

> <NUM_HB_ATOMS>
2  

> <NUM_ROTOR>
0  

> <XLOGP2>
2.81 

$$$$
