REMARK  8 active torsions:
REMARK  status: ('A' for Active; 'I' for Inactive)
REMARK    1  A    between atoms: O2_1  and  C2_3 
REMARK    2  A    between atoms: C2_3  and  C1_2 
REMARK    3  A    between atoms: C1_2  and  C5_6 
REMARK    4  A    between atoms: C5_6  and  O5'_7 
REMARK    5  A    between atoms: C5_6  and  C6_8 
REMARK       I    between atoms: C6_8  and  N_10 
REMARK    6  A    between atoms: N_10  and  C8_11 
REMARK    7  A    between atoms: C8_11  and  C9_12 
REMARK    8  A    between atoms: C9_12  and  C_13 
ROOT
ATOM      1  C5  PAU d           3.187  11.905  16.020  0.00  0.00     0.219 C 
ENDROOT
BRANCH   1   2
ATOM      2  C1  PAU d           4.547  12.523  16.299  0.00  0.00     0.008 C 
ATOM      3  C3  PAU d           5.389  11.625  17.154  0.00  0.00     0.020 C 
ATOM      4  C4  PAU d           5.227  12.797  14.976  0.00  0.00     0.020 C 
BRANCH   2   5
ATOM      5  C2  PAU d           4.343  13.831  17.023  0.00  0.00     0.175 C 
BRANCH   5   6
ATOM      6  O2  PAU d           3.749  13.670  18.266  0.00  0.00    -0.400 OA
ATOM      7  H1  PAU d           3.644  14.520  18.678  0.00  0.00     0.209 HD
ENDBRANCH   5   6
ENDBRANCH   2   5
ENDBRANCH   1   2
BRANCH   1   8
ATOM      8  O5' PAU d           2.412  12.794  15.256  0.00  0.00    -0.385 OA
ATOM      9  H11 PAU d           1.563  12.404  15.084  0.00  0.00     0.210 HD
ENDBRANCH   1   8
BRANCH   1  10
ATOM     10  C6  PAU d           3.150  10.557  15.336  0.00  0.00     0.247 C 
ATOM     11  O6' PAU d           3.385   9.521  16.030  0.00  0.00    -0.271 OA
ATOM     12  N   PAU d           2.895  10.482  14.118  0.00  0.00    -0.358 N 
ATOM     13  H12 PAU d           2.778  11.345  13.626  0.00  0.00     0.162 HD
BRANCH  12  14
ATOM     14  C8  PAU d           2.753   9.273  13.353  0.00  0.00     0.133 C 
BRANCH  14  15
ATOM     15  C9  PAU d           3.488   9.407  12.021  0.00  0.00     0.133 C 
BRANCH  15  16
ATOM     16  C   PAU d           3.025  10.508  11.105  0.00  0.00     0.174 C 
ATOM     17  OXT PAU d           2.381  11.436  11.510  0.00  0.00    -0.648 OA
ATOM     18  O   PAU d           3.382  10.415   9.940  0.00  0.00    -0.648 OA
ENDBRANCH  15  16
ENDBRANCH  14  15
ENDBRANCH  12  14
ENDBRANCH   1  10
TORSDOF 8
