REMARK  2 active torsions:
REMARK  status: ('A' for Active; 'I' for Inactive)
REMARK    1  A    between atoms: C3_8  and  C12_9 
REMARK    2  A    between atoms: C9_14  and  C_15 
ROOT
ATOM      1  C12 FBC d          21.435  84.889  55.725  0.00  0.00    -0.026 A 
ATOM      2  C7  FBC d          21.426  86.119  55.072  0.00  0.00     0.013 A 
ATOM      3  C8  FBC d          21.425  86.208  53.683  0.00  0.00     0.019 A 
ATOM      4  C11 FBC d          21.424  83.729  54.918  0.00  0.00     0.013 A 
ATOM      5  C10 FBC d          21.397  83.813  53.514  0.00  0.00     0.019 A 
ATOM      6  C9  FBC d          21.407  85.067  52.896  0.00  0.00     0.040 A 
ENDROOT
BRANCH   1   7
ATOM      7  C3  FBC d          21.445  84.860  57.135  0.00  0.00    -0.020 A 
ATOM      8  C4  FBC d          20.790  85.859  57.866  0.00  0.00     0.054 A 
ATOM      9  C5  FBC d          20.776  85.867  59.266  0.00  0.00     0.120 A 
ATOM     10  C6  FBC d          21.422  84.860  59.956  0.00  0.00     0.084 A 
ATOM     11  FL2 FBC d          20.134  86.845  59.949  0.00  0.00    -0.206 F 
ATOM     12  C1  FBC d          22.095  83.858  59.263  0.00  0.00     0.120 A 
ATOM     13  FL1 FBC d          22.734  82.884  59.947  0.00  0.00    -0.206 F 
ATOM     14  C2  FBC d          22.099  83.858  57.858  0.00  0.00     0.054 A 
ENDBRANCH   1   7
BRANCH   6  15
ATOM     15  C   FBC d          21.423  85.223  51.394  0.00  0.00     0.209 C 
ATOM     16  OC3 FBC d          20.442  85.763  50.846  0.00  0.00    -0.644 OA
ATOM     17  OC1 FBC d          22.372  84.799  50.687  0.00  0.00    -0.644 OA
ENDBRANCH   6  15
TORSDOF 2
