2qfu_ligand

Created by X-TOOL on Fri Sep 26 17:34:35 2014
 16 15  0  0  0  0  0  0  0  0999 V2000
   60.2450    8.6740   26.9030  P 0  0  0  1  0  4
   60.3050   10.1080   27.2450  O 0  0  0  1  0  1
   59.1710    8.3000   25.9520  O 0  0  0  1  0  1
   61.6010    8.1780   26.4350  O 0  0  0  1  0  1
   60.9860    9.8310   31.6480  O 0  0  0  1  0  1
   60.2890    8.2830   33.0650  O 0  0  0  1  0  1
   59.8100    7.7950   28.3200  C 0  0  0  3  0  4
   59.9430    7.8690   30.8180  C 0  0  0  3  0  4
   60.4420    8.7150   31.9290  C 0  5  0  1  0  3
   60.2340    8.4810   29.5200  N 0  3  0  3  0  4
   60.2874    6.8046   28.2869  H 0  0  0  1  0  1
   58.7169    7.6746   28.3445  H 0  0  0  1  0  1
   58.8549    7.7450   30.9212  H 0  0  0  1  0  1
   60.4308    6.8844   30.8687  H 0  0  0  1  0  1
   59.7949    9.3883   29.5144  H 0  0  0  1  0  1
   61.2342    8.5914   29.4613  H 0  0  0  1  0  1
  1  2  2  0  0  2
  1  3  2  0  0  2
  1  4  2  0  0  2
  7  1  1  0  0  2
  9  5  2  0  0  2
  9  6  2  0  0  2
 10  7  1  0  0  2
  8  9  1  0  0  2
  8 10  1  0  0  2
  7 11  1  0  0  2
  7 12  1  0  0  2
  8 13  1  0  0  2
  8 14  1  0  0  2
 10 15  1  0  0  2
 10 16  1  0  0  2
M  END
> <MOLECULAR_FORMULA>
C3H6NO5P

> <MOLECULAR_WEIGHT>
167.0

> <NUM_HB_ATOMS>
6  

> <NUM_ROTOR>
2  

> <XLOGP2>
-3.86

$$$$
