REMARK  10 active torsions:
REMARK  status: ('A' for Active; 'I' for Inactive)
REMARK    1  A    between atoms: C10_9  and  O6_51 
REMARK    2  A    between atoms: C13_12  and  O7_52 
REMARK    3  A    between atoms: C15_14  and  O8_53 
REMARK    4  A    between atoms: C21_20  and  C38_37 
REMARK    5  A    between atoms: C24_23  and  O10_55 
REMARK    6  A    between atoms: C26_25  and  C27_26 
REMARK    7  A    between atoms: C28_27  and  C29_28 
REMARK    8  A    between atoms: C31_30  and  O11_56 
REMARK    9  A    between atoms: C32_31  and  O12_57 
REMARK   10  A    between atoms: C38_37  and  C39_38 
ROOT
ATOM      1  C1  FK5 d          19.964  28.622  21.793  0.00  0.00     0.282 C 
ATOM      2  C2  FK5 d          18.591  29.242  21.936  0.00  0.00     0.187 C 
ATOM      3  C3  FK5 d          17.938  29.352  20.560  0.00  0.00     0.035 C 
ATOM      4  C4  FK5 d          18.516  30.510  19.760  0.00  0.00     0.004 C 
ATOM      5  C5  FK5 d          18.261  31.813  20.491  0.00  0.00     0.020 C 
ATOM      6  C6  FK5 d          18.979  31.722  21.823  0.00  0.00     0.127 C 
ATOM      7  C8  FK5 d          17.895  30.641  23.795  0.00  0.00     0.296 C 
ATOM      8  C9  FK5 d          17.727  31.953  24.508  0.00  0.00     0.278 C 
ATOM      9  C10 FK5 d          18.806  32.419  25.509  0.00  0.00     0.238 C 
ATOM     10  C11 FK5 d          19.432  31.287  26.330  0.00  0.00     0.055 C 
ATOM     11  C12 FK5 d          20.773  31.749  26.905  0.00  0.00     0.044 C 
ATOM     12  C13 FK5 d          21.707  32.472  25.896  0.00  0.00     0.153 C 
ATOM     13  C14 FK5 d          20.879  33.641  25.251  0.00  0.00     0.183 C 
ATOM     14  C15 FK5 d          21.566  34.517  24.194  0.00  0.00     0.152 C 
ATOM     15  C16 FK5 d          22.406  33.682  23.214  0.00  0.00     0.039 C 
ATOM     16  C17 FK5 d          22.926  34.397  21.940  0.00  0.00    -0.012 C 
ATOM     17  C18 FK5 d          24.321  34.971  22.243  0.00  0.00     0.037 C 
ATOM     18  C19 FK5 d          25.408  33.947  22.060  0.00  0.00    -0.086 C 
ATOM     19  C20 FK5 d          25.899  33.336  23.130  0.00  0.00    -0.008 C 
ATOM     20  C21 FK5 d          26.951  32.237  23.120  0.00  0.00     0.100 C 
ATOM     21  C22 FK5 d          26.218  30.910  23.254  0.00  0.00     0.140 C 
ATOM     22  C23 FK5 d          25.840  30.225  21.947  0.00  0.00     0.111 C 
ATOM     23  C24 FK5 d          24.769  29.174  22.098  0.00  0.00     0.131 C 
ATOM     24  C25 FK5 d          23.324  29.818  22.186  0.00  0.00     0.044 C 
ATOM     25  C26 FK5 d          22.261  28.687  22.383  0.00  0.00     0.166 C 
ATOM     26  C35 FK5 d          18.523  30.823  27.459  0.00  0.00     0.016 C 
ATOM     27  C36 FK5 d          21.996  35.541  21.502  0.00  0.00     0.010 C 
ATOM     28  C37 FK5 d          25.817  33.733  20.588  0.00  0.00     0.043 C 
ATOM     29  C41 FK5 d          22.972  30.605  20.888  0.00  0.00     0.015 C 
ATOM     30  N7  FK5 d          18.477  30.555  22.581  0.00  0.00    -0.331 N 
ATOM     31  O1  FK5 d          20.924  29.273  22.460  0.00  0.00    -0.309 OA
ATOM     32  O2  FK5 d          20.122  27.647  21.071  0.00  0.00    -0.263 OA
ATOM     33  O3  FK5 d          17.458  29.628  24.376  0.00  0.00    -0.264 OA
ATOM     34  O4  FK5 d          16.719  32.625  24.281  0.00  0.00    -0.281 OA
ATOM     35  O5  FK5 d          19.773  33.000  24.604  0.00  0.00    -0.338 OA
ATOM     36  O9  FK5 d          25.931  30.441  24.364  0.00  0.00    -0.297 OA
ENDROOT
BRANCH  25  37
ATOM     37  C27 FK5 d          22.570  27.848  23.620  0.00  0.00    -0.058 C 
ATOM     38  C28 FK5 d          22.881  26.576  23.404  0.00  0.00    -0.017 C 
ATOM     39  C42 FK5 d          22.499  28.517  25.001  0.00  0.00     0.046 C 
BRANCH  38  40
ATOM     40  C29 FK5 d          23.321  25.611  24.474  0.00  0.00     0.011 C 
ATOM     41  C30 FK5 d          22.438  24.356  24.477  0.00  0.00     0.043 C 
ATOM     42  C31 FK5 d          22.975  23.133  25.206  0.00  0.00     0.150 C 
ATOM     43  C32 FK5 d          24.410  22.910  24.788  0.00  0.00     0.147 C 
ATOM     44  C33 FK5 d          25.235  24.158  25.032  0.00  0.00     0.035 C 
ATOM     45  C34 FK5 d          24.735  25.229  24.086  0.00  0.00     0.011 C 
BRANCH  42  46
ATOM     46  O11 FK5 d          22.231  21.923  24.979  0.00  0.00    -0.388 OA
ATOM     47  C45 FK5 d          21.177  21.679  25.923  0.00  0.00     0.202 C 
ENDBRANCH  42  46
BRANCH  43  48
ATOM     48  O12 FK5 d          24.898  21.836  25.570  0.00  0.00    -0.393 OA
ATOM     49  H69 FK5 d          24.372  21.062  25.407  0.00  0.00     0.210 HD
ENDBRANCH  43  48
ENDBRANCH  38  40
ENDBRANCH  25  37
BRANCH  23  50
ATOM     50  O10 FK5 d          24.845  28.287  20.973  0.00  0.00    -0.395 OA
ATOM     51  H68 FK5 d          24.176  27.618  21.053  0.00  0.00     0.210 HD
ENDBRANCH  23  50
BRANCH  20  52
ATOM     52  C38 FK5 d          27.951  32.440  24.303  0.00  0.00    -0.015 C 
BRANCH  52  53
ATOM     53  C39 FK5 d          29.006  31.351  24.563  0.00  0.00    -0.034 C 
ATOM     54  C40 FK5 d          29.752  30.769  23.642  0.00  0.00     0.036 C 
ENDBRANCH  52  53
ENDBRANCH  20  52
BRANCH   9  55
ATOM     55  O6  FK5 d          18.330  33.425  26.371  0.00  0.00    -0.359 OA
ATOM     56  H67 FK5 d          17.920  34.112  25.858  0.00  0.00     0.213 HD
ENDBRANCH   9  55
BRANCH  12  57
ATOM     57  O7  FK5 d          22.913  32.990  26.524  0.00  0.00    -0.388 OA
ATOM     58  C43 FK5 d          24.048  32.094  26.508  0.00  0.00     0.202 C 
ENDBRANCH  12  57
BRANCH  14  59
ATOM     59  O8  FK5 d          22.375  35.486  24.880  0.00  0.00    -0.388 OA
ATOM     60  C44 FK5 d          21.649  36.654  25.316  0.00  0.00     0.202 C 
ENDBRANCH  14  59
TORSDOF 10
