REMARK  19 active torsions:
REMARK  status: ('A' for Active; 'I' for Inactive)
REMARK    1  A    between atoms: CA_2  and  N_1 
REMARK    2  A    between atoms: CA_2  and  CB_5 
REMARK    3  A    between atoms: C_3  and  CA_2 
REMARK       I    between atoms: N_10  and  C_3 
REMARK    4  A    between atoms: CB_5  and  CG_6 
REMARK    5  A    between atoms: CG_6  and  CD_7 
REMARK    6  A    between atoms: CD_7  and  CE_8 
REMARK    7  A    between atoms: CE_8  and  NZ_9 
REMARK    8  A    between atoms: CA_11  and  N_10 
REMARK    9  A    between atoms: CA_11  and  CB_14 
REMARK   10  A    between atoms: C_12  and  CA_11 
REMARK       I    between atoms: C_12  and  N_19 
REMARK   11  A    between atoms: CB_14  and  CG_15 
REMARK   12  A    between atoms: CG_15  and  CD_16 
REMARK   13  A    between atoms: N_19  and  CA_20 
REMARK   14  A    between atoms: CA_20  and  CB_23 
REMARK   15  A    between atoms: CA_20  and  C_21 
REMARK   16  A    between atoms: CB_23  and  CG_24 
REMARK   17  A    between atoms: CG_24  and  CD_25 
REMARK   18  A    between atoms: CD_25  and  CE_26 
REMARK   19  A    between atoms: CE_26  and  NZ_27 
ROOT
ATOM      1  CA  MOL d           3.902  20.303  16.132  0.00  0.00     0.177 C 
ENDROOT
BRANCH   1   2
ATOM      2  N   MOL d           5.025  19.716  15.411  0.00  0.00    -0.346 N 
ATOM      3  C   MOL d           5.230  18.407  15.326  0.00  0.00     0.248 C 
ATOM      4  O   MOL d           4.471  17.592  15.865  0.00  0.00    -0.271 OA
ATOM      5  H16 MOL d           5.672  20.329  14.958  0.00  0.00     0.163 HD
BRANCH   3   6
ATOM      6  CA  MOL d           6.457  17.914  14.577  0.00  0.00     0.274 C 
BRANCH   6   7
ATOM      7  N   MOL d           6.971  16.631  15.161  0.00  0.00    -0.067 N 
ATOM      8  H1  MOL d           7.783  16.329  14.646  0.00  0.00     0.275 HD
ATOM      9  H2  MOL d           6.254  15.925  15.103  0.00  0.00     0.275 HD
ATOM     10  H3  MOL d           7.221  16.778  16.126  0.00  0.00     0.275 HD
ENDBRANCH   6   7
BRANCH   6  11
ATOM     11  CB  MOL d           6.205  17.738  13.090  0.00  0.00     0.042 C 
BRANCH  11  12
ATOM     12  CG  MOL d           5.326  16.573  12.692  0.00  0.00     0.004 C 
BRANCH  12  13
ATOM     13  CD  MOL d           5.188  16.473  11.179  0.00  0.00     0.027 C 
BRANCH  13  14
ATOM     14  CE  MOL d           6.437  15.909  10.528  0.00  0.00     0.229 C 
BRANCH  14  15
ATOM     15  NZ  MOL d           6.694  14.508  10.990  0.00  0.00    -0.079 N 
ATOM     16  H13 MOL d           7.527  14.155  10.545  0.00  0.00     0.274 HD
ATOM     17  H14 MOL d           5.909  13.924  10.745  0.00  0.00     0.274 HD
ATOM     18  H15 MOL d           6.819  14.502  11.990  0.00  0.00     0.274 HD
ENDBRANCH  14  15
ENDBRANCH  13  14
ENDBRANCH  12  13
ENDBRANCH  11  12
ENDBRANCH   6  11
ENDBRANCH   3   6
ENDBRANCH   1   2
BRANCH   1  19
ATOM     19  CB  MOL d           4.180  21.786  16.414  0.00  0.00     0.045 C 
BRANCH  19  20
ATOM     20  CG  MOL d           5.487  22.053  17.132  0.00  0.00     0.116 C 
BRANCH  20  21
ATOM     21  CD  MOL d           5.507  21.713  18.599  0.00  0.00     0.172 C 
ATOM     22  OE2 MOL d           6.572  21.881  19.241  0.00  0.00    -0.648 OA
ATOM     23  OE1 MOL d           4.480  21.277  19.165  0.00  0.00    -0.648 OA
ENDBRANCH  20  21
ENDBRANCH  19  20
ENDBRANCH   1  19
BRANCH   1  24
ATOM     24  C   MOL d           2.582  20.157  15.383  0.00  0.00     0.241 C 
ATOM     25  O   MOL d           2.526  20.375  14.183  0.00  0.00    -0.271 OA
ATOM     26  N   MOL d           1.516  19.793  16.112  0.00  0.00    -0.345 N 
ATOM     27  H22 MOL d           1.640  19.629  17.091  0.00  0.00     0.163 HD
BRANCH  26  28
ATOM     28  CA  MOL d           0.192  19.627  15.544  0.00  0.00     0.185 C 
BRANCH  28  29
ATOM     29  CB  MOL d          -0.344  18.194  15.497  0.00  0.00     0.036 C 
BRANCH  29  30
ATOM     30  CG  MOL d          -1.183  18.036  14.205  0.00  0.00     0.004 C 
BRANCH  30  31
ATOM     31  CD  MOL d          -2.166  16.910  14.277  0.00  0.00     0.027 C 
BRANCH  31  32
ATOM     32  CE  MOL d          -3.342  17.156  13.335  0.00  0.00     0.229 C 
BRANCH  32  33
ATOM     33  NZ  MOL d          -2.968  16.936  11.910  0.00  0.00    -0.079 N 
ATOM     34  H32 MOL d          -3.769  17.108  11.322  0.00  0.00     0.274 HD
ATOM     35  H33 MOL d          -2.659  15.985  11.787  0.00  0.00     0.274 HD
ATOM     36  H34 MOL d          -2.224  17.567  11.657  0.00  0.00     0.274 HD
ENDBRANCH  32  33
ENDBRANCH  31  32
ENDBRANCH  30  31
ENDBRANCH  29  30
ENDBRANCH  28  29
BRANCH  28  37
ATOM     37  C   MOL d          -0.835  20.530  16.231  0.00  0.00     0.196 C 
ATOM     38  O   MOL d          -1.826  20.875  15.545  0.00  0.00    -0.646 OA
ATOM     39  OXT MOL d          -0.633  20.892  17.401  0.00  0.00    -0.646 OA
ENDBRANCH  28  37
ENDBRANCH  26  28
ENDBRANCH   1  24
TORSDOF 19
