REMARK  17 active torsions:
REMARK  status: ('A' for Active; 'I' for Inactive)
REMARK    1  A    between atoms: C_1  and  OA_3 
REMARK       I    between atoms: N_11  and  C_1 
REMARK    2  A    between atoms: OA_3  and  CB_4 
REMARK    3  A    between atoms: CB_4  and  CG_5 
REMARK    4  A    between atoms: CA_12  and  N_11 
REMARK    5  A    between atoms: C_13  and  CA_12 
REMARK       I    between atoms: N_16  and  C_13 
REMARK    6  A    between atoms: CA_17  and  N_16 
REMARK    7  A    between atoms: C_18  and  CA_17 
REMARK       I    between atoms: N_26  and  C_18 
REMARK    8  A    between atoms: CA_21  and  CB_22 
REMARK    9  A    between atoms: CA_21  and  N_26 
REMARK   10  A    between atoms: P_27  and  CA_21 
REMARK   11  A    between atoms: CB_22  and  CG_23 
REMARK   12  A    between atoms: OP_40  and  P_27 
REMARK   13  A    between atoms: CA_30  and  CB_31 
REMARK   14  A    between atoms: CA_30  and  C_38 
REMARK   15  A    between atoms: OP_40  and  CA_30 
REMARK   16  A    between atoms: CB_31  and  CG_32 
REMARK   17  A    between atoms: C_38  and  OS_41 
ROOT
ATOM      1  C   MOL d          21.248   8.850  22.054  0.00  0.00     0.240 C 
ATOM      2  O   MOL d          21.810   8.471  23.059  0.00  0.00    -0.271 OA
ATOM      3  N   MOL d          21.889   9.568  21.082  0.00  0.00    -0.343 N 
ATOM      4  H28 MOL d          21.355   9.850  20.285  0.00  0.00     0.163 HD
ENDROOT
BRANCH   3   5
ATOM      5  CA  MOL d          23.271   9.945  21.125  0.00  0.00     0.205 C 
BRANCH   5   6
ATOM      6  CB  MOL d          24.034   9.373  19.866  0.00  0.00     0.042 C 
BRANCH   6   7
ATOM      7  CG  MOL d          23.768   7.877  19.529  0.00  0.00    -0.020 C 
ATOM      8  CD1 MOL d          24.499   7.605  18.216  0.00  0.00     0.009 C 
ATOM      9  CD2 MOL d          24.255   6.951  20.675  0.00  0.00     0.009 C 
ENDBRANCH   6   7
ENDBRANCH   5   6
BRANCH   5  10
ATOM     10  P   MOL d          23.455  11.772  21.239  0.00  0.00     0.273 P 
ATOM     11  O   MOL d          22.528  12.322  20.307  0.00  0.00    -0.645 OA
ATOM     12  OH  MOL d          24.835  12.087  21.250  0.00  0.00    -0.645 OA
BRANCH  10  13
ATOM     13  OP  MOL d          22.955  11.942  22.718  0.00  0.00    -0.295 OA
BRANCH  13  14
ATOM     14  CA  MOL d          23.511  13.042  23.514  0.00  0.00     0.236 C 
BRANCH  14  15
ATOM     15  CB  MOL d          22.344  13.909  24.038  0.00  0.00     0.081 C 
BRANCH  15  16
ATOM     16  CG  MOL d          21.335  13.152  24.864  0.00  0.00    -0.055 A 
ATOM     17  CD1 MOL d          21.404  13.365  26.264  0.00  0.00     0.007 A 
ATOM     18  CE1 MOL d          20.545  12.734  27.139  0.00  0.00     0.001 A 
ATOM     19  CZ  MOL d          19.604  11.874  26.598  0.00  0.00     0.000 A 
ATOM     20  CE2 MOL d          19.511  11.681  25.222  0.00  0.00     0.001 A 
ATOM     21  CD2 MOL d          20.383  12.298  24.360  0.00  0.00     0.007 A 
ENDBRANCH  15  16
ENDBRANCH  14  15
BRANCH  14  22
ATOM     22  C   MOL d          24.232  12.497  24.739  0.00  0.00     0.288 C 
ATOM     23  O   MOL d          24.407  11.320  24.920  0.00  0.00    -0.262 OA
BRANCH  22  24
ATOM     24  OS  MOL d          24.739  13.313  25.741  0.00  0.00    -0.324 OA
ATOM     25  CS  MOL d          25.714  12.999  26.630  0.00  0.00     0.213 C 
ENDBRANCH  22  24
ENDBRANCH  14  22
ENDBRANCH  13  14
ENDBRANCH  10  13
ENDBRANCH   5  10
ENDBRANCH   3   5
BRANCH   1  26
ATOM     26  CA  MOL d          19.787   8.486  21.820  0.00  0.00     0.172 C 
ATOM     27  CB  MOL d          18.912   8.385  23.090  0.00  0.00     0.042 C 
BRANCH  26  28
ATOM     28  N   MOL d          19.818   7.245  21.046  0.00  0.00    -0.346 N 
ATOM     29  C   MOL d          19.030   7.103  20.012  0.00  0.00     0.240 C 
ATOM     30  O   MOL d          18.161   7.950  19.602  0.00  0.00    -0.271 OA
ATOM     31  H13 MOL d          20.440   6.507  21.307  0.00  0.00     0.163 HD
BRANCH  29  32
ATOM     32  CA  MOL d          19.205   5.754  19.248  0.00  0.00     0.174 C 
ATOM     33  CB  MOL d          20.362   5.945  18.256  0.00  0.00     0.042 C 
BRANCH  32  34
ATOM     34  N   MOL d          18.071   5.525  18.386  0.00  0.00    -0.324 N 
ATOM     35  C   MOL d          16.961   5.056  18.839  0.00  0.00     0.361 C 
ATOM     36  O   MOL d          16.786   4.793  20.063  0.00  0.00    -0.238 OA
ATOM     37  H8  MOL d          18.149   5.736  17.412  0.00  0.00     0.165 HD
BRANCH  35  38
ATOM     38  OA  MOL d          15.838   4.904  17.992  0.00  0.00    -0.299 OA
BRANCH  38  39
ATOM     39  CB  MOL d          14.571   4.871  18.705  0.00  0.00     0.219 C 
BRANCH  39  40
ATOM     40  CG  MOL d          13.991   3.494  18.504  0.00  0.00    -0.034 A 
ATOM     41  CD1 MOL d          13.375   2.828  19.582  0.00  0.00     0.009 A 
ATOM     42  CE1 MOL d          12.849   1.571  19.388  0.00  0.00     0.001 A 
ATOM     43  CZ  MOL d          12.915   1.001  18.112  0.00  0.00     0.000 A 
ATOM     44  CE2 MOL d          13.546   1.669  17.036  0.00  0.00     0.001 A 
ATOM     45  CD2 MOL d          14.080   2.953  17.244  0.00  0.00     0.009 A 
ENDBRANCH  39  40
ENDBRANCH  38  39
ENDBRANCH  35  38
ENDBRANCH  32  34
ENDBRANCH  29  32
ENDBRANCH  26  28
ENDBRANCH   1  26
TORSDOF 17
