REMARK  2 active torsions:
REMARK  status: ('A' for Active; 'I' for Inactive)
REMARK    1  A    between atoms: N_1  and  CA_2 
REMARK    2  A    between atoms: CA_2  and  C_3 
ROOT
ATOM      1  CA  ALA d           3.340  50.522  -7.663  0.00  0.00     0.279 C 
ATOM      2  CB  ALA d           3.488  50.989  -9.099  0.00  0.00     0.051 C 
ENDROOT
BRANCH   1   3
ATOM      3  N   ALA d           3.678  49.099  -7.562  0.00  0.00    -0.066 N 
ATOM      4  H1  ALA d           4.615  48.951  -7.902  0.00  0.00     0.275 HD
ATOM      5  H2  ALA d           3.031  48.560  -8.116  0.00  0.00     0.275 HD
ATOM      6  H3  ALA d           3.620  48.807  -6.599  0.00  0.00     0.275 HD
ENDBRANCH   1   3
BRANCH   1   7
ATOM      7  C   ALA d           1.946  50.785  -7.165  0.00  0.00     0.204 C 
ATOM      8  O   ALA d           1.172  49.813  -6.974  0.00  0.00    -0.646 OA
ATOM      9  OXT ALA d           1.549  51.938  -6.944  0.00  0.00    -0.646 OA
ENDBRANCH   1   7
TORSDOF 2
