REMARK  3 active torsions:
REMARK  status: ('A' for Active; 'I' for Inactive)
REMARK    1  A    between atoms: C20_8  and  N16_9 
REMARK    2  A    between atoms: C13_14  and  N10_15 
REMARK    3  A    between atoms: C4_25  and  C6_26 
REMARK       I    between atoms: C6_26  and  N19_28 
ROOT
ATOM      1  N10 D7N d          24.688 -24.331   5.159  0.00  0.00    -0.339 N 
ATOM      2  C9  D7N d          25.933 -24.360   5.954  0.00  0.00     0.166 A 
ATOM      3  C11 D7N d          24.956 -23.627   4.079  0.00  0.00     0.256 A 
ATOM      4  O12 D7N d          24.040 -23.419   3.299  0.00  0.00    -0.267 OA
ATOM      5  C7  D7N d          26.207 -23.053   4.074  0.00  0.00     0.056 A 
ATOM      6  C8  D7N d          26.801 -23.486   5.236  0.00  0.00    -0.021 A 
ATOM      7  C3  D7N d          28.050 -23.106   5.582  0.00  0.00     0.052 A 
ATOM      8  C2  D7N d          28.779 -22.247   4.773  0.00  0.00     0.117 A 
ATOM      9  F5  D7N d          30.047 -21.909   5.164  0.00  0.00    -0.206 F 
ATOM     10  C1  D7N d          28.219 -21.776   3.572  0.00  0.00     0.060 A 
ATOM     11  C4  D7N d          26.904 -22.180   3.222  0.00  0.00     0.051 A 
ENDROOT
BRANCH   1  12
ATOM     12  C13 D7N d          23.426 -25.017   5.401  0.00  0.00     0.091 C 
ATOM     13  C14 D7N d          23.498 -26.474   4.795  0.00  0.00     0.053 C 
ATOM     14  C15 D7N d          22.257 -27.268   5.274  0.00  0.00     0.237 C 
ATOM     15  N16 D7N d          22.062 -27.150   6.756  0.00  0.00    -0.067 N 
ATOM     16  C17 D7N d          21.911 -25.755   7.181  0.00  0.00     0.237 C 
ATOM     17  H10 D7N d          22.917 -27.494   7.164  0.00  0.00     0.280 HD
ATOM     18  C18 D7N d          23.154 -25.018   6.895  0.00  0.00     0.053 C 
BRANCH  15  19
ATOM     19  C20 D7N d          20.966 -27.939   7.376  0.00  0.00     0.188 C 
ATOM     20  C25 D7N d          21.257 -29.454   7.620  0.00  0.00     0.039 C 
ATOM     21  C24 D7N d          20.107 -30.010   8.514  0.00  0.00     0.081 C 
ATOM     22  C23 D7N d          18.681 -29.745   7.926  0.00  0.00     0.243 C 
ATOM     23  F26 D7N d          17.705 -30.152   8.667  0.00  0.00    -0.206 F 
ATOM     24  F27 D7N d          18.416 -30.398   6.859  0.00  0.00    -0.206 F 
ATOM     25  C22 D7N d          18.511 -28.290   7.507  0.00  0.00     0.081 C 
ATOM     26  C21 D7N d          19.647 -27.820   6.580  0.00  0.00     0.039 C 
ENDBRANCH  15  19
ENDBRANCH   1  12
BRANCH  11  27
ATOM     27  C6  D7N d          26.438 -21.656   1.981  0.00  0.00     0.250 C 
ATOM     28  O28 D7N d          27.191 -20.954   1.271  0.00  0.00    -0.268 OA
ATOM     29  N19 D7N d          25.231 -22.042   1.559  0.00  0.00    -0.366 N 
ATOM     30  H24 D7N d          24.870 -21.696   0.693  0.00  0.00     0.159 HD
ATOM     31  H25 D7N d          24.689 -22.677   2.109  0.00  0.00     0.159 HD
ENDBRANCH  11  27
TORSDOF 3
