REMARK  20 active torsions:
REMARK  status: ('A' for Active; 'I' for Inactive)
REMARK    1  A    between atoms: N_1  and  CA_2 
REMARK    2  A    between atoms: CA_2  and  C_3 
REMARK    3  A    between atoms: CA_2  and  CB_5 
REMARK       I    between atoms: C_3  and  N_8 
REMARK    4  A    between atoms: N_8  and  CA_9 
REMARK    5  A    between atoms: CA_9  and  C_10 
REMARK    6  A    between atoms: CA_9  and  CB_12 
REMARK       I    between atoms: C_10  and  N_16 
REMARK    7  A    between atoms: CB_12  and  CG_13 
REMARK    8  A    between atoms: N_16  and  CA_17 
REMARK    9  A    between atoms: CA_17  and  C_18 
REMARK   10  A    between atoms: CA_17  and  CB_20 
REMARK       I    between atoms: C_18  and  N_22 
REMARK   11  A    between atoms: CB_20  and  OG_21 
REMARK   12  A    between atoms: N_22  and  CA_23 
REMARK   13  A    between atoms: CA_23  and  CB_24 
REMARK   14  A    between atoms: CA_23  and  C_31 
REMARK   15  A    between atoms: CB_24  and  OG1_26 
REMARK   16  A    between atoms: OG1_26  and  P_27 
REMARK       I    between atoms: C_31  and  N_33 
REMARK   17  A    between atoms: N_33  and  CA_34 
REMARK   18  A    between atoms: CA_34  and  C_35 
REMARK   19  A    between atoms: CA_34  and  CB_37 
REMARK       I    between atoms: C_35  and  N_41 
REMARK   20  A    between atoms: CB_37  and  CG_38 
ROOT
ATOM      1  C   VAL d           0.100  11.822  12.387  0.00  0.00     0.243 C 
ATOM      2  O   VAL d          -0.498  12.786  12.882  0.00  0.00    -0.271 OA
ATOM      3  N   VAL d          -0.107  11.395  11.144  0.00  0.00    -0.344 N 
ATOM      4  H   VAL d           0.316  10.536  10.856  0.00  0.00     0.163 HD
ENDROOT
BRANCH   1   5
ATOM      5  CA  VAL d           1.143  11.064  13.204  0.00  0.00     0.200 C 
BRANCH   5   6
ATOM      6  N   VAL d           1.167  11.635  14.542  0.00  0.00    -0.344 N 
ATOM      7  C   VAL d           1.669  12.843  14.760  0.00  0.00     0.241 C 
ATOM      8  O   VAL d           2.337  13.458  13.929  0.00  0.00    -0.271 OA
ATOM      9  H   VAL d           0.799  11.109  15.309  0.00  0.00     0.163 HD
BRANCH   7  10
ATOM     10  CA  VAL d           1.330  13.475  16.090  0.00  0.00     0.177 C 
BRANCH  10  11
ATOM     11  N   VAL d           2.305  14.516  16.372  0.00  0.00    -0.346 N 
ATOM     12  C   VAL d           3.005  14.552  17.499  0.00  0.00     0.249 C 
ATOM     13  O   VAL d           2.962  13.645  18.337  0.00  0.00    -0.271 OA
ATOM     14  H   VAL d           2.454  15.232  15.691  0.00  0.00     0.163 HD
BRANCH  12  15
ATOM     15  CA  VAL d           3.847  15.823  17.733  0.00  0.00     0.278 C 
BRANCH  15  16
ATOM     16  N   VAL d           4.194  15.978  19.140  0.00  0.00    -0.066 N 
ATOM     17  H   VAL d           3.356  15.937  19.699  0.00  0.00     0.275 HD
ATOM     18  H   VAL d           4.647  16.868  19.278  0.00  0.00     0.275 HD
ATOM     19  H   VAL d           4.819  15.236  19.416  0.00  0.00     0.275 HD
ENDBRANCH  15  16
BRANCH  15  20
ATOM     20  CB  VAL d           5.112  15.880  16.831  0.00  0.00     0.017 C 
ATOM     21  CG1 VAL d           5.912  14.595  16.919  0.00  0.00     0.012 C 
ATOM     22  CG2 VAL d           4.753  16.206  15.389  0.00  0.00     0.012 C 
ENDBRANCH  15  20
ENDBRANCH  12  15
ENDBRANCH  10  11
BRANCH  10  23
ATOM     23  CB  VAL d          -0.065  14.095  15.950  0.00  0.00     0.038 C 
BRANCH  23  24
ATOM     24  CG  VAL d          -0.552  15.081  17.004  0.00  0.00    -0.020 C 
ATOM     25  CD1 VAL d          -1.765  15.793  16.477  0.00  0.00     0.009 C 
ATOM     26  CD2 VAL d          -0.907  14.336  18.247  0.00  0.00     0.009 C 
ENDBRANCH  23  24
ENDBRANCH  10  23
ENDBRANCH   7  10
ENDBRANCH   5   6
BRANCH   5  27
ATOM     27  CB  VAL d           0.852   9.563  13.230  0.00  0.00     0.199 C 
BRANCH  27  28
ATOM     28  OG  VAL d          -0.396   9.253  13.844  0.00  0.00    -0.398 OA
ATOM     29  H   VAL d          -1.098   9.677  13.364  0.00  0.00     0.209 HD
ENDBRANCH  27  28
ENDBRANCH   5  27
ENDBRANCH   1   5
BRANCH   3  30
ATOM     30  CA  VAL d          -0.928  12.130  10.179  0.00  0.00     0.205 C 
BRANCH  30  31
ATOM     31  CB  VAL d          -0.840  11.451   8.802  0.00  0.00     0.163 C 
ATOM     32  CG2 VAL d          -1.716  12.214   7.811  0.00  0.00     0.043 C 
BRANCH  31  33
ATOM     33  OG1 VAL d           0.518  11.580   8.387  0.00  0.00    -0.275 OA
BRANCH  33  34
ATOM     34  P   VAL d           1.341  10.182   8.308  0.00  0.00     0.422 P 
ATOM     35  O1P VAL d           2.682  10.630   7.865  0.00  0.00    -0.617 OA
ATOM     36  O2P VAL d           1.375   9.476   9.746  0.00  0.00    -0.617 OA
ATOM     37  O3P VAL d           0.641   9.245   7.207  0.00  0.00    -0.617 OA
ENDBRANCH  33  34
ENDBRANCH  31  33
ENDBRANCH  30  31
BRANCH  30  38
ATOM     38  C   VAL d          -2.383  12.294  10.628  0.00  0.00     0.243 C 
ATOM     39  O   VAL d          -3.026  11.330  11.078  0.00  0.00    -0.271 OA
ATOM     40  N   VAL d          -2.882  13.528  10.543  0.00  0.00    -0.346 N 
ATOM     41  H   VAL d          -2.317  14.265  10.172  0.00  0.00     0.163 HD
BRANCH  40  42
ATOM     42  CA  VAL d          -4.247  13.817  10.986  0.00  0.00     0.176 C 
BRANCH  42  43
ATOM     43  C   VAL d          -5.257  13.237  10.017  0.00  0.00     0.238 C 
ATOM     44  O   VAL d          -4.986  13.136   8.814  0.00  0.00    -0.271 OA
ATOM     45  N   VAL d          -6.416  12.849  10.542  0.00  0.00    -0.368 N 
ATOM     46  H   VAL d          -7.125  12.458   9.955  0.00  0.00     0.159 HD
ATOM     47  H   VAL d          -6.579  12.949  11.524  0.00  0.00     0.159 HD
ENDBRANCH  42  43
BRANCH  42  48
ATOM     48  CB  VAL d          -4.486  15.323  11.110  0.00  0.00     0.038 C 
BRANCH  48  49
ATOM     49  CG  VAL d          -3.543  16.133  11.987  0.00  0.00    -0.020 C 
ATOM     50  CD1 VAL d          -4.160  17.491  12.279  0.00  0.00     0.009 C 
ATOM     51  CD2 VAL d          -3.250  15.409  13.262  0.00  0.00     0.009 C 
ENDBRANCH  48  49
ENDBRANCH  42  48
ENDBRANCH  40  42
ENDBRANCH  30  38
ENDBRANCH   3  30
TORSDOF 20
