REMARK  4 active torsions:
REMARK  status: ('A' for Active; 'I' for Inactive)
REMARK    1  A    between atoms: SAX_2  and  NAS_3 
REMARK    2  A    between atoms: SAX_2  and  CAO_5 
REMARK    3  A    between atoms: CAL_11  and  CAK_12 
REMARK       I    between atoms: CAK_12  and  NAR_14 
REMARK    4  A    between atoms: NAR_14  and  NAT_15 
ROOT
ATOM      1  CAK BL1 d          -4.349   2.716  12.230  0.00  0.00     0.270 C 
ATOM      2  OAU BL1 d          -4.567   1.547  11.912  0.00  0.00    -0.266 OA
ATOM      3  NAR BL1 d          -3.759   3.371  11.213  0.00  0.00    -0.263 N 
ATOM      4  H6  BL1 d          -3.647   2.747  10.440  0.00  0.00     0.190 HD
ENDROOT
BRANCH   1   5
ATOM      5  CAL BL1 d          -4.861   3.126  13.617  0.00  0.00     0.035 A 
ATOM      6  CAM BL1 d          -5.188   2.111  14.556  0.00  0.00     0.044 A 
ATOM      7  CAO BL1 d          -5.700   2.341  15.852  0.00  0.00     0.102 A 
ATOM      8  CAJ BL1 d          -5.906   3.672  16.168  0.00  0.00     0.057 A 
ATOM      9 CLAQ BL1 d          -6.572   4.052  17.768  0.00  0.00    -0.083 Cl
ATOM     10  CAC BL1 d          -5.629   4.703  15.259  0.00  0.00     0.026 A 
ATOM     11  CAN BL1 d          -5.104   4.440  13.993  0.00  0.00     0.019 A 
BRANCH   7  12
ATOM     12  SAX BL1 d          -6.051   1.125  16.911  0.00  0.00     0.258 S 
ATOM     13  OAW BL1 d          -7.468   0.916  16.985  0.00  0.00    -0.201 OA
ATOM     14  OAV BL1 d          -5.583   1.307  18.415  0.00  0.00    -0.201 OA
BRANCH  12  15
ATOM     15  NAS BL1 d          -5.454  -0.063  16.353  0.00  0.00    -0.324 N 
ATOM     16  H1  BL1 d          -5.648  -0.323  15.407  0.00  0.00     0.169 HD
ATOM     17  H2  BL1 d          -4.846  -0.627  16.912  0.00  0.00     0.169 HD
ENDBRANCH  12  15
ENDBRANCH   7  12
ENDBRANCH   1   5
BRANCH   3  18
ATOM     18  NAT BL1 d          -3.242   4.644  10.864  0.00  0.00    -0.284 N 
ATOM     19  CAI BL1 d          -2.003   4.716  10.083  0.00  0.00     0.109 A 
ATOM     20  CAP BL1 d          -2.177   4.075   8.711  0.00  0.00     0.034 C 
ATOM     21  CAF BL1 d          -1.747   6.229   9.923  0.00  0.00     0.067 A 
ATOM     22  CAB BL1 d          -2.952   6.864  10.583  0.00  0.00    -0.028 A 
ATOM     23  CAA BL1 d          -3.783   5.912  11.112  0.00  0.00     0.057 A 
ATOM     24  CAE BL1 d          -3.234   8.231  10.673  0.00  0.00     0.009 A 
ATOM     25  CAD BL1 d          -4.971   6.267  11.760  0.00  0.00     0.031 A 
ATOM     26  CAH BL1 d          -5.292   7.630  11.868  0.00  0.00     0.002 A 
ATOM     27  CAG BL1 d          -4.425   8.599  11.325  0.00  0.00     0.001 A 
ENDBRANCH   3  18
TORSDOF 4
