REMARK  7 active torsions:
REMARK  status: ('A' for Active; 'I' for Inactive)
REMARK    1  A    between atoms: N4_1  and  C6_2 
REMARK    2  A    between atoms: C2_4  and  C9_14 
REMARK    3  A    between atoms: C8_7  and  N2_8 
REMARK    4  A    between atoms: C9_14  and  S1_15 
REMARK    5  A    between atoms: S1_15  and  C16_16 
REMARK    6  A    between atoms: C16_16  and  C17_17 
REMARK    7  A    between atoms: C17_17  and  N18_18 
ROOT
ATOM      1  C6  BHB d          18.225  17.602  19.176  0.00  0.00     0.027 A 
ATOM      2  C1  BHB d          16.912  17.202  18.791  0.00  0.00     0.039 A 
ATOM      3  C2  BHB d          15.923  16.912  19.776  0.00  0.00    -0.016 A 
ATOM      4  C3  BHB d          16.258  17.029  21.163  0.00  0.00     0.098 A 
ATOM      5  N3  BHB d          15.345  16.767  22.152  0.00  0.00    -0.064 NA
ATOM      6  C8  BHB d          15.607  16.861  23.416  0.00  0.00     0.701 A 
ATOM      7  N1  BHB d          16.811  17.223  23.867  0.00  0.00    -0.154 N 
ATOM      8  C7  BHB d          17.830  17.518  23.053  0.00  0.00     0.272 A 
ATOM      9  O1  BHB d          18.931  17.849  23.476  0.00  0.00    -0.267 OA
ATOM     10  C41 BHB d          17.588  17.431  21.543  0.00  0.00     0.065 A 
ATOM     11  C5  BHB d          18.571  17.718  20.553  0.00  0.00     0.048 A 
ATOM     12  H6  BHB d          16.956  17.276  24.855  0.00  0.00     0.187 HD
ENDROOT
BRANCH   3  13
ATOM     13  C9  BHB d          14.524  16.478  19.328  0.00  0.00     0.115 C 
BRANCH  13  14
ATOM     14  S1  BHB d          13.412  17.912  19.425  0.00  0.00    -0.163 SA
BRANCH  14  15
ATOM     15  C16 BHB d          12.682  17.694  17.776  0.00  0.00     0.102 C 
BRANCH  15  16
ATOM     16  C17 BHB d          13.685  18.038  16.664  0.00  0.00     0.244 C 
BRANCH  16  17
ATOM     17  N18 BHB d          13.125  17.738  15.325  0.00  0.00    -0.078 N 
ATOM     18  C20 BHB d          14.211  17.656  14.327  0.00  0.00     0.269 C 
ATOM     19  C19 BHB d          12.132  18.753  14.906  0.00  0.00     0.269 C 
ATOM     20  H14 BHB d          12.662  16.844  15.370  0.00  0.00     0.279 HD
ENDBRANCH  16  17
ENDBRANCH  15  16
ENDBRANCH  14  15
ENDBRANCH  13  14
ENDBRANCH   3  13
BRANCH   1  21
ATOM     21  N4  BHB d          19.261  17.906  18.100  0.00  0.00    -0.399 N 
ATOM     22  H1  BHB d          19.010  17.822  17.105  0.00  0.00     0.156 HD
ATOM     23  H2  BHB d          20.212  18.196  18.368  0.00  0.00     0.156 HD
ENDBRANCH   1  21
BRANCH   6  24
ATOM     24  N2  BHB d          14.707  16.606  24.319  0.00  0.00    -0.233 N 
ATOM     25  H4  BHB d          13.759  16.322  24.035  0.00  0.00     0.174 HD
ATOM     26  H5  BHB d          14.942  16.688  25.318  0.00  0.00     0.174 HD
ENDBRANCH   6  24
TORSDOF 7
