REMARK  4 active torsions:
REMARK  status: ('A' for Active; 'I' for Inactive)
REMARK    1  A    between atoms: N_1  and  CA_2 
REMARK    2  A    between atoms: CA_2  and  C_3 
REMARK    3  A    between atoms: CA_2  and  CB_6 
REMARK    4  A    between atoms: CB_6  and  OG_7 
ROOT
ATOM      1  CA  DSN d          21.285  40.323  40.165  0.00  0.00     0.306 C 
ENDROOT
BRANCH   1   2
ATOM      2  N   DSN d          21.106  41.763  40.469  0.00  0.00    -0.063 N 
ATOM      3  H1  DSN d          20.184  41.914  40.847  0.00  0.00     0.275 HD
ATOM      4  H2  DSN d          21.215  42.301  39.624  0.00  0.00     0.275 HD
ATOM      5  H3  DSN d          21.797  42.053  41.143  0.00  0.00     0.275 HD
ENDBRANCH   1   2
BRANCH   1   6
ATOM      6  C   DSN d          22.695  40.063  39.583  0.00  0.00     0.206 C 
ATOM      7  O   DSN d          22.986  38.895  39.303  0.00  0.00    -0.646 OA
ATOM      8  OXT DSN d          23.423  41.079  39.436  0.00  0.00    -0.646 OA
ENDBRANCH   1   6
BRANCH   1   9
ATOM      9  CB  DSN d          20.986  39.472  41.385  0.00  0.00     0.208 C 
BRANCH   9  10
ATOM     10  OG  DSN d          21.715  39.878  42.508  0.00  0.00    -0.398 OA
ATOM     11  H7  DSN d          21.497  39.319  43.245  0.00  0.00     0.209 HD
ENDBRANCH   9  10
ENDBRANCH   1   9
TORSDOF 4
