REMARK  9 active torsions:
REMARK  status: ('A' for Active; 'I' for Inactive)
REMARK    1  A    between atoms: C4_4  and  O1_8 
REMARK    2  A    between atoms: C6_6  and  O2_9 
REMARK    3  A    between atoms: O1_8  and  C11_19 
REMARK    4  A    between atoms: O2_9  and  C21_10 
REMARK    5  A    between atoms: C23_12  and  C27_16 
REMARK    6  A    between atoms: C27_16  and  N22_18 
REMARK    7  A    between atoms: C27_16  and  N21_17 
REMARK    8  A    between atoms: C15_23  and  C17_25 
REMARK    9  A    between atoms: C17_25  and  N11_26 
ROOT
ATOM      1  C1  MOL d           8.901  25.119  20.018  0.00  0.00     0.178 A 
ATOM      2  C2  MOL d           9.759  26.211  19.744  0.00  0.00     0.024 A 
ATOM      3  C3  MOL d          11.089  25.925  19.352  0.00  0.00     0.178 A 
ATOM      4  C4  MOL d          11.531  24.574  19.245  0.00  0.00     0.212 A 
ATOM      5  N5  MOL d          10.681  23.547  19.507  0.00  0.00    -0.194 NA
ATOM      6  C6  MOL d           9.411  23.809  19.880  0.00  0.00     0.212 A 
ATOM      7  C7  MOL d           9.232  27.602  19.871  0.00  0.00     0.055 C 
ATOM      8  F1  MOL d           7.638  25.263  20.387  0.00  0.00    -0.201 F 
ATOM      9  F3  MOL d          11.941  26.898  19.090  0.00  0.00    -0.201 F 
ENDROOT
BRANCH   4  10
ATOM     10  O1  MOL d          12.775  24.296  18.863  0.00  0.00    -0.289 OA
BRANCH  10  11
ATOM     11  C11 MOL d          13.945  24.959  18.729  0.00  0.00     0.079 A 
ATOM     12  C16 MOL d          14.872  24.725  17.682  0.00  0.00     0.052 A 
ATOM     13  C15 MOL d          16.107  25.416  17.608  0.00  0.00     0.010 A 
ATOM     14  C14 MOL d          16.397  26.353  18.633  0.00  0.00     0.015 A 
ATOM     15  C13 MOL d          15.492  26.582  19.682  0.00  0.00     0.004 A 
ATOM     16  C12 MOL d          14.276  25.881  19.732  0.00  0.00     0.037 A 
BRANCH  13  17
ATOM     17  C17 MOL d          17.027  25.178  16.563  0.00  0.00     0.102 C 
ATOM     18  N12 MOL d          16.794  24.305  15.586  0.00  0.00    -0.385 N 
ATOM     19  H18 MOL d          15.922  23.757  15.582  0.00  0.00     0.157 HD
ATOM     20  H19 MOL d          17.486  24.178  14.833  0.00  0.00     0.157 HD
BRANCH  17  21
ATOM     21  N11 MOL d          18.208  25.798  16.403  0.00  0.00    -0.385 N 
ATOM     22  H16 MOL d          18.813  25.555  15.606  0.00  0.00     0.157 HD
ATOM     23  H17 MOL d          18.508  26.516  17.078  0.00  0.00     0.157 HD
ENDBRANCH  17  21
ENDBRANCH  13  17
ENDBRANCH  10  11
ENDBRANCH   4  10
BRANCH   6  24
ATOM     24  O2  MOL d           8.561  22.785  20.174  0.00  0.00    -0.289 OA
BRANCH  24  25
ATOM     25  C21 MOL d           9.079  21.580  20.575  0.00  0.00     0.079 A 
ATOM     26  C26 MOL d           9.858  21.348  21.707  0.00  0.00     0.037 A 
ATOM     27  C25 MOL d          10.339  20.051  22.011  0.00  0.00     0.004 A 
ATOM     28  C24 MOL d          10.036  18.997  21.115  0.00  0.00     0.015 A 
ATOM     29  C23 MOL d           9.267  19.245  19.959  0.00  0.00     0.010 A 
ATOM     30  C22 MOL d           8.803  20.538  19.686  0.00  0.00     0.052 A 
BRANCH  29  31
ATOM     31  C27 MOL d           8.995  18.234  19.012  0.00  0.00     0.102 C 
BRANCH  31  32
ATOM     32  N22 MOL d           9.362  16.988  19.136  0.00  0.00    -0.385 N 
ATOM     33  H10 MOL d           9.966  16.705  19.921  0.00  0.00     0.157 HD
ATOM     34  H11 MOL d           9.048  16.288  18.449  0.00  0.00     0.157 HD
ENDBRANCH  31  32
BRANCH  31  35
ATOM     35  N21 MOL d           8.230  18.426  17.963  0.00  0.00    -0.385 N 
ATOM     36  H8  MOL d           8.062  17.656  17.300  0.00  0.00     0.157 HD
ATOM     37  H9  MOL d           7.798  19.347  17.802  0.00  0.00     0.157 HD
ENDBRANCH  31  35
ENDBRANCH  29  31
ENDBRANCH  24  25
ENDBRANCH   6  24
TORSDOF 9
