REMARK  14 active torsions:
REMARK  status: ('A' for Active; 'I' for Inactive)
REMARK    1  A    between atoms: C6_6  and  N6_7 
REMARK    2  A    between atoms: C1'_11  and  N9_10 
REMARK    3  A    between atoms: C2'_12  and  O2'_13 
REMARK    4  A    between atoms: C3'_14  and  O3'_15 
REMARK    5  A    between atoms: C5'_18  and  C4'_17 
REMARK    6  A    between atoms: O5'_19  and  C5'_18 
REMARK    7  A    between atoms: PA_20  and  O5'_19 
REMARK    8  A    between atoms: O3A_23  and  PA_20 
REMARK    9  A    between atoms: PB_24  and  O3A_23 
REMARK   10  A    between atoms: O5N_27  and  PB_24 
REMARK   11  A    between atoms: C5N_28  and  O5N_27 
REMARK   12  A    between atoms: C4N_35  and  C5N_28 
REMARK   13  A    between atoms: C2N_32  and  O2N_31 
REMARK   14  A    between atoms: C3N_34  and  O3N_33 
ROOT
ATOM      1  C5' A1R d          29.276  -2.983   3.593  0.00  0.00     0.216 C 
ENDROOT
BRANCH   1   2
ATOM      2  C4' A1R d          29.383  -3.687   2.256  0.00  0.00     0.180 C 
ATOM      3  C3' A1R d          29.936  -2.866   1.091  0.00  0.00     0.182 C 
ATOM      4  C2' A1R d          29.432  -3.650  -0.110  0.00  0.00     0.198 C 
ATOM      5  C1' A1R d          28.063  -4.137   0.387  0.00  0.00     0.262 C 
ATOM      6  O4' A1R d          28.076  -4.089   1.802  0.00  0.00    -0.353 OA
BRANCH   3   7
ATOM      7  O3' A1R d          31.351  -2.827   1.148  0.00  0.00    -0.390 OA
ATOM      8  H9  A1R d          31.689  -3.713   1.210  0.00  0.00     0.210 HD
ENDBRANCH   3   7
BRANCH   4   9
ATOM      9  O2' A1R d          30.251  -4.790  -0.384  0.00  0.00    -0.388 OA
ATOM     10  H7  A1R d          31.102  -4.501  -0.693  0.00  0.00     0.210 HD
ENDBRANCH   4   9
BRANCH   5  11
ATOM     11  N9  A1R d          26.914  -3.364  -0.098  0.00  0.00    -0.294 N 
ATOM     12  C4  A1R d          25.696  -3.867  -0.460  0.00  0.00     0.167 A 
ATOM     13  N3  A1R d          25.300  -5.142  -0.421  0.00  0.00    -0.222 NA
ATOM     14  C5  A1R d          24.944  -2.780  -0.869  0.00  0.00     0.149 A 
ATOM     15  C2  A1R d          24.035  -5.270  -0.826  0.00  0.00     0.237 A 
ATOM     16  N1  A1R d          23.195  -4.318  -1.249  0.00  0.00    -0.222 NA
ATOM     17  C6  A1R d          23.621  -3.039  -1.291  0.00  0.00     0.155 A 
ATOM     18  N7  A1R d          25.685  -1.614  -0.781  0.00  0.00    -0.236 NA
ATOM     19  C8  A1R d          26.829  -2.016  -0.306  0.00  0.00     0.214 A 
BRANCH  17  20
ATOM     20  N6  A1R d          22.771  -2.107  -1.731  0.00  0.00    -0.382 N 
ATOM     21  H2  A1R d          23.066  -1.121  -1.775  0.00  0.00     0.157 HD
ATOM     22  H3  A1R d          21.821  -2.374  -2.026  0.00  0.00     0.157 HD
ENDBRANCH  17  20
ENDBRANCH   5  11
ENDBRANCH   1   2
BRANCH   1  23
ATOM     23  O5' A1R d          28.644  -1.715   3.413  0.00  0.00    -0.287 OA
BRANCH  23  24
ATOM     24  PA  A1R d          28.931  -0.529   4.398  0.00  0.00     0.417 P 
ATOM     25  O1A A1R d          28.059   0.602   4.048  0.00  0.00    -0.624 OA
ATOM     26  O2A A1R d          30.407  -0.202   4.339  0.00  0.00    -0.624 OA
BRANCH  24  27
ATOM     27  O3A A1R d          28.619  -1.195   5.811  0.00  0.00    -0.180 OA
BRANCH  27  28
ATOM     28  PB  A1R d          29.419  -1.267   7.197  0.00  0.00     0.417 P 
ATOM     29  O1B A1R d          28.527  -1.988   8.181  0.00  0.00    -0.624 OA
ATOM     30  O2B A1R d          30.788  -1.796   6.984  0.00  0.00    -0.624 OA
BRANCH  28  31
ATOM     31  O5N A1R d          29.539   0.253   7.592  0.00  0.00    -0.287 OA
BRANCH  31  32
ATOM     32  C5N A1R d          28.619   0.837   8.519  0.00  0.00     0.217 C 
BRANCH  32  33
ATOM     33  C4N A1R d          28.913   2.323   8.614  0.00  0.00     0.241 C 
ATOM     34  N4N A1R d          28.778   2.986   7.304  0.00  0.00    -0.064 N 
ATOM     35  C1N A1R d          27.521   3.757   7.300  0.00  0.00     0.267 C 
ATOM     36  H15 A1R d          29.558   3.606   7.154  0.00  0.00     0.277 HD
ATOM     37  H16 A1R d          28.755   2.293   6.572  0.00  0.00     0.277 HD
ATOM     38  C2N A1R d          26.812   3.382   8.587  0.00  0.00     0.174 C 
ATOM     39  C3N A1R d          27.958   3.100   9.525  0.00  0.00     0.181 C 
BRANCH  38  40
ATOM     40  O2N A1R d          25.976   4.440   8.989  0.00  0.00    -0.391 OA
ATOM     41  H19 A1R d          26.500   5.220   9.132  0.00  0.00     0.210 HD
ENDBRANCH  38  40
BRANCH  39  42
ATOM     42  O3N A1R d          28.576   4.260  10.016  0.00  0.00    -0.391 OA
ATOM     43  H21 A1R d          27.939   4.780  10.492  0.00  0.00     0.210 HD
ENDBRANCH  39  42
ENDBRANCH  32  33
ENDBRANCH  31  32
ENDBRANCH  28  31
ENDBRANCH  27  28
ENDBRANCH  24  27
ENDBRANCH  23  24
ENDBRANCH   1  23
TORSDOF 14
