REMARK  5 active torsions:
REMARK  status: ('A' for Active; 'I' for Inactive)
REMARK    1  A    between atoms: N_1  and  CA_2 
REMARK    2  A    between atoms: CA_2  and  C_3 
REMARK    3  A    between atoms: CA_2  and  CB_5 
REMARK    4  A    between atoms: CB_5  and  CG_6 
REMARK    5  A    between atoms: CG_6  and  SD_7 
ROOT
ATOM      1  CA  MET d          26.042  31.556  19.159  0.00  0.00     0.284 C 
ENDROOT
BRANCH   1   2
ATOM      2  N   MET d          24.780  32.324  18.956  0.00  0.00    -0.065 N 
ATOM      3  H1  MET d          24.804  33.163  19.515  0.00  0.00     0.275 HD
ATOM      4  H2  MET d          23.994  31.758  19.233  0.00  0.00     0.275 HD
ATOM      5  H3  MET d          24.690  32.571  17.983  0.00  0.00     0.275 HD
ENDBRANCH   1   2
BRANCH   1   6
ATOM      6  C   MET d          26.053  30.275  18.332  0.00  0.00     0.204 C 
ATOM      7  O   MET d          27.075  29.587  18.188  0.00  0.00    -0.646 OA
ATOM      8  OXT MET d          25.013  29.892  17.799  0.00  0.00    -0.646 OA
ENDBRANCH   1   6
BRANCH   1   9
ATOM      9  CB  MET d          26.218  31.220  20.642  0.00  0.00     0.054 C 
BRANCH   9  10
ATOM     10  CG  MET d          26.450  32.419  21.541  0.00  0.00     0.076 C 
BRANCH  10  11
ATOM     11  SD  MET d          28.008  33.223  21.144  0.00  0.00    -0.173 SA
ATOM     12  CE  MET d          27.478  34.810  20.536  0.00  0.00     0.089 C 
ENDBRANCH  10  11
ENDBRANCH   9  10
ENDBRANCH   1   9
TORSDOF 5
