REMARK  4 active torsions:
REMARK  status: ('A' for Active; 'I' for Inactive)
REMARK    1  A    between atoms: C4_1  and  N20_20 
REMARK    2  A    between atoms: N7_13  and  C6_4 
REMARK    3  A    between atoms: C10_7  and  C8_6 
REMARK       I    between atoms: C8_6  and  N7_13 
REMARK       I    between atoms: N20_20  and  C21_21 
REMARK    4  A    between atoms: C21_21  and  C23_23 
ROOT
ATOM      1  C14 0X6 d          -4.616  -4.875 -16.164  0.00  0.00     0.047 A 
ATOM      2  C11 0X6 d          -7.310  -4.503 -15.489  0.00  0.00     0.052 A 
ATOM      3  C10 0X6 d          -6.750  -5.794 -15.484  0.00  0.00     0.075 A 
ATOM      4  C12 0X6 d          -6.525  -3.412 -15.814  0.00  0.00     0.047 A 
ATOM      5  C13 0X6 d          -5.177  -3.590 -16.152  0.00  0.00     0.048 A 
ATOM      6  C15 0X6 d          -5.398  -5.970 -15.837  0.00  0.00     0.052 A 
ATOM      7 CL1  0X6 d          -4.691  -7.550 -15.882  0.00  0.00    -0.083 Cl
ATOM      8  C17 0X6 d          -4.367  -2.462 -16.488  0.00  0.00     0.099 C 
ATOM      9  N18 0X6 d          -3.716  -1.572 -16.752  0.00  0.00    -0.191 NA
ATOM     10 CL2  0X6 d          -8.985  -4.269 -15.094  0.00  0.00    -0.083 Cl
ENDROOT
BRANCH   3  11
ATOM     11  C8  0X6 d          -7.598  -6.954 -15.129  0.00  0.00     0.259 C 
ATOM     12  N7  0X6 d          -7.933  -7.812 -16.123  0.00  0.00    -0.323 N 
ATOM     13  H6  0X6 d          -7.556  -7.593 -17.023  0.00  0.00     0.169 HD
ATOM     14  O9  0X6 d          -7.963  -7.085 -13.971  0.00  0.00    -0.267 OA
BRANCH  12  15
ATOM     15  C6  0X6 d          -8.734  -8.964 -16.070  0.00  0.00     0.040 A 
ATOM     16  C5  0X6 d          -8.846  -9.703 -17.250  0.00  0.00     0.080 A 
ATOM     17  C4  0X6 d          -9.639 -10.852 -17.286  0.00  0.00     0.131 A 
ATOM     18  N3  0X6 d         -10.328 -11.208 -16.199  0.00  0.00    -0.243 NA
ATOM     19  C2  0X6 d         -10.274 -10.523 -15.060  0.00  0.00     0.121 A 
ATOM     20  C1  0X6 d          -9.487  -9.384 -14.955  0.00  0.00     0.049 A 
BRANCH  17  21
ATOM     21  N20 0X6 d          -9.753 -11.635 -18.447  0.00  0.00    -0.311 N 
ATOM     22  C21 0X6 d          -8.777 -11.863 -19.371  0.00  0.00     0.227 C 
ATOM     23  O22 0X6 d          -7.665 -11.359 -19.285  0.00  0.00    -0.273 OA
ATOM     24  H7  0X6 d         -10.639 -12.069 -18.612  0.00  0.00     0.170 HD
BRANCH  22  25
ATOM     25  C23 0X6 d          -9.123 -12.758 -20.543  0.00  0.00     0.078 A 
ATOM     26  C24 0X6 d          -8.429 -12.548 -21.892  0.00  0.00     0.015 A 
ATOM     27  C25 0X6 d          -8.081 -13.766 -21.031  0.00  0.00     0.015 A 
ENDBRANCH  22  25
ENDBRANCH  17  21
ENDBRANCH  12  15
ENDBRANCH   3  11
TORSDOF 4
