REMARK  5 active torsions:
REMARK  status: ('A' for Active; 'I' for Inactive)
REMARK    1  A    between atoms: C11_16  and  C10_1 
REMARK    2  A    between atoms: C05_11  and  P02_8 
REMARK    3  A    between atoms: C06_12  and  C05_11 
REMARK    4  A    between atoms: C05_11  and  C19_23 
REMARK       I    between atoms: N08_14  and  C06_12 
REMARK    5  A    between atoms: C09_15  and  N08_14 
ROOT
ATOM      1  C05 N7O d         -13.902 -44.768 -56.307  0.00  0.00     0.203 C 
ENDROOT
BRANCH   1   2
ATOM      2  P02 N7O d         -14.663 -43.209 -56.906  0.00  0.00     0.120 P 
ATOM      3  C01 N7O d         -15.366 -43.443 -58.524  0.00  0.00     0.120 C 
ATOM      4  O03 N7O d         -15.690 -42.746 -55.934  0.00  0.00    -0.667 OA
ATOM      5  O04 N7O d         -13.554 -42.114 -57.118  0.00  0.00    -0.667 OA
ENDBRANCH   1   2
BRANCH   1   6
ATOM      6  C06 N7O d         -12.485 -44.943 -56.967  0.00  0.00     0.240 C 
ATOM      7  O07 N7O d         -12.319 -45.264 -58.118  0.00  0.00    -0.272 OA
ATOM      8  N08 N7O d         -11.455 -45.092 -55.993  0.00  0.00    -0.336 N 
ATOM      9  H9  N7O d         -11.713 -45.053 -55.028  0.00  0.00     0.168 HD
BRANCH   8  10
ATOM     10  C09 N7O d         -10.079 -45.293 -56.311  0.00  0.00     0.092 C 
ATOM     11  C10 N7O d          -9.171 -45.255 -55.324  0.00  0.00     0.028 C 
BRANCH  11  12
ATOM     12  C11 N7O d          -7.709 -45.202 -55.541  0.00  0.00    -0.032 A 
ATOM     13  C12 N7O d          -6.784 -45.215 -54.484  0.00  0.00     0.014 A 
ATOM     14  C13 N7O d          -5.416 -45.175 -54.711  0.00  0.00     0.046 A 
ATOM     15  C14 N7O d          -4.969 -45.147 -56.028  0.00  0.00     0.154 A 
ATOM     16  F15 N7O d          -3.666 -45.112 -56.279  0.00  0.00    -0.203 F 
ATOM     17  C16 N7O d          -5.867 -45.129 -57.091  0.00  0.00     0.155 A 
ATOM     18  F17 N7O d          -5.387 -45.084 -58.343  0.00  0.00    -0.203 F 
ATOM     19  C18 N7O d          -7.237 -45.166 -56.860  0.00  0.00     0.057 A 
ENDBRANCH  11  12
ENDBRANCH   8  10
ENDBRANCH   1   6
BRANCH   1  20
ATOM     20  C19 N7O d         -14.791 -46.004 -56.347  0.00  0.00    -0.017 A 
ATOM     21  C20 N7O d         -14.929 -46.892 -57.361  0.00  0.00     0.059 A 
ATOM     22  S21 N7O d         -15.977 -48.205 -57.010  0.00  0.00    -0.101 SA
ATOM     23  C22 N7O d         -16.317 -47.628 -55.424  0.00  0.00     0.015 A 
ATOM     24  C28 N7O d         -15.611 -46.431 -55.179  0.00  0.00    -0.009 A 
ATOM     25  C23 N7O d         -17.150 -48.237 -54.480  0.00  0.00     0.021 A 
ATOM     26  C27 N7O d         -15.798 -45.852 -53.926  0.00  0.00     0.037 A 
ATOM     27  C25 N7O d         -16.618 -46.462 -53.008  0.00  0.00     0.035 A 
ATOM     28  C24 N7O d         -17.322 -47.649 -53.236  0.00  0.00     0.025 A 
ATOM     29 CL26 N7O d         -16.766 -45.741 -51.442  0.00  0.00    -0.084 Cl
ENDBRANCH   1  20
TORSDOF 5
