REMARK  4 active torsions:
REMARK  status: ('A' for Active; 'I' for Inactive)
REMARK    1  A    between atoms: C1_1  and  C2_2 
REMARK    2  A    between atoms: C2_2  and  C1'_3 
REMARK    3  A    between atoms: C3'_5  and  O3'_6 
REMARK    4  A    between atoms: C6'_9  and  O6'_10 
ROOT
ATOM      1  C1' OMD d          11.982  36.020  34.763  0.00  0.00    -0.012 A 
ATOM      2  C2' OMD d          12.072  36.851  33.651  0.00  0.00     0.047 A 
ATOM      3  C3' OMD d          11.110  36.758  32.673  0.00  0.00     0.066 A 
ATOM      4  C4' OMD d          10.038  35.873  32.731  0.00  0.00     0.039 A 
ATOM      5  C5' OMD d           9.951  35.062  33.831  0.00  0.00     0.040 A 
ATOM      6  C6' OMD d          10.920  35.127  34.811  0.00  0.00     0.072 A 
ENDROOT
BRANCH   1   7
ATOM      7  C2  OMD d          13.018  36.108  35.857  0.00  0.00     0.154 C 
BRANCH   7   8
ATOM      8  C1  OMD d          13.572  37.520  36.101  0.00  0.00     0.177 C 
ATOM      9  O2  OMD d          13.142  38.503  35.493  0.00  0.00    -0.648 OA
ATOM     10  O1  OMD d          14.434  37.703  36.952  0.00  0.00    -0.648 OA
ENDBRANCH   7   8
ENDBRANCH   1   7
BRANCH   6  11
ATOM     11  O6' OMD d          10.766  34.425  35.634  0.00  0.00    -0.360 OA
ATOM     12  H7  OMD d          11.466  34.524  36.268  0.00  0.00     0.217 HD
ENDBRANCH   6  11
BRANCH   3  13
ATOM     13  O3' OMD d          11.065  37.508  31.521  0.00  0.00    -0.361 OA
ATOM     14  H4  OMD d          11.805  38.104  31.503  0.00  0.00     0.217 HD
ENDBRANCH   3  13
TORSDOF 4
