REMARK  5 active torsions:
REMARK  status: ('A' for Active; 'I' for Inactive)
REMARK    1  A    between atoms: C4_18  and  N9_17 
REMARK    2  A    between atoms: N9_17  and  C8_24 
REMARK    3  A    between atoms: C1_21  and  C18_22 
REMARK    4  A    between atoms: C8_24  and  C23_23 
REMARK    5  A    between atoms: C23_23  and  O24_25 
ROOT
ATOM      1  C2  PFQ d          14.311   0.260   9.651  0.00  0.00     0.238 A 
ATOM      2  C10 PFQ d          18.322  -1.700   9.293  0.00  0.00     0.100 A 
ATOM      3  C11 PFQ d          19.647  -1.952   8.949  0.00  0.00    -0.001 A 
ATOM      4  C12 PFQ d          20.324  -3.134   9.243  0.00  0.00     0.014 A 
ATOM      5  C13 PFQ d          21.653  -3.269   8.836  0.00  0.00     0.001 A 
ATOM      6  C14 PFQ d          22.290  -2.242   8.138  0.00  0.00     0.000 A 
ATOM      7  C15 PFQ d          21.614  -1.056   7.847  0.00  0.00     0.001 A 
ATOM      8  C16 PFQ d          20.291  -0.940   8.241  0.00  0.00     0.014 A 
ATOM      9  N1  PFQ d          15.515   0.424   9.127  0.00  0.00    -0.217 NA
ATOM     10  C6  PFQ d          16.465  -0.507   9.298  0.00  0.00     0.186 A 
ATOM     11  O6  PFQ d          17.752  -0.545   8.863  0.00  0.00    -0.289 OA
ATOM     12  C5  PFQ d          16.203  -1.663  10.032  0.00  0.00     0.077 A 
ATOM     13  C4  PFQ d          14.918  -1.799  10.569  0.00  0.00     0.140 A 
ATOM     14  N3  PFQ d          14.020  -0.821  10.351  0.00  0.00    -0.224 NA
ATOM     15  C1  PFQ d          17.379  -2.423  10.034  0.00  0.00     0.027 A 
ENDROOT
BRANCH  15  16
ATOM     16  C18 PFQ d          17.500  -3.666  10.677  0.00  0.00    -0.022 A 
ATOM     17  C19 PFQ d          16.969  -4.812  10.074  0.00  0.00     0.012 A 
ATOM     18  C20 PFQ d          17.035  -6.067  10.685  0.00  0.00     0.001 A 
ATOM     19  C21 PFQ d          17.645  -6.178  11.936  0.00  0.00     0.000 A 
ATOM     20  C22 PFQ d          18.174  -5.027  12.549  0.00  0.00     0.001 A 
ATOM     21  C17 PFQ d          18.103  -3.774  11.932  0.00  0.00     0.012 A 
ENDBRANCH  15  16
BRANCH  13  22
ATOM     22  N9  PFQ d          14.552  -2.861  11.295  0.00  0.00    -0.372 N 
ATOM     23  H11 PFQ d          15.272  -3.490  11.678  0.00  0.00     0.161 HD
BRANCH  22  24
ATOM     24  C8  PFQ d          13.125  -3.139  11.552  0.00  0.00     0.147 C 
BRANCH  24  25
ATOM     25  C23 PFQ d          12.690  -2.501  12.880  0.00  0.00     0.183 C 
BRANCH  25  26
ATOM     26  O24 PFQ d          12.185  -1.180  12.645  0.00  0.00    -0.399 OA
ATOM     27  H17 PFQ d          12.865  -0.648  12.249  0.00  0.00     0.209 HD
ENDBRANCH  25  26
ENDBRANCH  24  25
ENDBRANCH  22  24
ENDBRANCH  13  22
TORSDOF 5
