REMARK  4 active torsions:
REMARK  status: ('A' for Active; 'I' for Inactive)
REMARK    1  A    between atoms: C7_1  and  C4_2 
REMARK    2  A    between atoms: C3_3  and  O21_4 
REMARK    3  A    between atoms: C1_9  and  O20_10 
REMARK    4  A    between atoms: C9_16  and  C14_17 
ROOT
ATOM      1  C7  ZY7 d          30.302  -6.710  62.711  0.00  0.00     0.023 C 
ATOM      2  C8  ZY7 d          30.270  -5.424  62.290  0.00  0.00    -0.028 C 
ATOM      3  C13 ZY7 d          31.043  -4.286  62.896  0.00  0.00     0.042 C 
ATOM      4  C12 ZY7 d          30.017  -3.179  63.127  0.00  0.00     0.026 C 
ATOM      5  C11 ZY7 d          29.534  -2.671  61.777  0.00  0.00     0.150 C 
ATOM      6  N10 ZY7 d          29.069  -3.850  61.052  0.00  0.00    -0.288 NA
ATOM      7  C9  ZY7 d          29.428  -5.057  61.147  0.00  0.00     0.069 C 
ENDROOT
BRANCH   1   8
ATOM      8  C4  ZY7 d          31.057  -7.261  63.882  0.00  0.00    -0.002 A 
ATOM      9  C3  ZY7 d          30.647  -8.595  64.384  0.00  0.00     0.081 A 
ATOM     10  C2  ZY7 d          31.319  -9.136  65.488  0.00  0.00     0.074 A 
ATOM     11  C1  ZY7 d          32.354  -8.432  66.105  0.00  0.00     0.070 A 
ATOM     12  C6  ZY7 d          32.741  -7.175  65.636  0.00  0.00     0.038 A 
ATOM     13  C5  ZY7 d          32.105  -6.611  64.540  0.00  0.00     0.017 A 
BRANCH   9  14
ATOM     14  O21 ZY7 d          29.621  -9.244  63.741  0.00  0.00    -0.355 OA
ATOM     15  C22 ZY7 d          29.190 -10.561  64.111  0.00  0.00     0.210 C 
ENDBRANCH   9  14
BRANCH  11  16
ATOM     16  O20 ZY7 d          32.982  -8.972  67.195  0.00  0.00    -0.356 OA
ATOM     17  C23 ZY7 d          33.553  -8.135  68.202  0.00  0.00     0.210 C 
ENDBRANCH  11  16
ENDBRANCH   1   8
BRANCH   7  18
ATOM     18  C14 ZY7 d          28.998  -5.984  60.043  0.00  0.00     0.010 A 
ATOM     19  C19 ZY7 d          27.653  -6.119  59.762  0.00  0.00     0.130 A 
ATOM     20  N18 ZY7 d          27.181  -6.887  58.776  0.00  0.00    -0.272 NA
ATOM     21  C17 ZY7 d          28.028  -7.560  57.996  0.00  0.00     0.116 A 
ATOM     22  C16 ZY7 d          29.404  -7.449  58.209  0.00  0.00     0.020 A 
ATOM     23  C15 ZY7 d          29.894  -6.655  59.240  0.00  0.00     0.017 A 
ENDBRANCH   7  18
TORSDOF 4
