1tys_ligand

Created by X-TOOL on Fri Sep 26 17:34:11 2014
 34 35  0  0  0  0  0  0  0  0999 V2000
   31.2330  -13.9030   31.1510  P 0  0  0  1  0  4
   32.5300  -13.4540   31.6760  O 0  0  0  1  0  1
   31.2950  -14.2760   29.6830  O 0  0  0  1  0  1
   30.1550  -12.9350   31.3870  O 0  0  0  1  0  1
   30.8500  -15.2290   31.8560  O 0  0  0  1  0  2
   30.6320  -15.4000   33.3100  C 0  0  0  3  0  4
   29.3170  -16.1720   33.4410  C 0  0  0  2  0  4
   29.2020  -16.6020   34.8250  O 0  0  0  1  0  2
   28.0490  -15.3470   33.1710  C 0  0  0  2  0  4
   27.0060  -16.2800   32.9330  O 0  0  0  2  0  2
   27.7970  -14.6490   34.5100  C 0  0  0  3  0  4
   28.4440  -15.5990   35.5210  C 0  0  0  2  0  4
   28.6700  -15.3910   36.9470  N 0  0  0  1  0  3
   27.6420  -15.0620   37.8160  C 0  0  0  1  0  3
   26.4700  -14.9020   37.4600  O 0  0  0  1  0  1
   28.0510  -14.8930   39.1300  N 0  0  0  2  0  3
   29.3570  -15.0120   39.6000  C 0  0  0  1  0  3
   29.6300  -14.7940   40.7770  O 0  0  0  1  0  1
   30.3580  -15.3550   38.6210  C 0  0  0  1  0  3
   31.7710  -15.4700   39.0080  C 0  0  0  4  0  4
   29.9500  -15.5310   37.3060  C 0  0  0  2  0  3
   30.5530  -14.4205   33.8043  H 0  0  0  1  0  1
   31.4587  -15.9711   33.7577  H 0  0  0  1  0  1
   29.3413  -17.0365   32.7613  H 0  0  0  1  0  1
   28.1637  -14.6370   32.3387  H 0  0  0  1  0  1
   26.8962  -16.8325   33.6980  H 0  0  0  1  0  1
   26.7195  -14.5408   34.7028  H 0  0  0  1  0  1
   28.2754  -13.6588   34.5358  H 0  0  0  1  0  1
   27.5390  -16.2023   35.6853  H 0  0  0  1  0  1
   27.3450  -14.6652   39.8006  H 0  0  0  1  0  1
   32.3720  -15.7373   38.1263  H 0  0  0  1  0  1
   31.8786  -16.2507   39.7754  H 0  0  0  1  0  1
   32.1201  -14.5082   39.4118  H 0  0  0  1  0  1
   30.6896  -15.7890   36.5495  H 0  0  0  1  0  1
  1  2  2  0  0  2
  1  3  2  0  0  2
  1  4  2  0  0  2
  1  5  1  0  0  2
  5  6  1  0  0  2
  6  7  1  0  0  2
  7  8  1  0  0  1
  7  9  1  0  0  1
  8 12  1  0  0  1
  9 10  1  0  0  2
  9 11  1  0  0  1
 11 12  1  0  0  1
 12 13  1  0  0  2
 13 14  1  0  0  1
 13 21  1  0  0  1
 14 15  2  0  0  2
 14 16  1  0  0  1
 16 17  1  0  0  1
 17 18  2  0  0  2
 17 19  1  0  0  1
 19 20  1  0  0  2
 19 21  2  0  0  1
  6 22  1  0  0  2
  6 23  1  0  0  2
  7 24  1  0  0  2
  9 25  1  0  0  2
 10 26  1  0  0  2
 11 27  1  0  0  2
 11 28  1  0  0  2
 12 29  1  0  0  2
 16 30  1  0  0  2
 20 31  1  0  0  2
 20 32  1  0  0  2
 20 33  1  0  0  2
 21 34  1  0  0  2
M  END
> <MOLECULAR_FORMULA>
C10H13N2O8P

> <MOLECULAR_WEIGHT>
320.1

> <NUM_HB_ATOMS>
9  

> <NUM_ROTOR>
3  

> <XLOGP2>
-2.30

$$$$
