REMARK  5 active torsions:
REMARK  status: ('A' for Active; 'I' for Inactive)
REMARK    1  A    between atoms: P_1  and  O5_5 
REMARK    2  A    between atoms: O5_5  and  C5_6 
REMARK    3  A    between atoms: C5_6  and  C4_7 
REMARK    4  A    between atoms: C3_9  and  O3_10 
REMARK    5  A    between atoms: C1_12  and  N1_13 
ROOT
ATOM      1  C4  TMP d          29.317 -16.172  33.441  0.00  0.00     0.177 C 
ATOM      2  O4  TMP d          29.202 -16.602  34.825  0.00  0.00    -0.356 OA
ATOM      3  C3  TMP d          28.049 -15.347  33.171  0.00  0.00     0.153 C 
ATOM      4  C2  TMP d          27.797 -14.649  34.510  0.00  0.00     0.088 C 
ATOM      5  C1  TMP d          28.444 -15.599  35.521  0.00  0.00     0.235 C 
ENDROOT
BRANCH   5   6
ATOM      6  N1  TMP d          28.670 -15.391  36.947  0.00  0.00    -0.282 N 
ATOM      7  C2  TMP d          27.642 -15.062  37.816  0.00  0.00     0.331 A 
ATOM      8  O2  TMP d          26.470 -14.902  37.460  0.00  0.00    -0.246 OA
ATOM      9  N3  TMP d          28.051 -14.893  39.130  0.00  0.00    -0.275 N 
ATOM     10  C4  TMP d          29.357 -15.012  39.600  0.00  0.00     0.256 A 
ATOM     11  H9  TMP d          27.345 -14.665  39.801  0.00  0.00     0.173 HD
ATOM     12  O4  TMP d          29.630 -14.794  40.777  0.00  0.00    -0.267 OA
ATOM     13  C5  TMP d          30.358 -15.355  38.621  0.00  0.00     0.022 A 
ATOM     14  C5M TMP d          31.771 -15.470  39.008  0.00  0.00     0.056 C 
ATOM     15  C6  TMP d          29.950 -15.531  37.306  0.00  0.00     0.110 A 
ENDBRANCH   5   6
BRANCH   1  16
ATOM     16  C5  TMP d          30.632 -15.400  33.310  0.00  0.00     0.217 C 
BRANCH  16  17
ATOM     17  O5  TMP d          30.850 -15.229  31.856  0.00  0.00    -0.280 OA
BRANCH  17  18
ATOM     18  P   TMP d          31.233 -13.903  31.151  0.00  0.00     0.422 P 
ATOM     19  O1P TMP d          32.530 -13.454  31.676  0.00  0.00    -0.617 OA
ATOM     20  O2P TMP d          31.295 -14.276  29.683  0.00  0.00    -0.617 OA
ATOM     21  O3P TMP d          30.155 -12.935  31.387  0.00  0.00    -0.617 OA
ENDBRANCH  17  18
ENDBRANCH  16  17
ENDBRANCH   1  16
BRANCH   3  22
ATOM     22  O3  TMP d          27.006 -16.280  32.933  0.00  0.00    -0.393 OA
ATOM     23  H5  TMP d          26.896 -16.832  33.698  0.00  0.00     0.210 HD
ENDBRANCH   3  22
TORSDOF 5
