REMARK  8 active torsions:
REMARK  status: ('A' for Active; 'I' for Inactive)
REMARK    1  A    between atoms: C3'_6  and  O3'_5 
REMARK    2  A    between atoms: C4'_7  and  C5'_8 
REMARK    3  A    between atoms: C5'_8  and  S5'_9 
REMARK    4  A    between atoms: S5'_9  and  C20_10 
REMARK    5  A    between atoms: C20_10  and  C21_11 
REMARK    6  A    between atoms: C21_11  and  C22_12 
REMARK    7  A    between atoms: C10_17  and  N1'_15 
REMARK    8  A    between atoms: C10_17  and  C9_22 
ROOT
ATOM      1  C3' BIG d         -34.016  -0.593   7.813  0.00  0.00     0.150 C 
ATOM      2  C4' BIG d         -35.050  -0.282   6.757  0.00  0.00     0.051 C 
ATOM      3  C1' BIG d         -36.345  -0.862   7.334  0.00  0.00     0.243 C 
ATOM      4  N1' BIG d         -35.979  -1.599   8.551  0.00  0.00    -0.064 N 
ATOM      5  C2' BIG d         -34.531  -1.875   8.454  0.00  0.00     0.267 C 
ATOM      6  H19 BIG d         -36.096  -0.960   9.321  0.00  0.00     0.280 HD
ENDROOT
BRANCH   4   7
ATOM      7  C10 BIG d         -36.841  -2.742   8.881  0.00  0.00     0.277 C 
BRANCH   7   8
ATOM      8  C9  BIG d         -37.060  -3.782   7.800  0.00  0.00     0.014 A 
ATOM      9  C4  BIG d         -36.145  -4.793   7.217  0.00  0.00     0.098 A 
ATOM     10  C5  BIG d         -36.927  -5.514   6.227  0.00  0.00     0.107 A 
ATOM     11  N3  BIG d         -34.865  -5.121   7.496  0.00  0.00    -0.239 NA
ATOM     12  N7  BIG d         -38.154  -4.961   6.204  0.00  0.00    -0.360 N 
ATOM     13  C6  BIG d         -36.268  -6.605   5.526  0.00  0.00     0.151 A 
ATOM     14  C8  BIG d         -38.239  -3.955   7.105  0.00  0.00     0.099 A 
ATOM     15  H24 BIG d         -38.922  -5.262   5.586  0.00  0.00     0.165 HD
ATOM     16  N6  BIG d         -36.957  -7.287   4.572  0.00  0.00    -0.382 N 
ATOM     17  N1  BIG d         -34.951  -6.855   5.834  0.00  0.00    -0.223 NA
ATOM     18  H25 BIG d         -36.506  -8.062   4.066  0.00  0.00     0.157 HD
ATOM     19  H26 BIG d         -37.930  -7.028   4.356  0.00  0.00     0.157 HD
ATOM     20  C2  BIG d         -34.301  -6.145   6.796  0.00  0.00     0.236 A 
ENDBRANCH   7   8
ENDBRANCH   4   7
BRANCH   2  21
ATOM     21  C5' BIG d         -34.777  -0.971   5.426  0.00  0.00     0.082 C 
BRANCH  21  22
ATOM     22  S5' BIG d         -33.445  -0.324   4.457  0.00  0.00    -0.169 SA
BRANCH  22  23
ATOM     23  C20 BIG d         -34.367   0.833   3.468  0.00  0.00     0.073 C 
BRANCH  23  24
ATOM     24  C21 BIG d         -33.476   1.522   2.438  0.00  0.00     0.010 C 
BRANCH  24  25
ATOM     25  C22 BIG d         -33.978   2.917   2.023  0.00  0.00    -0.004 C 
ATOM     26  C23 BIG d         -35.326   2.858   1.378  0.00  0.00     0.005 C 
ENDBRANCH  24  25
ENDBRANCH  23  24
ENDBRANCH  22  23
ENDBRANCH  21  22
ENDBRANCH   2  21
BRANCH   1  27
ATOM     27  O3' BIG d         -33.922   0.506   8.714  0.00  0.00    -0.393 OA
ATOM     28  H3  BIG d         -33.272   0.314   9.380  0.00  0.00     0.210 HD
ENDBRANCH   1  27
TORSDOF 8
