REMARK  5 active torsions:
REMARK  status: ('A' for Active; 'I' for Inactive)
REMARK    1  A    between atoms: CAM_2  and  CAJ_4 
REMARK    2  A    between atoms: CAJ_4  and  CAH_5 
REMARK    3  A    between atoms: CAH_5  and  CAI_6 
REMARK    4  A    between atoms: CAI_6  and  CAK_7 
REMARK    5  A    between atoms: CAK_7  and  N1_8 
ROOT
ATOM      1  N1  PNX d          -1.690   7.791  18.298  0.00  0.00    -0.264 N 
ATOM      2  C6  PNX d          -2.883   7.886  19.053  0.00  0.00     0.282 A 
ATOM      3  O6  PNX d          -3.763   8.667  18.689  0.00  0.00    -0.265 OA
ATOM      4  C5  PNX d          -3.017   7.079  20.212  0.00  0.00     0.151 A 
ATOM      5  N7  PNX d          -4.013   6.929  21.102  0.00  0.00    -0.338 N 
ATOM      6  CAB PNX d          -5.304   7.676  21.050  0.00  0.00     0.157 C 
ATOM      7  C8  PNX d          -3.656   6.010  22.018  0.00  0.00     0.212 A 
ATOM      8  N9  PNX d          -2.416   5.550  21.721  0.00  0.00    -0.223 NA
ATOM      9  C4  PNX d          -1.996   6.184  20.611  0.00  0.00     0.167 A 
ATOM     10  N3  PNX d          -0.792   6.100  19.881  0.00  0.00    -0.286 N 
ATOM     11  CAC PNX d           0.336   5.165  20.271  0.00  0.00     0.163 C 
ATOM     12  C2  PNX d          -0.644   6.913  18.767  0.00  0.00     0.333 A 
ATOM     13  O2  PNX d           0.402   6.818  18.143  0.00  0.00    -0.246 OA
ENDROOT
BRANCH   1  14
ATOM     14  CAK PNX d          -1.491   8.674  17.068  0.00  0.00     0.137 C 
BRANCH  14  15
ATOM     15  CAI PNX d          -0.811  10.026  17.515  0.00  0.00     0.021 C 
BRANCH  15  16
ATOM     16  CAH PNX d          -0.891  11.175  16.457  0.00  0.00     0.009 C 
BRANCH  16  17
ATOM     17  CAJ PNX d          -0.397  10.589  15.123  0.00  0.00     0.078 C 
BRANCH  17  18
ATOM     18  CAM PNX d          -0.281  11.697  14.021  0.00  0.00     0.123 C 
ATOM     19  CAA PNX d           0.008  11.307  12.593  0.00  0.00     0.091 C 
ATOM     20  OAD PNX d          -0.463  12.880  14.294  0.00  0.00    -0.298 OA
ENDBRANCH  17  18
ENDBRANCH  16  17
ENDBRANCH  15  16
ENDBRANCH  14  15
ENDBRANCH   1  14
TORSDOF 5
