REMARK  1 active torsions:
REMARK  status: ('A' for Active; 'I' for Inactive)
REMARK    1  A    between atoms: CAI_10  and  NAA_11 
ROOT
ATOM      1  CAG MOL d          12.324  -4.969   0.735  0.00  0.00     0.271 C 
ATOM      2  NAH MOL d          11.402  -5.596   1.734  0.00  0.00    -0.071 N 
ATOM      3  CAE MOL d          10.382  -6.389   1.026  0.00  0.00     0.237 C 
ATOM      4  CAF MOL d           9.519  -5.486   0.149  0.00  0.00     0.069 C 
ATOM      5  CAK MOL d          10.315  -4.647  -0.708  0.00  0.00    -0.022 A 
ATOM      6  CAJ MOL d          11.671  -4.378  -0.403  0.00  0.00    -0.024 A 
ATOM      7  CAD MOL d          12.380  -3.528  -1.274  0.00  0.00     0.009 A 
ATOM      8  CAB MOL d          11.776  -2.949  -2.401  0.00  0.00     0.003 A 
ATOM      9  CAC MOL d          10.412  -3.190  -2.686  0.00  0.00     0.029 A 
ATOM     10  CAI MOL d           9.717  -4.043  -1.833  0.00  0.00     0.032 A 
ATOM     11  H   MOL d          10.952  -4.875   2.275  0.00  0.00     0.277 HD
ATOM     12  H   MOL d          11.929  -6.197   2.348  0.00  0.00     0.277 HD
ENDROOT
BRANCH  10  13
ATOM     13  NAA MOL d           8.387  -4.315  -2.083  0.00  0.00    -0.399 N 
ATOM     14  H   MOL d           7.864  -4.945  -1.458  0.00  0.00     0.156 HD
ATOM     15  H   MOL d           7.918  -3.888  -2.894  0.00  0.00     0.156 HD
ENDBRANCH  10  13
TORSDOF 1
