REMARK  12 active torsions:
REMARK  status: ('A' for Active; 'I' for Inactive)
REMARK    1  A    between atoms: N7_7  and  C18_18 
REMARK    2  A    between atoms: C8_8  and  C11_11 
REMARK       I    between atoms: C11_11  and  N12_12 
REMARK    3  A    between atoms: N12_12  and  C13_13 
REMARK    4  A    between atoms: C18_18  and  C19_19 
REMARK    5  A    between atoms: C19_19  and  C20_20 
REMARK    6  A    between atoms: C19_19  and  O21_21 
REMARK    7  A    between atoms: C20_20  and  N22_22 
REMARK    8  A    between atoms: C20_20  and  C23_23 
REMARK       I    between atoms: N22_22  and  C24_24 
REMARK    9  A    between atoms: C23_23  and  S74_34 
REMARK   10  A    between atoms: C24_24  and  C29_26 
REMARK   11  A    between atoms: C33_30  and  O38_32 
REMARK   12  A    between atoms: S74_34  and  C77_35 
ROOT
ATOM      1  C19 MOL d         -10.034  16.872  26.902  0.00  0.00     0.167 C 
ENDROOT
BRANCH   1   2
ATOM      2  C18 MOL d         -10.660  16.499  28.241  0.00  0.00     0.269 C 
BRANCH   2   3
ATOM      3  N7  MOL d         -11.004  15.071  28.251  0.00  0.00    -0.055 N 
ATOM      4  C8  MOL d         -10.976  14.552  29.647  0.00  0.00     0.279 C 
ATOM      5  C9  MOL d         -11.455  13.099  29.734  0.00  0.00     0.048 C 
ATOM      6  C2  MOL d         -12.740  12.818  28.943  0.00  0.00    -0.006 C 
ATOM      7  C1  MOL d         -12.712  13.414  27.527  0.00  0.00     0.016 C 
ATOM      8  C3  MOL d         -13.009  11.307  28.918  0.00  0.00     0.005 C 
ATOM      9  C6  MOL d         -11.776  12.650  26.579  0.00  0.00     0.007 C 
ATOM     10  C10 MOL d         -12.317  14.888  27.584  0.00  0.00     0.241 C 
ATOM     11  C5  MOL d         -12.055  11.150  26.574  0.00  0.00     0.000 C 
ATOM     12  C4  MOL d         -12.040  10.567  27.987  0.00  0.00     0.000 C 
ATOM     13  H11 MOL d         -10.311  14.567  27.720  0.00  0.00     0.281 HD
BRANCH   4  14
ATOM     14  C11 MOL d          -9.590  14.600  30.248  0.00  0.00     0.249 C 
ATOM     15  N12 MOL d          -9.567  14.817  31.570  0.00  0.00    -0.351 N 
ATOM     16  H17 MOL d         -10.450  14.823  32.038  0.00  0.00     0.163 HD
ATOM     17  O17 MOL d          -8.591  14.438  29.553  0.00  0.00    -0.271 OA
BRANCH  15  18
ATOM     18  C13 MOL d          -8.391  15.044  32.394  0.00  0.00     0.022 C 
ATOM     19  C14 MOL d          -7.557  16.210  31.869  0.00  0.00     0.037 C 
ATOM     20  C15 MOL d          -7.578  13.757  32.442  0.00  0.00     0.037 C 
ATOM     21  C16 MOL d          -8.865  15.386  33.801  0.00  0.00     0.037 C 
ENDBRANCH  15  18
ENDBRANCH   4  14
ENDBRANCH   2   3
ENDBRANCH   1   2
BRANCH   1  22
ATOM     22  C20 MOL d          -8.571  16.460  26.781  0.00  0.00     0.124 C 
BRANCH  22  23
ATOM     23  N22 MOL d          -8.167  16.661  25.400  0.00  0.00    -0.349 N 
ATOM     24  C24 MOL d          -7.775  15.687  24.570  0.00  0.00     0.252 C 
ATOM     25  O25 MOL d          -7.699  14.508  24.893  0.00  0.00    -0.268 OA
ATOM     26  H32 MOL d          -8.183  17.595  25.044  0.00  0.00     0.163 HD
BRANCH  24  27
ATOM     27  C29 MOL d          -7.434  16.092  23.161  0.00  0.00     0.040 A 
ATOM     28  C30 MOL d          -6.378  16.978  22.905  0.00  0.00     0.018 A 
ATOM     29  C31 MOL d          -6.057  17.378  21.607  0.00  0.00     0.004 A 
ATOM     30  C32 MOL d          -6.777  16.913  20.505  0.00  0.00     0.037 A 
ATOM     31  C33 MOL d          -7.851  16.031  20.658  0.00  0.00     0.072 A 
ATOM     32  C34 MOL d          -8.234  15.574  22.015  0.00  0.00    -0.013 A 
ATOM     33  C39 MOL d          -9.397  14.623  22.202  0.00  0.00     0.052 C 
BRANCH  31  34
ATOM     34  O38 MOL d          -8.552  15.574  19.586  0.00  0.00    -0.360 OA
ATOM     35  H38 MOL d          -8.194  15.951  18.791  0.00  0.00     0.217 HD
ENDBRANCH  31  34
ENDBRANCH  24  27
ENDBRANCH  22  23
BRANCH  22  36
ATOM     36  C23 MOL d          -7.656  17.232  27.732  0.00  0.00     0.107 C 
BRANCH  36  37
ATOM     37  S74 MOL d          -6.089  16.437  27.879  0.00  0.00    -0.128 SA
BRANCH  37  38
ATOM     38  C77 MOL d          -5.062  17.158  26.725  0.00  0.00     0.000 A 
ATOM     39  C78 MOL d          -3.885  16.506  26.340  0.00  0.00     0.018 A 
ATOM     40  C79 MOL d          -3.040  17.092  25.393  0.00  0.00     0.001 A 
ATOM     41  C80 MOL d          -3.363  18.326  24.829  0.00  0.00     0.000 A 
ATOM     42  C81 MOL d          -4.534  18.983  25.209  0.00  0.00     0.001 A 
ATOM     43  C82 MOL d          -5.380  18.400  26.154  0.00  0.00     0.018 A 
ENDBRANCH  37  38
ENDBRANCH  36  37
ENDBRANCH  22  36
ENDBRANCH   1  22
BRANCH   1  44
ATOM     44  O21 MOL d         -10.175  18.281  26.686  0.00  0.00    -0.392 OA
ATOM     45  H31 MOL d         -11.091  18.522  26.765  0.00  0.00     0.210 HD
ENDBRANCH   1  44
TORSDOF 12
