REMARK  12 active torsions:
REMARK  status: ('A' for Active; 'I' for Inactive)
REMARK    1  A    between atoms: C6_36  and  N6_4 
REMARK    2  A    between atoms: CAK_15  and  CBH_14 
REMARK    3  A    between atoms: CAI_16  and  CAK_15 
REMARK    4  A    between atoms: CAH_17  and  CAI_16 
REMARK    5  A    between atoms: CAJ_18  and  CAH_17 
REMARK    6  A    between atoms: CAZ_19  and  CAJ_18 
REMARK       I    between atoms: NAV_21  and  CAZ_19 
REMARK    7  A    between atoms: SBK_22  and  NAV_21 
REMARK    8  A    between atoms: NAW_25  and  SBK_22 
REMARK    9  A    between atoms: CAN_26  and  NAW_25 
REMARK   10  A    between atoms: CBE_27  and  CAN_26 
REMARK   11  A    between atoms: CAM_30  and  O1_37 
REMARK   12  A    between atoms: CBG_31  and  N9_32 
ROOT
ATOM      1  SBK MOL d          -3.952  -4.956   6.340  0.00  0.00     0.321 S 
ATOM      2  OAD MOL d          -5.155  -5.440   5.723  0.00  0.00    -0.182 OA
ATOM      3  OAE MOL d          -2.910  -4.924   5.351  0.00  0.00    -0.182 OA
ENDROOT
BRANCH   1   4
ATOM      4  NAV MOL d          -3.538  -5.915   7.556  0.00  0.00    -0.237 N 
ATOM      5  CAZ MOL d          -4.460  -6.394   8.392  0.00  0.00     0.232 C 
ATOM      6  OAB MOL d          -5.572  -5.906   8.505  0.00  0.00    -0.273 OA
ATOM      7  H20 MOL d          -2.577  -6.157   7.689  0.00  0.00     0.183 HD
BRANCH   5   8
ATOM      8  CAJ MOL d          -4.070  -7.600   9.221  0.00  0.00     0.104 C 
BRANCH   8   9
ATOM      9  CAH MOL d          -3.710  -7.162  10.637  0.00  0.00     0.009 C 
BRANCH   9  10
ATOM     10  CAI MOL d          -3.510  -8.354  11.569  0.00  0.00     0.002 C 
BRANCH  10  11
ATOM     11  CAK MOL d          -3.225  -7.913  13.003  0.00  0.00     0.017 C 
BRANCH  11  12
ATOM     12  CBH MOL d          -3.322  -9.108  13.945  0.00  0.00     0.072 C 
ATOM     13  CBI MOL d          -2.096 -10.015  13.873  0.00  0.00     0.123 C 
ATOM     14  NAU MOL d          -0.902  -9.294  13.472  0.00  0.00    -0.335 N 
ATOM     15  CBF MOL d          -1.700 -10.556  15.247  0.00  0.00     0.119 C 
ATOM     16  CBA MOL d           0.073  -9.424  14.367  0.00  0.00     0.316 C 
ATOM     17  H6  MOL d          -0.822  -8.765  12.627  0.00  0.00     0.164 HD
ATOM     18  OAC MOL d           1.145  -8.843  14.330  0.00  0.00    -0.247 OA
ATOM     19  NAT MOL d          -0.289 -10.258  15.331  0.00  0.00    -0.336 N 
ATOM     20  H7  MOL d           0.330 -10.630  16.022  0.00  0.00     0.164 HD
ATOM     21  CAO MOL d          -2.393  -9.822  16.384  0.00  0.00     0.101 C 
ATOM     22  SAY MOL d          -3.443  -8.631  15.635  0.00  0.00    -0.160 SA
ENDBRANCH  11  12
ENDBRANCH  10  11
ENDBRANCH   9  10
ENDBRANCH   8   9
ENDBRANCH   5   8
ENDBRANCH   1   4
BRANCH   1  23
ATOM     23  NAW MOL d          -4.216  -3.461   6.841  0.00  0.00    -0.300 N 
ATOM     24  H21 MOL d          -4.951  -2.933   6.417  0.00  0.00     0.173 HD
BRANCH  23  25
ATOM     25  CAN MOL d          -3.427  -2.845   7.889  0.00  0.00     0.165 C 
BRANCH  25  26
ATOM     26  CBE MOL d          -3.702  -1.349   7.822  0.00  0.00     0.145 C 
ATOM     27  OAX MOL d          -4.844  -1.010   8.615  0.00  0.00    -0.357 OA
ATOM     28  CBG MOL d          -4.594   0.169   9.387  0.00  0.00     0.259 C 
ATOM     29  CAM MOL d          -3.204   0.664   9.016  0.00  0.00     0.169 C 
ATOM     30  CAL MOL d          -2.536  -0.531   8.359  0.00  0.00     0.070 C 
BRANCH  28  31
ATOM     31  N9  MOL d          -4.672  -0.154  10.832  0.00  0.00    -0.294 N 
ATOM     32  C4  MOL d          -5.799  -0.433  11.490  0.00  0.00     0.167 A 
ATOM     33  C5  MOL d          -5.465  -0.678  12.809  0.00  0.00     0.149 A 
ATOM     34  N3  MOL d          -7.093  -0.504  11.099  0.00  0.00    -0.222 NA
ATOM     35  N7  MOL d          -4.127  -0.540  12.920  0.00  0.00    -0.236 NA
ATOM     36  C6  MOL d          -6.473  -0.994  13.709  0.00  0.00     0.155 A 
ATOM     37  C8  MOL d          -3.649  -0.217  11.697  0.00  0.00     0.214 A 
ATOM     38  N1  MOL d          -7.750  -1.054  13.272  0.00  0.00    -0.222 NA
ATOM     39  C2  MOL d          -8.047  -0.814  11.987  0.00  0.00     0.237 A 
BRANCH  36  40
ATOM     40  N6  MOL d          -6.185  -1.242  15.009  0.00  0.00    -0.382 N 
ATOM     41  H2  MOL d          -6.941  -1.476  15.668  0.00  0.00     0.157 HD
ATOM     42  H3  MOL d          -5.210  -1.197  15.338  0.00  0.00     0.157 HD
ENDBRANCH  36  40
ENDBRANCH  28  31
BRANCH  29  43
ATOM     43  O1  MOL d          -3.343   1.709   8.045  0.00  0.00    -0.391 OA
ATOM     44  H29 MOL d          -3.854   2.419   8.416  0.00  0.00     0.210 HD
ENDBRANCH  29  43
ENDBRANCH  25  26
ENDBRANCH  23  25
ENDBRANCH   1  23
TORSDOF 12
