REMARK  9 active torsions:
REMARK  status: ('A' for Active; 'I' for Inactive)
REMARK    1  A    between atoms: O3A_8  and  PB_1 
REMARK    2  A    between atoms: PA_5  and  O3A_8 
REMARK    3  A    between atoms: PA_5  and  O5'_9 
REMARK    4  A    between atoms: O5'_9  and  C5'_10 
REMARK    5  A    between atoms: C5'_10  and  C4'_11 
REMARK    6  A    between atoms: C3'_13  and  O3'_14 
REMARK    7  A    between atoms: C2'_15  and  O2'_16 
REMARK    8  A    between atoms: C1'_17  and  N9_18 
REMARK    9  A    between atoms: C6_22  and  N6_23 
ROOT
ATOM      1  C4' ADP d         -17.306   5.084  27.765  0.00  0.00     0.180 C 
ATOM      2  O4' ADP d         -16.077   5.649  27.280  0.00  0.00    -0.353 OA
ATOM      3  C3' ADP d         -18.091   6.285  28.320  0.00  0.00     0.182 C 
ATOM      4  C2' ADP d         -16.952   7.127  28.920  0.00  0.00     0.198 C 
ATOM      5  C1' ADP d         -15.706   6.792  28.078  0.00  0.00     0.262 C 
ENDROOT
BRANCH   5   6
ATOM      6  N9  ADP d         -15.507   7.882  27.138  0.00  0.00    -0.294 N 
ATOM      7  C8  ADP d         -15.896   7.851  25.844  0.00  0.00     0.214 A 
ATOM      8  N7  ADP d         -15.548   8.999  25.273  0.00  0.00    -0.236 NA
ATOM      9  C5  ADP d         -15.002   9.781  26.232  0.00  0.00     0.149 A 
ATOM     10  C6  ADP d         -14.456  11.119  26.287  0.00  0.00     0.155 A 
ATOM     11  C4  ADP d         -14.962   9.032  27.462  0.00  0.00     0.167 A 
ATOM     12  N1  ADP d         -13.955  11.532  27.467  0.00  0.00    -0.222 NA
ATOM     13  C2  ADP d         -13.962  10.793  28.577  0.00  0.00     0.237 A 
ATOM     14  N3  ADP d         -14.434   9.558  28.616  0.00  0.00    -0.222 NA
BRANCH  10  15
ATOM     15  N6  ADP d         -14.464  11.925  25.159  0.00  0.00    -0.382 N 
ATOM     16  H10 ADP d         -14.074  12.877  25.204  0.00  0.00     0.157 HD
ATOM     17  H11 ADP d         -14.860  11.572  24.276  0.00  0.00     0.157 HD
ENDBRANCH  10  15
ENDBRANCH   5   6
BRANCH   4  18
ATOM     18  O2' ADP d         -16.677   6.546  30.185  0.00  0.00    -0.388 OA
ATOM     19  H7  ADP d         -17.458   6.582  30.725  0.00  0.00     0.210 HD
ENDBRANCH   4  18
BRANCH   1  20
ATOM     20  C5' ADP d         -18.064   4.296  26.671  0.00  0.00     0.216 C 
BRANCH  20  21
ATOM     21  O5' ADP d         -18.473   5.131  25.579  0.00  0.00    -0.287 OA
BRANCH  21  22
ATOM     22  PA  ADP d         -19.560   4.526  24.623  0.00  0.00     0.418 P 
ATOM     23  O1A ADP d         -19.782   5.663  23.715  0.00  0.00    -0.624 OA
ATOM     24  O2A ADP d         -18.973   3.165  24.171  0.00  0.00    -0.624 OA
BRANCH  22  25
ATOM     25  O3A ADP d         -20.796   4.177  25.637  0.00  0.00    -0.173 OA
BRANCH  25  26
ATOM     26  PB  ADP d         -21.673   5.281  26.514  0.00  0.00     0.431 P 
ATOM     27  O1B ADP d         -21.093   5.284  27.914  0.00  0.00    -0.616 OA
ATOM     28  O2B ADP d         -23.138   4.792  26.416  0.00  0.00    -0.616 OA
ATOM     29  O3B ADP d         -21.570   6.546  25.829  0.00  0.00    -0.616 OA
ENDBRANCH  25  26
ENDBRANCH  22  25
ENDBRANCH  21  22
ENDBRANCH  20  21
ENDBRANCH   1  20
BRANCH   3  30
ATOM     30  O3' ADP d         -19.084   5.849  29.300  0.00  0.00    -0.390 OA
ATOM     31  H5  ADP d         -19.694   5.249  28.886  0.00  0.00     0.210 HD
ENDBRANCH   3  30
TORSDOF 9
