REMARK  2 active torsions:
REMARK  status: ('A' for Active; 'I' for Inactive)
REMARK    1  A    between atoms: N8_3  and  C12_4 
REMARK    2  A    between atoms: C12_4  and  C14_5 
ROOT
ATOM      1  O10 GF1 d          -3.135  40.537  23.978  0.00  0.00    -0.272 OA
ATOM      2  C7  GF1 d          -1.970  40.611  24.331  0.00  0.00     0.232 A 
ATOM      3  N8  GF1 d          -0.901  40.091  23.699  0.00  0.00    -0.273 N 
ATOM      4  C2  GF1 d          -1.543  41.292  25.603  0.00  0.00     0.096 A 
ATOM      5  C3  GF1 d          -0.025  41.099  25.630  0.00  0.00     0.096 A 
ATOM      6  C9  GF1 d           0.241  40.324  24.368  0.00  0.00     0.232 A 
ATOM      7  O11 GF1 d           1.363  39.955  24.037  0.00  0.00    -0.272 OA
ATOM      8  C1  GF1 d          -1.677  42.819  25.634  0.00  0.00    -0.000 C 
ATOM      9  C6  GF1 d          -1.213  43.477  24.333  0.00  0.00     0.006 C 
ATOM     10  C5  GF1 d           0.313  43.286  24.382  0.00  0.00     0.006 C 
ATOM     11  C17 GF1 d          -0.519  43.202  26.541  0.00  0.00     0.011 C 
ATOM     12  C4  GF1 d           0.530  42.527  25.685  0.00  0.00    -0.000 C 
ENDROOT
BRANCH   3  13
ATOM     13  C12 GF1 d          -0.938  39.322  22.444  0.00  0.00     0.192 C 
ATOM     14  C13 GF1 d          -1.381  40.167  21.242  0.00  0.00     0.044 C 
BRANCH  13  15
ATOM     15  C14 GF1 d          -1.761  38.056  22.557  0.00  0.00     0.197 C 
ATOM     16  O16 GF1 d          -1.791  37.439  23.660  0.00  0.00    -0.646 OA
ATOM     17  O15 GF1 d          -2.377  37.662  21.540  0.00  0.00    -0.646 OA
ENDBRANCH  13  15
ENDBRANCH   3  13
TORSDOF 2
