REMARK  3 active torsions:
REMARK  status: ('A' for Active; 'I' for Inactive)
REMARK    1  A    between atoms: C11_2  and  O1_3 
REMARK    2  A    between atoms: O1_3  and  C2_4 
REMARK    3  A    between atoms: C3_10  and  C8_11 
ROOT
ATOM      1  C2  M3S d          35.726  40.714  -3.269  0.00  0.00     0.102 A 
ATOM      2  C7  M3S d          35.810  39.546  -2.489  0.00  0.00    -0.027 A 
ATOM      3  C1  M3S d          35.836  39.672  -0.966  0.00  0.00     0.051 C 
ATOM      4  C6  M3S d          35.866  38.306  -3.130  0.00  0.00     0.009 A 
ATOM      5  C5  M3S d          35.845  38.230  -4.527  0.00  0.00     0.002 A 
ATOM      6  C4  M3S d          35.762  39.399  -5.305  0.00  0.00     0.021 A 
ATOM      7  C3  M3S d          35.702  40.637  -4.657  0.00  0.00     0.075 A 
ENDROOT
BRANCH   1   8
ATOM      8  O1  M3S d          35.671  41.904  -2.574  0.00  0.00    -0.278 OA
BRANCH   8   9
ATOM      9  C11 M3S d          36.750  42.709  -2.595  0.00  0.00     0.260 C 
ATOM     10  O12 M3S d          37.651  42.406  -3.372  0.00  0.00    -0.265 OA
ATOM     11  C13 M3S d          36.708  43.922  -1.715  0.00  0.00     0.126 C 
ENDBRANCH   8   9
ENDBRANCH   1   8
BRANCH   7  12
ATOM     12  C8  M3S d          35.612  41.930  -5.563  0.00  0.00     0.212 C 
ATOM     13  O10 M3S d          34.835  42.884  -5.113  0.00  0.00    -0.644 OA
ATOM     14  O9  M3S d          36.363  41.894  -6.615  0.00  0.00    -0.644 OA
ENDBRANCH   7  12
TORSDOF 3
