REMARK  8 active torsions:
REMARK  status: ('A' for Active; 'I' for Inactive)
REMARK    1  A    between atoms: C23_7  and  O4_1 
REMARK    2  A    between atoms: C30_14  and  O6_4 
REMARK    3  A    between atoms: O6_4  and  C1_17 
REMARK    4  A    between atoms: C2_18  and  O2_23 
REMARK    5  A    between atoms: C3_19  and  O3_24 
REMARK    6  A    between atoms: C4_20  and  O4_25 
REMARK    7  A    between atoms: C5_21  and  C6_22 
REMARK    8  A    between atoms: C6_22  and  O6_27 
ROOT
ATOM      1  O5  04G d          16.926  17.536  35.184  0.00  0.00    -0.306 OA
ATOM      2  N6  04G d          14.943  18.074  37.051  0.00  0.00    -0.352 N 
ATOM      3  C21 04G d          15.629  20.447  37.061  0.00  0.00     0.035 A 
ATOM      4  C22 04G d          16.468  21.465  36.592  0.00  0.00     0.039 A 
ATOM      5  C23 04G d          17.462  21.170  35.648  0.00  0.00     0.068 A 
ATOM      6  C24 04G d          17.615  19.861  35.177  0.00  0.00     0.076 A 
ATOM      7  C25 04G d          16.758  18.818  35.656  0.00  0.00     0.105 A 
ATOM      8  C26 04G d          15.789  19.112  36.581  0.00  0.00     0.067 A 
ATOM      9  C27 04G d          15.129  16.754  36.546  0.00  0.00     0.067 A 
ATOM     10  C28 04G d          16.116  16.514  35.628  0.00  0.00     0.105 A 
ATOM     11  C29 04G d          16.311  15.186  35.114  0.00  0.00     0.076 A 
ATOM     12  C30 04G d          15.482  14.148  35.570  0.00  0.00     0.075 A 
ATOM     13  C31 04G d          14.474  14.399  36.512  0.00  0.00     0.039 A 
ATOM     14  C32 04G d          14.289  15.694  37.007  0.00  0.00     0.035 A 
ATOM     15  H2  04G d          14.208  18.271  37.745  0.00  0.00     0.166 HD
ENDROOT
BRANCH  12  16
ATOM     16  O6  04G d          15.615  12.850  35.101  0.00  0.00    -0.318 OA
BRANCH  16  17
ATOM     17  C1  04G d          16.822  12.573  34.568  0.00  0.00     0.298 C 
ATOM     18  C2  04G d          16.971  11.089  34.593  0.00  0.00     0.205 C 
ATOM     19  C3  04G d          18.152  10.643  33.920  0.00  0.00     0.183 C 
ATOM     20  C4  04G d          18.246  11.160  32.549  0.00  0.00     0.180 C 
ATOM     21  C5  04G d          18.057  12.664  32.523  0.00  0.00     0.179 C 
ATOM     22  O5  04G d          16.873  13.057  33.171  0.00  0.00    -0.348 OA
BRANCH  18  23
ATOM     23  O2  04G d          16.984  10.658  35.975  0.00  0.00    -0.388 OA
ATOM     24  H16 04G d          16.195  10.961  36.408  0.00  0.00     0.210 HD
ENDBRANCH  18  23
BRANCH  19  25
ATOM     25  O3  04G d          18.168   9.182  33.912  0.00  0.00    -0.390 OA
ATOM     26  H17 04G d          17.430   8.861  33.407  0.00  0.00     0.210 HD
ENDBRANCH  19  25
BRANCH  20  27
ATOM     27  O4  04G d          17.261  10.552  31.748  0.00  0.00    -0.390 OA
ATOM     28  H18 04G d          17.379   9.610  31.764  0.00  0.00     0.210 HD
ENDBRANCH  20  27
BRANCH  21  29
ATOM     29  C6  04G d          18.012  13.172  31.116  0.00  0.00     0.198 C 
BRANCH  29  30
ATOM     30  O6  04G d          17.922  14.546  30.991  0.00  0.00    -0.398 OA
ATOM     31  H19 04G d          17.128  14.850  31.415  0.00  0.00     0.209 HD
ENDBRANCH  29  30
ENDBRANCH  21  29
ENDBRANCH  16  17
ENDBRANCH  12  16
BRANCH   5  32
ATOM     32  O4  04G d          18.289  22.174  35.189  0.00  0.00    -0.361 OA
ATOM     33  H1  04G d          18.903  21.814  34.560  0.00  0.00     0.217 HD
ENDBRANCH   5  32
TORSDOF 8
