REMARK  4 active torsions:
REMARK  status: ('A' for Active; 'I' for Inactive)
REMARK    1  A    between atoms: OAP_2  and  CAM_3 
REMARK    2  A    between atoms: CAJ_8  and  CAE_9 
REMARK    3  A    between atoms: CAG_10  and  OAD_11 
REMARK    4  A    between atoms: CAA_12  and  OAC_13 
ROOT
ATOM      1  CAE 16Z d         -16.253  11.361  31.804  0.00  0.00     0.252 C 
ATOM      2  CAG 16Z d         -14.777  10.966  31.790  0.00  0.00     0.184 C 
ATOM      3  CAA 16Z d         -14.895   9.471  31.359  0.00  0.00     0.179 C 
ATOM      4  CAF 16Z d         -15.998   9.019  32.260  0.00  0.00     0.215 C 
ATOM      5  CAB 16Z d         -16.401   7.593  31.947  0.00  0.00     0.043 C 
ATOM      6  NAH 16Z d         -16.964  10.050  31.930  0.00  0.00    -0.058 N 
ATOM      7  CAI 16Z d         -18.155   9.993  32.784  0.00  0.00     0.271 C 
ATOM      8  H17 16Z d         -17.302   9.839  31.004  0.00  0.00     0.281 HD
ENDROOT
BRANCH   1   9
ATOM      9  CAJ 16Z d         -16.640  12.323  32.798  0.00  0.00    -0.025 A 
ATOM     10  CAO 16Z d         -17.579  13.302  32.450  0.00  0.00     0.012 A 
ATOM     11  CAN 16Z d         -17.998  14.235  33.387  0.00  0.00     0.037 A 
ATOM     12  CAM 16Z d         -17.510  14.202  34.699  0.00  0.00     0.068 A 
ATOM     13  CAL 16Z d         -16.570  13.229  35.071  0.00  0.00     0.037 A 
ATOM     14  CAK 16Z d         -16.151  12.299  34.120  0.00  0.00     0.012 A 
BRANCH  12  15
ATOM     15  OAP 16Z d         -17.986  15.151  35.564  0.00  0.00    -0.356 OA
ATOM     16  CAQ 16Z d         -17.747  15.006  37.018  0.00  0.00     0.210 C 
ENDBRANCH  12  15
ENDBRANCH   1   9
BRANCH   2  17
ATOM     17  OAD 16Z d         -14.073  11.825  30.876  0.00  0.00    -0.390 OA
ATOM     18  H10 16Z d         -14.440  11.728  30.005  0.00  0.00     0.210 HD
ENDBRANCH   2  17
BRANCH   3  19
ATOM     19  OAC 16Z d         -15.206   9.321  29.908  0.00  0.00    -0.391 OA
ATOM     20  H12 16Z d         -15.268   8.398  29.692  0.00  0.00     0.210 HD
ENDBRANCH   3  19
TORSDOF 4
