REMARK  6 active torsions:
REMARK  status: ('A' for Active; 'I' for Inactive)
REMARK    1  A    between atoms: C7B_19  and  C1_1 
REMARK    2  A    between atoms: C2B_8  and  O2B_13 
REMARK    3  A    between atoms: C3B_9  and  O3B_14 
REMARK    4  A    between atoms: C4B_10  and  O4B_15 
REMARK    5  A    between atoms: C5B_11  and  C6B_12 
REMARK    6  A    between atoms: C6B_12  and  O6B_17 
ROOT
ATOM      1  C1B IDD d          25.216  26.007  36.348  0.00  0.00     0.139 A 
ATOM      2  C2B IDD d          24.515  24.961  37.105  0.00  0.00     0.219 C 
ATOM      3  C3B IDD d          23.977  23.870  36.184  0.00  0.00     0.185 C 
ATOM      4  C4B IDD d          23.481  24.457  34.834  0.00  0.00     0.175 C 
ATOM      5  C5B IDD d          24.655  25.120  34.078  0.00  0.00     0.146 C 
ATOM      6  N1B IDD d          25.255  26.115  35.008  0.00  0.00    -0.331 N 
ATOM      7  N2B IDD d          25.865  27.038  36.864  0.00  0.00    -0.230 NA
ATOM      8  C7B IDD d          26.319  27.806  35.817  0.00  0.00     0.084 A 
ATOM      9  C8B IDD d          25.960  27.263  34.628  0.00  0.00     0.125 A 
ENDROOT
BRANCH   8  10
ATOM     10  C1  IDD d          27.089  29.072  35.957  0.00  0.00    -0.006 A 
ATOM     11  C2  IDD d          27.721  29.313  37.193  0.00  0.00     0.014 A 
ATOM     12  C3  IDD d          28.437  30.501  37.411  0.00  0.00     0.001 A 
ATOM     13  C4  IDD d          28.515  31.452  36.390  0.00  0.00     0.000 A 
ATOM     14  C5  IDD d          27.877  31.225  35.165  0.00  0.00     0.001 A 
ATOM     15  C6  IDD d          27.154  30.046  34.940  0.00  0.00     0.014 A 
ENDBRANCH   8  10
BRANCH   2  16
ATOM     16  O2B IDD d          25.356  24.445  38.149  0.00  0.00    -0.385 OA
ATOM     17  H12 IDD d          25.663  25.163  38.691  0.00  0.00     0.210 HD
ENDBRANCH   2  16
BRANCH   5  18
ATOM     18  C6B IDD d          24.223  25.714  32.726  0.00  0.00     0.192 C 
BRANCH  18  19
ATOM     19  O6B IDD d          23.333  26.780  32.936  0.00  0.00    -0.399 OA
ATOM     20  H15 IDD d          23.762  27.452  33.452  0.00  0.00     0.209 HD
ENDBRANCH  18  19
ENDBRANCH   5  18
BRANCH   3  21
ATOM     21  O3B IDD d          22.898  23.208  36.850  0.00  0.00    -0.390 OA
ATOM     22  H13 IDD d          22.573  22.504  36.301  0.00  0.00     0.210 HD
ENDBRANCH   3  21
BRANCH   4  23
ATOM     23  O4B IDD d          22.912  23.407  34.074  0.00  0.00    -0.391 OA
ATOM     24  H14 IDD d          22.195  23.018  34.561  0.00  0.00     0.210 HD
ENDBRANCH   4  23
TORSDOF 6
