REMARK  19 active torsions:
REMARK  status: ('A' for Active; 'I' for Inactive)
REMARK    1  A    between atoms: C6_6  and  C2_2 
REMARK    2  A    between atoms: O7_7  and  C6_6 
REMARK    3  A    between atoms: C10_8  and  O7_7 
REMARK       I    between atoms: N11_10  and  C10_8 
REMARK    4  A    between atoms: C12_11  and  N11_10 
REMARK    5  A    between atoms: C13_12  and  C12_11 
REMARK    6  A    between atoms: C12_11  and  C26_15 
REMARK    7  A    between atoms: C14_13  and  C13_12 
REMARK    8  A    between atoms: C13_12  and  O41_22 
REMARK    9  A    between atoms: C15_14  and  C14_13 
REMARK   10  A    between atoms: C15_14  and  C44_23 
REMARK   11  A    between atoms: N58_30  and  C15_14 
REMARK   12  A    between atoms: C26_15  and  C28_16 
REMARK   13  A    between atoms: C44_23  and  C45_24 
REMARK       I    between atoms: C18_33  and  N58_30 
REMARK   14  A    between atoms: C19_32  and  N20_31 
REMARK       I    between atoms: N20_31  and  C21_38 
REMARK   15  A    between atoms: C19_32  and  C18_33 
REMARK   16  A    between atoms: C19_32  and  C62_35 
REMARK       I    between atoms: C21_38  and  N74_39 
REMARK   17  A    between atoms: N74_39  and  C75_40 
REMARK   18  A    between atoms: C75_40  and  C77_42 
REMARK   19  A    between atoms: C82_45  and  C85_47 
ROOT
ATOM      1  C15 RIT d          -0.978   4.164  10.074  0.00  0.00     0.091 C 
ENDROOT
BRANCH   1   2
ATOM      2  C14 RIT d           0.481   3.689   9.894  0.00  0.00     0.059 C 
BRANCH   2   3
ATOM      3  C13 RIT d           1.335   4.609   9.020  0.00  0.00     0.143 C 
BRANCH   3   4
ATOM      4  C12 RIT d           1.386   6.074   9.513  0.00  0.00     0.119 C 
BRANCH   4   5
ATOM      5  N11 RIT d           2.165   6.153  10.792  0.00  0.00    -0.329 N 
ATOM      6  C10 RIT d           1.677   6.956  11.786  0.00  0.00     0.361 C 
ATOM      7  O24 RIT d           0.595   7.510  11.861  0.00  0.00    -0.238 OA
ATOM      8  H5  RIT d           3.012   5.636  10.914  0.00  0.00     0.165 HD
BRANCH   6   9
ATOM      9  O7  RIT d           2.620   7.087  12.757  0.00  0.00    -0.299 OA
BRANCH   9  10
ATOM     10  C6  RIT d           2.335   8.209  13.632  0.00  0.00     0.228 C 
BRANCH  10  11
ATOM     11  C2  RIT d           3.140   8.181  14.863  0.00  0.00     0.025 A 
ATOM     12  C1  RIT d           2.789   8.636  16.129  0.00  0.00     0.133 A 
ATOM     13  N5  RIT d           3.759   8.480  17.115  0.00  0.00    -0.265 NA
ATOM     14  C4  RIT d           4.847   7.915  16.613  0.00  0.00     0.166 A 
ATOM     15  S3  RIT d           4.718   7.555  14.943  0.00  0.00    -0.084 SA
ENDBRANCH  10  11
ENDBRANCH   9  10
ENDBRANCH   6   9
ENDBRANCH   4   5
BRANCH   4  16
ATOM     16  C26 RIT d           2.026   7.026   8.458  0.00  0.00     0.066 C 
BRANCH  16  17
ATOM     17  C28 RIT d           1.945   8.483   8.842  0.00  0.00    -0.056 A 
ATOM     18  C31 RIT d           0.752   9.189   8.602  0.00  0.00     0.007 A 
ATOM     19  C32 RIT d           0.666  10.553   8.971  0.00  0.00     0.001 A 
ATOM     20  C33 RIT d           1.758  11.191   9.570  0.00  0.00     0.000 A 
ATOM     21  C34 RIT d           2.931  10.483   9.812  0.00  0.00     0.001 A 
ATOM     22  C35 RIT d           3.036   9.129   9.440  0.00  0.00     0.007 A 
ENDBRANCH  16  17
ENDBRANCH   4  16
ENDBRANCH   3   4
BRANCH   3  23
ATOM     23  O41 RIT d           2.662   4.094   8.874  0.00  0.00    -0.393 OA
ATOM     24  H18 RIT d           3.171   4.682   8.328  0.00  0.00     0.210 HD
ENDBRANCH   3  23
ENDBRANCH   2   3
ENDBRANCH   1   2
BRANCH   1  25
ATOM     25  C44 RIT d          -1.804   3.244  10.999  0.00  0.00     0.063 C 
BRANCH  25  26
ATOM     26  C45 RIT d          -2.192   1.875  10.472  0.00  0.00    -0.056 A 
ATOM     27  C48 RIT d          -3.268   1.677   9.616  0.00  0.00     0.007 A 
ATOM     28  C49 RIT d          -3.621   0.405   9.162  0.00  0.00     0.001 A 
ATOM     29  C50 RIT d          -2.869  -0.698   9.600  0.00  0.00     0.000 A 
ATOM     30  C51 RIT d          -1.792  -0.533  10.442  0.00  0.00     0.001 A 
ATOM     31  C52 RIT d          -1.457   0.750  10.873  0.00  0.00     0.007 A 
ENDBRANCH  25  26
ENDBRANCH   1  25
BRANCH   1  32
ATOM     32  N58 RIT d          -1.544   4.265   8.718  0.00  0.00    -0.354 N 
ATOM     33  C18 RIT d          -2.510   5.212   8.488  0.00  0.00     0.241 C 
ATOM     34  O61 RIT d          -2.916   5.949   9.376  0.00  0.00    -0.271 OA
ATOM     35  H26 RIT d          -1.233   3.660   7.985  0.00  0.00     0.162 HD
BRANCH  33  36
ATOM     36  C19 RIT d          -3.043   5.197   7.036  0.00  0.00     0.181 C 
BRANCH  36  37
ATOM     37  N20 RIT d          -4.244   4.326   7.075  0.00  0.00    -0.329 N 
ATOM     38  C21 RIT d          -4.400   3.398   6.059  0.00  0.00     0.319 C 
ATOM     39  N74 RIT d          -5.573   2.643   6.126  0.00  0.00    -0.333 N 
ATOM     40  O76 RIT d          -3.611   3.333   5.119  0.00  0.00    -0.247 OA
ATOM     41  C95 RIT d          -6.590   2.806   7.159  0.00  0.00     0.154 C 
ATOM     42  H27 RIT d          -4.918   4.407   7.810  0.00  0.00     0.165 HD
BRANCH  39  43
ATOM     43  C75 RIT d          -5.852   1.720   5.029  0.00  0.00     0.186 C 
BRANCH  43  44
ATOM     44  C77 RIT d          -6.112   0.321   5.488  0.00  0.00     0.060 A 
ATOM     45  C80 RIT d          -5.126  -0.568   5.842  0.00  0.00     0.080 A 
ATOM     46  S81 RIT d          -5.839  -2.045   6.317  0.00  0.00    -0.084 SA
ATOM     47  C82 RIT d          -7.399  -1.407   6.024  0.00  0.00     0.078 A 
ATOM     48  N83 RIT d          -7.394  -0.188   5.584  0.00  0.00    -0.248 NA
BRANCH  47  49
ATOM     49  C85 RIT d          -8.587  -2.304   6.290  0.00  0.00     0.037 C 
ATOM     50  C86 RIT d          -9.081  -2.971   5.023  0.00  0.00     0.016 C 
ATOM     51  C90 RIT d          -8.279  -3.308   7.407  0.00  0.00     0.016 C 
ENDBRANCH  47  49
ENDBRANCH  43  44
ENDBRANCH  39  43
ENDBRANCH  36  37
BRANCH  36  52
ATOM     52  C62 RIT d          -3.398   6.657   6.656  0.00  0.00     0.009 C 
ATOM     53  C64 RIT d          -2.135   7.512   6.651  0.00  0.00     0.012 C 
ATOM     54  C68 RIT d          -4.049   6.661   5.257  0.00  0.00     0.012 C 
ENDBRANCH  36  52
ENDBRANCH  33  36
ENDBRANCH   1  32
TORSDOF 19
