REMARK  8 active torsions:
REMARK  status: ('A' for Active; 'I' for Inactive)
REMARK    1  A    between atoms: C65_1  and  C34_10 
REMARK    2  A    between atoms: C61_6  and  C25_7 
REMARK    3  A    between atoms: C25_7  and  N43_8 
REMARK    4  A    between atoms: C34_10  and  C31_11 
REMARK    5  A    between atoms: C31_11  and  N29_20 
REMARK    6  A    between atoms: C31_11  and  C35_12 
REMARK       I    between atoms: C35_12  and  N81_14 
REMARK    7  A    between atoms: N29_20  and  S12_21 
REMARK    8  A    between atoms: S12_21  and  C2_24 
ROOT
ATOM      1  C31 FD3 d          -4.052   4.382  22.242  0.00  0.00     0.189 C 
ENDROOT
BRANCH   1   2
ATOM      2  C34 FD3 d          -4.090   4.560  20.713  0.00  0.00     0.074 C 
BRANCH   2   3
ATOM      3  C65 FD3 d          -3.245   5.748  20.208  0.00  0.00    -0.055 A 
ATOM      4  C64 FD3 d          -1.896   5.564  19.825  0.00  0.00     0.007 A 
ATOM      5  C63 FD3 d          -1.128   6.645  19.371  0.00  0.00     0.002 A 
ATOM      6  C62 FD3 d          -1.707   7.924  19.276  0.00  0.00     0.015 A 
ATOM      7  C61 FD3 d          -3.056   8.117  19.640  0.00  0.00     0.007 A 
ATOM      8  C66 FD3 d          -3.813   7.028  20.103  0.00  0.00     0.022 A 
BRANCH   7   9
ATOM      9  C25 FD3 d          -3.694   9.474  19.544  0.00  0.00     0.102 C 
ATOM     10  N54 FD3 d          -4.956   9.614  19.886  0.00  0.00    -0.385 N 
ATOM     11  H7  FD3 d          -5.498   8.797  20.202  0.00  0.00     0.157 HD
ATOM     12  H8  FD3 d          -5.403  10.541  19.838  0.00  0.00     0.157 HD
BRANCH   9  13
ATOM     13  N43 FD3 d          -2.981  10.491  19.139  0.00  0.00    -0.385 N 
ATOM     14  H5  FD3 d          -3.409  11.425  19.070  0.00  0.00     0.157 HD
ATOM     15  H6  FD3 d          -1.991  10.359  18.889  0.00  0.00     0.157 HD
ENDBRANCH   9  13
ENDBRANCH   7   9
ENDBRANCH   2   3
ENDBRANCH   1   2
BRANCH   1  16
ATOM     16  N29 FD3 d          -5.156   5.101  22.893  0.00  0.00    -0.301 N 
ATOM     17  H22 FD3 d          -5.406   6.020  22.587  0.00  0.00     0.173 HD
BRANCH  16  18
ATOM     18  S12 FD3 d          -6.016   4.356  24.182  0.00  0.00     0.259 S 
ATOM     19  O33 FD3 d          -6.266   2.988  23.875  0.00  0.00    -0.201 OA
ATOM     20  O32 FD3 d          -7.070   5.238  24.608  0.00  0.00    -0.201 OA
BRANCH  18  21
ATOM     21  C2  FD3 d          -4.759   4.410  25.360  0.00  0.00     0.080 A 
ATOM     22  C1  FD3 d          -4.054   3.259  25.707  0.00  0.00     0.037 A 
ATOM     23  C9  FD3 d          -3.019   3.330  26.677  0.00  0.00    -0.025 A 
ATOM     24  C10 FD3 d          -2.710   4.586  27.297  0.00  0.00    -0.026 A 
ATOM     25  C8  FD3 d          -2.291   2.150  27.033  0.00  0.00     0.012 A 
ATOM     26  C4  FD3 d          -3.443   5.755  26.929  0.00  0.00     0.014 A 
ATOM     27  C5  FD3 d          -1.668   4.628  28.275  0.00  0.00     0.012 A 
ATOM     28  C3  FD3 d          -4.471   5.648  25.958  0.00  0.00     0.026 A 
ATOM     29  C6  FD3 d          -0.945   3.441  28.625  0.00  0.00     0.001 A 
ATOM     30  C7  FD3 d          -1.266   2.211  28.000  0.00  0.00     0.001 A 
ENDBRANCH  18  21
ENDBRANCH  16  18
ENDBRANCH   1  16
BRANCH   1  31
ATOM     31  C35 FD3 d          -2.733   4.759  22.885  0.00  0.00     0.243 C 
ATOM     32  N81 FD3 d          -1.653   3.922  22.912  0.00  0.00    -0.347 N 
ATOM     33  C75 FD3 d          -0.372   4.427  23.437  0.00  0.00     0.153 C 
ATOM     34  C71 FD3 d          -1.595   2.734  22.030  0.00  0.00     0.153 C 
ATOM     35  C74 FD3 d           0.130   3.304  24.376  0.00  0.00     0.252 C 
ATOM     36  N40 FD3 d          -0.025   1.937  23.806  0.00  0.00    -0.072 N 
ATOM     37  C72 FD3 d          -1.119   1.567  22.931  0.00  0.00     0.252 C 
ATOM     38  H20 FD3 d           0.820   1.755  23.287  0.00  0.00     0.277 HD
ATOM     39  H21 FD3 d          -0.076   1.311  24.595  0.00  0.00     0.277 HD
ATOM     40  O36 FD3 d          -2.706   5.896  23.353  0.00  0.00    -0.271 OA
ENDBRANCH   1  31
TORSDOF 8
