REMARK  2 active torsions:
REMARK  status: ('A' for Active; 'I' for Inactive)
REMARK    1  A    between atoms: C14_14  and  O20_20 
REMARK    2  A    between atoms: C17_17  and  O18_18 
ROOT
ATOM      1  C1  CTI d          20.189  -9.914  22.482  0.00  0.00     0.054 A 
ATOM      2  C2  CTI d          18.924  -9.827  21.859  0.00  0.00     0.004 A 
ATOM      3  C3  CTI d          18.758 -10.361  20.601  0.00  0.00    -0.021 A 
ATOM      4  C4  CTI d          19.878 -10.942  19.977  0.00  0.00     0.052 A 
ATOM      5  C5  CTI d          17.861  -9.261  22.542  0.00  0.00     0.052 A 
ATOM      6  C6  CTI d          16.570  -9.207  22.001  0.00  0.00     0.002 A 
ATOM      7  C7  CTI d          16.401  -9.747  20.727  0.00  0.00     0.015 A 
ATOM      8  C8  CTI d          17.496 -10.303  20.015  0.00  0.00     0.013 A 
ATOM      9  N9  CTI d          18.122  -8.786  23.846  0.00  0.00    -0.379 N 
ATOM     10  C10 CTI d          15.524  -8.644  22.754  0.00  0.00    -0.013 A 
ATOM     11  C11 CTI d          15.804  -8.151  24.049  0.00  0.00     0.007 A 
ATOM     12  C12 CTI d          17.078  -8.233  24.579  0.00  0.00     0.165 A 
ATOM     13  C13 CTI d          19.475  -8.853  24.473  0.00  0.00     0.150 C 
ATOM     14  C14 CTI d          13.519  -7.468  24.340  0.00  0.00     0.102 A 
ATOM     15  C15 CTI d          13.196  -7.943  23.054  0.00  0.00     0.040 A 
ATOM     16  C16 CTI d          14.208  -8.536  22.282  0.00  0.00     0.016 A 
ATOM     17  C17 CTI d          14.810  -7.570  24.856  0.00  0.00     0.110 A 
ATOM     18  C22 CTI d          21.295 -10.496  21.867  0.00  0.00     0.105 A 
ATOM     19  C23 CTI d          21.137 -11.004  20.578  0.00  0.00     0.105 A 
ATOM     20  O24 CTI d          22.622 -10.654  22.271  0.00  0.00    -0.323 OA
ATOM     21  C25 CTI d          23.214 -11.611  21.323  0.00  0.00     0.352 C 
ATOM     22  O26 CTI d          22.363 -11.493  20.145  0.00  0.00    -0.323 OA
ENDROOT
BRANCH  14  23
ATOM     23  O20 CTI d          12.572  -6.875  25.125  0.00  0.00    -0.353 OA
ATOM     24  C21 CTI d          12.348  -7.573  26.372  0.00  0.00     0.210 C 
ENDBRANCH  14  23
BRANCH  17  25
ATOM     25  O18 CTI d          15.088  -7.026  26.121  0.00  0.00    -0.352 OA
ATOM     26  C19 CTI d          15.314  -7.736  27.392  0.00  0.00     0.210 C 
ENDBRANCH  17  25
TORSDOF 2
