REMARK  6 active torsions:
REMARK  status: ('A' for Active; 'I' for Inactive)
REMARK    1  A    between atoms: N1_1  and  C1'_9 
REMARK    2  A    between atoms: C2'_10  and  O2'_11 
REMARK    3  A    between atoms: C3'_12  and  O3'_14 
REMARK    4  A    between atoms: C4'_13  and  C5'_16 
REMARK    5  A    between atoms: C5'_16  and  O5'_17 
REMARK    6  A    between atoms: O5'_17  and  P_18 
ROOT
ATOM      1  C1' U5P d          28.728  29.991  38.983  0.00  0.00     0.259 C 
ATOM      2  C2' U5P d          29.940  30.784  39.223  0.00  0.00     0.198 C 
ATOM      3  C3' U5P d          29.477  31.872  40.116  0.00  0.00     0.182 C 
ATOM      4  C4' U5P d          28.018  32.032  39.814  0.00  0.00     0.180 C 
ATOM      5  O4' U5P d          27.582  30.844  39.172  0.00  0.00    -0.354 OA
ENDROOT
BRANCH   1   6
ATOM      6  N1  U5P d          28.699  29.294  37.739  0.00  0.00    -0.304 N 
ATOM      7  C2  U5P d          28.345  27.880  37.570  0.00  0.00     0.327 C 
ATOM      8  N3  U5P d          28.187  27.323  36.205  0.00  0.00    -0.279 N 
ATOM      9  O2  U5P d          28.110  27.192  38.552  0.00  0.00    -0.247 OA
ATOM     10  C4  U5P d          28.541  28.114  35.044  0.00  0.00     0.227 C 
ATOM     11  H1  U5P d          27.834  26.395  36.085  0.00  0.00     0.173 HD
ATOM     12  C5  U5P d          28.812  29.592  35.192  0.00  0.00     0.123 C 
ATOM     13  O4  U5P d          28.546  27.587  33.943  0.00  0.00    -0.273 OA
ATOM     14  C6  U5P d          28.882  30.180  36.580  0.00  0.00     0.139 C 
ENDBRANCH   1   6
BRANCH   2  15
ATOM     15  O2' U5P d          31.076  30.083  39.636  0.00  0.00    -0.388 OA
ATOM     16  H8  U5P d          31.795  30.692  39.760  0.00  0.00     0.210 HD
ENDBRANCH   2  15
BRANCH   3  17
ATOM     17  O3' U5P d          30.132  32.280  41.356  0.00  0.00    -0.390 OA
ATOM     18  H11 U5P d          31.058  32.074  41.306  0.00  0.00     0.210 HD
ENDBRANCH   3  17
BRANCH   4  19
ATOM     19  C5' U5P d          27.390  33.341  39.452  0.00  0.00     0.217 C 
BRANCH  19  20
ATOM     20  O5' U5P d          26.064  33.246  39.096  0.00  0.00    -0.280 OA
BRANCH  20  21
ATOM     21  P   U5P d          25.366  34.398  38.310  0.00  0.00     0.422 P 
ATOM     22  O1P U5P d          25.918  35.739  38.716  0.00  0.00    -0.617 OA
ATOM     23  O2P U5P d          25.647  34.177  36.800  0.00  0.00    -0.617 OA
ATOM     24  O3P U5P d          23.837  34.323  38.603  0.00  0.00    -0.617 OA
ENDBRANCH  20  21
ENDBRANCH  19  20
ENDBRANCH   4  19
TORSDOF 6
