REMARK  8 active torsions:
REMARK  status: ('A' for Active; 'I' for Inactive)
REMARK       I    between atoms: CAG_2  and  NAI_4 
REMARK    1  A    between atoms: NAI_4  and  CAB_5 
REMARK    2  A    between atoms: CAC_6  and  OAJ_7 
REMARK    3  A    between atoms: CAD_8  and  OAK_9 
REMARK    4  A    between atoms: CAE_10  and  CAF_11 
REMARK    5  A    between atoms: CAF_11  and  OAM_12 
REMARK    6  A    between atoms: NAY_15  and  OAQ_16 
REMARK    7  A    between atoms: OAQ_16  and  CAP_17 
REMARK       I    between atoms: CAP_17  and  NAO_19 
REMARK    8  A    between atoms: NAO_19  and  CAS_20 
ROOT
ATOM      1  CAB OAN d         -23.738  36.624  -9.940  0.00  0.00     0.194 C 
ATOM      2  CAC OAN d         -24.493  36.862 -11.249  0.00  0.00     0.180 C 
ATOM      3  CAD OAN d         -23.587  36.655 -12.454  0.00  0.00     0.180 C 
ATOM      4  CAE OAN d         -23.100  35.198 -12.479  0.00  0.00     0.185 C 
ATOM      5  OAL OAN d         -22.472  34.793 -11.233  0.00  0.00    -0.324 OA
ATOM      6  CAA OAN d         -22.632  35.561 -10.112  0.00  0.00     0.194 C 
ATOM      7  NAY OAN d         -21.785  35.351  -9.127  0.00  0.00    -0.100 NA
ENDROOT
BRANCH   1   8
ATOM      8  NAI OAN d         -24.696  36.268  -8.872  0.00  0.00    -0.347 N 
ATOM      9  CAG OAN d         -25.178  35.042  -8.658  0.00  0.00     0.214 C 
ATOM     10  CAH OAN d         -26.175  34.919  -7.496  0.00  0.00     0.117 C 
ATOM     11  OAN OAN d         -24.867  34.055  -9.309  0.00  0.00    -0.274 OA
ATOM     12  H4  OAN d         -25.006  37.000  -8.265  0.00  0.00     0.163 HD
ENDBRANCH   1   8
BRANCH   7  13
ATOM     13  OAQ OAN d         -20.832  34.401  -9.349  0.00  0.00    -0.153 OA
BRANCH  13  14
ATOM     14  CAP OAN d         -19.647  34.630  -8.709  0.00  0.00     0.389 C 
ATOM     15  OAR OAN d         -18.742  33.797  -8.785  0.00  0.00    -0.236 OA
ATOM     16  NAO OAN d         -19.542  35.781  -8.027  0.00  0.00    -0.301 N 
ATOM     17  H14 OAN d         -20.322  36.406  -8.061  0.00  0.00     0.171 HD
BRANCH  16  18
ATOM     18  CAS OAN d         -18.479  36.164  -7.303  0.00  0.00     0.036 A 
ATOM     19  CAT OAN d         -18.697  36.572  -5.987  0.00  0.00     0.029 A 
ATOM     20  CAU OAN d         -17.631  36.985  -5.188  0.00  0.00     0.002 A 
ATOM     21  CAV OAN d         -16.336  36.989  -5.703  0.00  0.00     0.000 A 
ATOM     22  CAW OAN d         -16.107  36.583  -7.025  0.00  0.00     0.002 A 
ATOM     23  CAX OAN d         -17.176  36.173  -7.827  0.00  0.00     0.029 A 
ENDBRANCH  16  18
ENDBRANCH  13  14
ENDBRANCH   7  13
BRANCH   2  24
ATOM     24  OAJ OAN d         -25.015  38.197 -11.259  0.00  0.00    -0.390 OA
ATOM     25  H7  OAN d         -25.484  38.346 -12.071  0.00  0.00     0.210 HD
ENDBRANCH   2  24
BRANCH   4  26
ATOM     26  CAF OAN d         -22.134  34.864 -13.620  0.00  0.00     0.199 C 
BRANCH  26  27
ATOM     27  OAM OAN d         -20.910  35.589 -13.465  0.00  0.00    -0.398 OA
ATOM     28  H13 OAN d         -20.506  35.353 -12.638  0.00  0.00     0.209 HD
ENDBRANCH  26  27
ENDBRANCH   4  26
BRANCH   3  29
ATOM     29  OAK OAN d         -24.357  36.921 -13.618  0.00  0.00    -0.390 OA
ATOM     30  H9  OAN d         -24.673  37.816 -13.589  0.00  0.00     0.210 HD
ENDBRANCH   3  29
TORSDOF 8
