REMARK  6 active torsions:
REMARK  status: ('A' for Active; 'I' for Inactive)
REMARK    1  A    between atoms: O5_1  and  C5_2 
REMARK    2  A    between atoms: C5_2  and  C4_3 
REMARK    3  A    between atoms: C3_5  and  O3_6 
REMARK    4  A    between atoms: C2_7  and  O2_8 
REMARK    5  A    between atoms: C1_9  and  N9_10 
REMARK    6  A    between atoms: C6_14  and  N6_15 
ROOT
ATOM      1  C4  ADN d          17.178  18.879  10.836  0.00  0.00     0.179 C 
ATOM      2  O4  ADN d          15.937  18.464  11.388  0.00  0.00    -0.353 OA
ATOM      3  C3  ADN d          16.820  20.021   9.922  0.00  0.00     0.182 C 
ATOM      4  C2  ADN d          15.330  19.854   9.628  0.00  0.00     0.198 C 
ATOM      5  C1  ADN d          14.834  19.195  10.824  0.00  0.00     0.262 C 
ENDROOT
BRANCH   5   6
ATOM      6  N9  ADN d          14.352  20.202  11.771  0.00  0.00    -0.294 N 
ATOM      7  C8  ADN d          15.060  21.197  12.344  0.00  0.00     0.214 A 
ATOM      8  N7  ADN d          14.266  21.918  13.175  0.00  0.00    -0.236 NA
ATOM      9  C5  ADN d          13.037  21.385  13.127  0.00  0.00     0.149 A 
ATOM     10  C6  ADN d          11.738  21.696  13.758  0.00  0.00     0.155 A 
ATOM     11  C4  ADN d          13.087  20.229  12.201  0.00  0.00     0.167 A 
ATOM     12  N1  ADN d          10.715  20.850  13.399  0.00  0.00    -0.222 NA
ATOM     13  C2  ADN d          10.864  19.818  12.515  0.00  0.00     0.237 A 
ATOM     14  N3  ADN d          11.990  19.477  11.912  0.00  0.00    -0.222 NA
BRANCH  10  15
ATOM     15  N6  ADN d          11.595  22.733  14.662  0.00  0.00    -0.382 N 
ATOM     16  H11 ADN d          10.675  22.924  15.085  0.00  0.00     0.157 HD
ATOM     17  H12 ADN d          12.408  23.314  14.912  0.00  0.00     0.157 HD
ENDBRANCH  10  15
ENDBRANCH   5   6
BRANCH   4  18
ATOM     18  O2  ADN d          15.056  18.743   8.831  0.00  0.00    -0.388 OA
ATOM     19  H8  ADN d          15.355  17.957   9.273  0.00  0.00     0.210 HD
ENDBRANCH   4  18
BRANCH   1  20
ATOM     20  C5  ADN d          18.065  19.295  11.986  0.00  0.00     0.198 C 
BRANCH  20  21
ATOM     21  O5  ADN d          18.664  18.041  12.242  0.00  0.00    -0.398 OA
ATOM     22  H1  ADN d          17.991  17.410  12.466  0.00  0.00     0.209 HD
ENDBRANCH  20  21
ENDBRANCH   1  20
BRANCH   3  23
ATOM     23  O3  ADN d          17.638  19.821   8.803  0.00  0.00    -0.390 OA
ATOM     24  H6  ADN d          17.443  18.976   8.416  0.00  0.00     0.210 HD
ENDBRANCH   3  23
TORSDOF 6
