REMARK  14 active torsions:
REMARK  status: ('A' for Active; 'I' for Inactive)
REMARK    1  A    between atoms: C2_1  and  O39_38 
REMARK    2  A    between atoms: S8_7  and  C5_4 
REMARK    3  A    between atoms: N11_10  and  S8_7 
REMARK    4  A    between atoms: N11_10  and  C12_11 
REMARK    5  A    between atoms: C16_15  and  N11_10 
REMARK    6  A    between atoms: C12_11  and  C13_12 
REMARK    7  A    between atoms: C17_16  and  C16_15 
REMARK    8  A    between atoms: C17_16  and  O18_17 
REMARK    9  A    between atoms: C19_18  and  C17_16 
REMARK   10  A    between atoms: C19_18  and  N20_19 
REMARK   11  A    between atoms: C32_31  and  C19_18 
REMARK       I    between atoms: N20_19  and  C21_20 
REMARK   12  A    between atoms: C21_20  and  O23_22 
REMARK   13  A    between atoms: O23_22  and  C24_23 
REMARK   14  A    between atoms: C38_37  and  C32_31 
ROOT
ATOM      1  C19 G52 d          12.272 -19.214 -18.738  0.00  0.00     0.121 C 
ENDROOT
BRANCH   1   2
ATOM      2  C17 G52 d          13.754 -18.997 -18.462  0.00  0.00     0.160 C 
BRANCH   2   3
ATOM      3  C16 G52 d          14.622 -20.184 -18.872  0.00  0.00     0.169 C 
BRANCH   3   4
ATOM      4  N11 G52 d          14.511 -21.262 -17.914  0.00  0.00    -0.304 N 
BRANCH   4   5
ATOM      5  S8  G52 d          13.887 -22.675 -18.465  0.00  0.00     0.260 S 
ATOM      6  O9  G52 d          12.956 -22.318 -19.567  0.00  0.00    -0.200 OA
ATOM      7  O10 G52 d          13.313 -23.351 -17.293  0.00  0.00    -0.200 OA
BRANCH   5   8
ATOM      8  C5  G52 d          15.245 -23.579 -19.099  0.00  0.00     0.079 A 
ATOM      9  C4  G52 d          15.616 -23.398 -20.398  0.00  0.00     0.028 A 
ATOM     10  C3  G52 d          16.659 -24.110 -20.962  0.00  0.00     0.038 A 
ATOM     11  C2  G52 d          17.344 -25.032 -20.177  0.00  0.00     0.068 A 
ATOM     12  C7  G52 d          16.919 -25.292 -18.880  0.00  0.00     0.038 A 
ATOM     13  C6  G52 d          15.858 -24.561 -18.357  0.00  0.00     0.028 A 
BRANCH  11  14
ATOM     14  O39 G52 d          18.388 -25.644 -20.778  0.00  0.00    -0.356 OA
ATOM     15  C40 G52 d          19.072 -26.522 -19.886  0.00  0.00     0.210 C 
ENDBRANCH  11  14
ENDBRANCH   5   8
ENDBRANCH   4   5
BRANCH   4  16
ATOM     16  C12 G52 d          15.550 -21.375 -16.941  0.00  0.00     0.139 C 
BRANCH  16  17
ATOM     17  C13 G52 d          15.408 -20.377 -15.788  0.00  0.00    -0.004 C 
ATOM     18  C14 G52 d          14.089 -20.566 -15.082  0.00  0.00     0.011 C 
ATOM     19  C15 G52 d          16.513 -20.605 -14.753  0.00  0.00     0.011 C 
ENDBRANCH  16  17
ENDBRANCH   4  16
ENDBRANCH   3   4
ENDBRANCH   2   3
BRANCH   2  20
ATOM     20  O18 G52 d          14.270 -17.856 -19.129  0.00  0.00    -0.392 OA
ATOM     21  H17 G52 d          13.752 -17.094 -18.897  0.00  0.00     0.210 HD
ENDBRANCH   2  20
ENDBRANCH   1   2
BRANCH   1  22
ATOM     22  N20 G52 d          11.438 -18.208 -18.122  0.00  0.00    -0.329 N 
ATOM     23  C21 G52 d          10.647 -18.321 -17.061  0.00  0.00     0.361 C 
ATOM     24  O22 G52 d          10.514 -19.338 -16.355  0.00  0.00    -0.238 OA
ATOM     25  H19 G52 d          11.459 -17.305 -18.552  0.00  0.00     0.165 HD
BRANCH  23  26
ATOM     26  O23 G52 d          10.035 -17.144 -16.779  0.00  0.00    -0.296 OA
BRANCH  26  27
ATOM     27  C24 G52 d           9.049 -17.188 -15.755  0.00  0.00     0.166 C 
ATOM     28  C25 G52 d           9.280 -15.947 -14.879  0.00  0.00     0.204 C 
ATOM     29  O26 G52 d           8.662 -14.840 -15.562  0.00  0.00    -0.358 OA
ATOM     30  C27 G52 d           7.675 -15.349 -16.481  0.00  0.00     0.270 C 
ATOM     31  O28 G52 d           8.022 -15.066 -17.846  0.00  0.00    -0.331 OA
ATOM     32  C31 G52 d           7.650 -16.858 -16.328  0.00  0.00     0.082 C 
ATOM     33  C29 G52 d           7.900 -16.229 -18.662  0.00  0.00     0.267 C 
ATOM     34  C30 G52 d           7.437 -17.362 -17.745  0.00  0.00     0.054 C 
ATOM     35  O41 G52 d           6.861 -16.075 -19.639  0.00  0.00    -0.361 OA
ATOM     36  C43 G52 d           5.982 -17.569 -18.130  0.00  0.00     0.036 C 
ATOM     37  C42 G52 d           5.654 -16.301 -18.896  0.00  0.00     0.171 C 
ENDBRANCH  26  27
ENDBRANCH  23  26
ENDBRANCH   1  22
BRANCH   1  38
ATOM     38  C32 G52 d          11.889 -19.254 -20.215  0.00  0.00     0.066 C 
BRANCH  38  39
ATOM     39  C38 G52 d          10.416 -19.578 -20.416  0.00  0.00    -0.056 A 
ATOM     40  C33 G52 d           9.566 -18.634 -20.962  0.00  0.00     0.007 A 
ATOM     41  C34 G52 d           8.230 -18.964 -21.081  0.00  0.00     0.001 A 
ATOM     42  C35 G52 d           7.704 -20.166 -20.609  0.00  0.00     0.000 A 
ATOM     43  C36 G52 d           8.596 -21.105 -20.115  0.00  0.00     0.001 A 
ATOM     44  C37 G52 d           9.926 -20.806 -20.006  0.00  0.00     0.007 A 
ENDBRANCH  38  39
ENDBRANCH   1  38
TORSDOF 14
