3wq6_ligand

Created by X-TOOL on Sun Nov 13 14:23:29 2016
 79 82  0  0  0  0  0  0  0  0999 V2000
   -1.3230   31.5630   18.0160  C 0  0  0  2  0  3
   -0.3400   30.8640   18.7110  C 0  0  0  2  0  3
   -0.4520   30.6750   20.0840  C 0  0  0  2  0  3
   -1.5540   31.1840   20.7640  C 0  0  0  2  0  3
   -2.5290   31.8900   20.0660  C 0  0  0  2  0  3
   -2.4160   32.0930   18.6920  C 0  0  0  1  0  3
   -3.5210   32.8380   17.9200  C 0  0  0  3  0  4
   -3.4350   34.3080   17.7560  N 0  0  0  1  0  3
   -2.6030   34.8260   16.7350  C 0  0  0  1  0  3
   -2.2050   34.1960   15.7570  O 0  0  0  1  0  1
   -3.3220   35.1430   18.8860  C 0  0  0  1  0  3
   -3.4260   34.8100   20.0670  O 0  0  0  1  0  1
   -3.0220   36.5600   18.3810  C 0  0  0  3  0  4
   -2.3500   36.3260   17.0110  C 0  0  0  2  0  4
   -0.5560   36.7420   17.0630  S 0  0  0  1  0  2
    0.1190   35.2900   17.9510  C 0  0  0  3  0  4
    0.0540   35.3420   19.4890  C 0  0  0  3  0  4
    0.5630   33.9950   20.0140  C 0  0  0  3  0  4
    0.3320   33.7200   21.5080  C 0  3  0  1  0  3
   -0.7150   34.2240   22.1230  N 0  0  0  3  0  3
    1.1970   32.9280   22.1140  N 0  0  0  2  0  3
    1.1500   32.5480   23.5140  C 0  0  0  2  0  4
   -0.2160   32.2660   23.8500  O 0  0  0  1  0  2
    1.9070   33.6250   24.3380  C 0  0  0  2  0  4
    3.2920   33.2700   24.4530  O 0  0  0  2  0  2
    1.3280   33.8220   25.7400  C 0  0  0  2  0  4
    1.8230   35.0470   26.2880  O 0  0  0  2  0  2
   -0.1920   33.8490   25.6330  C 0  0  0  2  0  4
   -0.7880   34.2190   26.8770  O 0  0  0  2  0  2
   -0.6370   32.4540   25.2150  C 0  0  0  2  0  4
   -2.1440   32.3740   25.2110  C 0  0  0  3  0  4
   -2.4870   33.3300   24.2070  O 0  0  0  1  0  2
   -3.8910   33.4840   24.0620  C 0  0  0  2  0  4
   -4.3570   32.5700   23.0470  O 0  0  0  1  0  2
   -5.7520   32.7760   22.7010  C 0  0  0  3  0  4
   -5.9980   34.2170   22.2320  C 0  0  0  2  0  4
   -7.3870   34.3900   21.9120  O 0  0  0  2  0  2
   -5.5510   35.1910   23.3220  C 0  0  0  2  0  4
   -5.7090   36.5510   22.9110  O 0  0  0  2  0  2
   -4.0780   34.9290   23.6050  C 0  0  0  2  0  4
   -3.5830   35.8350   24.5970  O 0  0  0  2  0  2
   -1.2358   31.6945   16.9435  H 0  0  0  1  0  1
    0.5165   30.4653   18.1795  H 0  0  0  1  0  1
    0.3167   30.1329   20.6228  H 0  0  0  1  0  1
   -1.6526   31.0313   21.8327  H 0  0  0  1  0  1
   -3.3865   32.2867   20.5973  H 0  0  0  1  0  1
   -4.4688   32.6292   18.4377  H 0  0  0  1  0  1
   -3.5521   32.4051   16.9093  H 0  0  0  1  0  1
   -2.3412   37.0850   19.0672  H 0  0  0  1  0  1
   -3.9493   37.1409   18.2688  H 0  0  0  1  0  1
   -2.8317   36.9412   16.2367  H 0  0  0  1  0  1
    1.1752   35.1820   17.6634  H 0  0  0  1  0  1
   -0.4433   34.4039   17.6213  H 0  0  0  1  0  1
   -0.9833   35.5056   19.8164  H 0  0  0  1  0  1
    0.6900   36.1569   19.8651  H 0  0  0  1  0  1
    1.6461   33.9494   19.8276  H 0  0  0  1  0  1
    0.0591   33.2003   19.4444  H 0  0  0  1  0  1
   -0.8639   34.0358   23.1246  H 0  0  0  1  0  1
   -1.3863   34.8071   21.6032  H 0  0  0  1  0  1
    1.9685   32.5486   21.5468  H 0  0  0  1  0  1
    1.7060   31.6076   23.6422  H 0  0  0  1  0  1
    1.8303   34.5804   23.7983  H 0  0  0  1  0  1
    3.3672   32.4303   24.8909  H 0  0  0  1  0  1
    1.6332   32.9869   26.3877  H 0  0  0  1  0  1
    1.4642   35.1708   27.1589  H 0  0  0  1  0  1
   -0.4932   34.5771   24.8655  H 0  0  0  1  0  1
   -1.7334   34.2283   26.7836  H 0  0  0  1  0  1
   -0.2048   31.6910   25.8791  H 0  0  0  1  0  1
   -2.5621   32.6537   26.1892  H 0  0  0  1  0  1
   -2.4905   31.3661   24.9387  H 0  0  0  1  0  1
   -4.4153   33.2986   25.0111  H 0  0  0  1  0  1
   -6.3750   32.5746   23.5849  H 0  0  0  1  0  1
   -6.0278   32.0830   21.8925  H 0  0  0  1  0  1
   -5.4029   34.4055   21.3263  H 0  0  0  1  0  1
   -7.9128   34.2148   22.6836  H 0  0  0  1  0  1
   -6.1442   35.0176   24.2320  H 0  0  0  1  0  1
   -6.6238   36.7176   22.7165  H 0  0  0  1  0  1
   -3.5084   35.0824   22.6765  H 0  0  0  1  0  1
   -4.0752   35.7217   25.4016  H 0  0  0  1  0  1
  1  2  4  0  0  1
  1  6  4  0  0  1
  2  3  4  0  0  1
  3  4  4  0  0  1
  4  5  4  0  0  1
  5  6  4  0  0  1
  6  7  1  0  0  2
  7  8  1  0  0  2
  8  9  1  0  0  1
  8 11  1  0  0  1
  9 10  2  0  0  2
  9 14  1  0  0  1
 11 12  2  0  0  2
 11 13  1  0  0  1
 13 14  1  0  0  1
 14 15  1  0  0  2
 15 16  1  0  0  2
 16 17  1  0  0  2
 17 18  1  0  0  2
 18 19  1  0  0  2
 19 20  2  0  0  2
 19 21  2  0  0  2
 21 22  1  0  0  2
 22 23  1  0  0  1
 22 24  1  0  0  1
 23 30  1  0  0  1
 24 25  1  0  0  2
 24 26  1  0  0  1
 26 27  1  0  0  2
 26 28  1  0  0  1
 28 29  1  0  0  2
 28 30  1  0  0  1
 30 31  1  0  0  2
 31 32  1  0  0  2
 32 33  1  0  0  2
 33 34  1  0  0  1
 33 40  1  0  0  1
 34 35  1  0  0  1
 35 36  1  0  0  1
 36 37  1  0  0  2
 36 38  1  0  0  1
 38 39  1  0  0  2
 38 40  1  0  0  1
 40 41  1  0  0  2
  1 42  1  0  0  2
  2 43  1  0  0  2
  3 44  1  0  0  2
  4 45  1  0  0  2
  5 46  1  0  0  2
  7 47  1  0  0  2
  7 48  1  0  0  2
 13 49  1  0  0  2
 13 50  1  0  0  2
 14 51  1  0  0  2
 16 52  1  0  0  2
 16 53  1  0  0  2
 17 54  1  0  0  2
 17 55  1  0  0  2
 18 56  1  0  0  2
 18 57  1  0  0  2
 20 58  1  0  0  2
 20 59  1  0  0  2
 21 60  1  0  0  2
 22 61  1  0  0  2
 24 62  1  0  0  2
 25 63  1  0  0  2
 26 64  1  0  0  2
 27 65  1  0  0  2
 28 66  1  0  0  2
 29 67  1  0  0  2
 30 68  1  0  0  2
 31 69  1  0  0  2
 31 70  1  0  0  2
 33 71  1  0  0  2
 35 72  1  0  0  2
 35 73  1  0  0  2
 36 74  1  0  0  2
 37 75  1  0  0  2
 38 76  1  0  0  2
 39 77  1  0  0  2
 40 78  1  0  0  2
 41 79  1  0  0  2
M  END
> <MOLECULAR_FORMULA>
C26H38N3O11S

> <MOLECULAR_WEIGHT>
600.4

> <NUM_HB_ATOMS>
14 

> <NUM_ROTOR>
11 

> <XLOGP2>
-2.22

$$$$
