REMARK  7 active torsions:
REMARK  status: ('A' for Active; 'I' for Inactive)
REMARK    1  A    between atoms: P_1  and  O5_5 
REMARK    2  A    between atoms: O5_5  and  C5_6 
REMARK    3  A    between atoms: C5_6  and  C4_7 
REMARK    4  A    between atoms: C3_9  and  O3_10 
REMARK    5  A    between atoms: C2_11  and  O2_12 
REMARK    6  A    between atoms: C1_13  and  N9_14 
REMARK    7  A    between atoms: C6_18  and  N6_19 
ROOT
ATOM      1  C4  AMP d          18.251  15.123   7.803  0.00  0.00     0.180 C 
ATOM      2  O4  AMP d          17.143  14.255   7.352  0.00  0.00    -0.353 OA
ATOM      3  C3  AMP d          19.681  14.241   7.547  0.00  0.00     0.182 C 
ATOM      4  C2  AMP d          19.094  12.758   7.471  0.00  0.00     0.198 C 
ATOM      5  C1  AMP d          17.558  12.921   7.042  0.00  0.00     0.262 C 
ENDROOT
BRANCH   5   6
ATOM      6  N9  AMP d          17.304  12.540   5.629  0.00  0.00    -0.294 N 
ATOM      7  C8  AMP d          17.688  13.167   4.432  0.00  0.00     0.214 A 
ATOM      8  N7  AMP d          17.303  12.562   3.279  0.00  0.00    -0.236 NA
ATOM      9  C5  AMP d          16.621  11.461   3.816  0.00  0.00     0.149 A 
ATOM     10  C6  AMP d          15.944  10.376   3.184  0.00  0.00     0.155 A 
ATOM     11  C4  AMP d          16.608  11.437   5.235  0.00  0.00     0.167 A 
ATOM     12  N1  AMP d          15.361   9.436   4.043  0.00  0.00    -0.222 NA
ATOM     13  C2  AMP d          15.416   9.525   5.390  0.00  0.00     0.237 A 
ATOM     14  N3  AMP d          16.035  10.512   6.070  0.00  0.00    -0.222 NA
BRANCH  10  15
ATOM     15  N6  AMP d          15.911  10.318   1.805  0.00  0.00    -0.382 N 
ATOM     16  H10 AMP d          15.426   9.541   1.334  0.00  0.00     0.157 HD
ATOM     17  H11 AMP d          16.371  11.052   1.248  0.00  0.00     0.157 HD
ENDBRANCH  10  15
ENDBRANCH   5   6
BRANCH   4  18
ATOM     18  O2  AMP d          19.106  12.138   8.740  0.00  0.00    -0.388 OA
ATOM     19  H7  AMP d          19.999  12.095   9.062  0.00  0.00     0.210 HD
ENDBRANCH   4  18
BRANCH   1  20
ATOM     20  C5  AMP d          18.248  16.544   7.210  0.00  0.00     0.217 C 
BRANCH  20  21
ATOM     21  O5  AMP d          19.357  17.188   7.918  0.00  0.00    -0.280 OA
BRANCH  21  22
ATOM     22  P   AMP d          19.302  18.800   8.267  0.00  0.00     0.422 P 
ATOM     23  O1P AMP d          20.546  19.039   8.992  0.00  0.00    -0.617 OA
ATOM     24  O2P AMP d          19.250  19.530   6.975  0.00  0.00    -0.617 OA
ATOM     25  O3P AMP d          18.084  19.087   9.118  0.00  0.00    -0.617 OA
ENDBRANCH  21  22
ENDBRANCH  20  21
ENDBRANCH   1  20
BRANCH   3  26
ATOM     26  O3  AMP d          20.630  14.509   8.671  0.00  0.00    -0.390 OA
ATOM     27  H5  AMP d          20.828  15.438   8.702  0.00  0.00     0.210 HD
ENDBRANCH   3  26
TORSDOF 7
