REMARK  4 active torsions:
REMARK  status: ('A' for Active; 'I' for Inactive)
REMARK    1  A    between atoms: C07_7  and  N17_17 
REMARK    2  A    between atoms: C09_9  and  N10_10 
REMARK    3  A    between atoms: N10_10  and  C11_11 
REMARK    4  A    between atoms: N20_20  and  C23_23 
ROOT
ATOM      1  N01 P55 d          19.904   9.495  19.746  0.00  0.00    -0.162 NA
ATOM      2  C02 P55 d          20.196   9.728  18.444  0.00  0.00     0.166 A 
ATOM      3  C03 P55 d          21.195   8.824  18.037  0.00  0.00     0.112 A 
ATOM      4  C04 P55 d          21.478   8.019  19.208  0.00  0.00     0.210 A 
ATOM      5  N05 P55 d          20.674   8.474  20.214  0.00  0.00    -0.041 N 
ATOM      6  N06 P55 d          22.318   7.001  19.452  0.00  0.00    -0.040 NA
ATOM      7  C07 P55 d          22.310   6.497  20.684  0.00  0.00     0.742 A 
ATOM      8  N08 P55 d          21.542   6.932  21.678  0.00  0.00     0.130 NA
ATOM      9  C09 P55 d          20.716   7.939  21.422  0.00  0.00     0.745 A 
ATOM     10  C25 P55 d          21.811   8.764  16.744  0.00  0.00     0.105 C 
ATOM     11  N26 P55 d          22.310   8.809  15.698  0.00  0.00    -0.191 NA
ENDROOT
BRANCH   9  12
ATOM     12  N10 P55 d          19.917   8.461  22.386  0.00  0.00    -0.188 N 
ATOM     13  H2  P55 d          19.201   9.144  22.101  0.00  0.00     0.184 HD
BRANCH  12  14
ATOM     14  C11 P55 d          20.002   8.139  23.705  0.00  0.00     0.049 A 
ATOM     15  C12 P55 d          20.159   6.817  24.128  0.00  0.00     0.030 A 
ATOM     16  C13 P55 d          20.127   6.485  25.480  0.00  0.00     0.002 A 
ATOM     17  C14 P55 d          19.942   7.489  26.432  0.00  0.00     0.000 A 
ATOM     18  C15 P55 d          19.849   8.818  26.020  0.00  0.00     0.002 A 
ATOM     19  C16 P55 d          19.885   9.146  24.664  0.00  0.00     0.030 A 
ENDBRANCH  12  14
ENDBRANCH   9  12
BRANCH   7  20
ATOM     20  N17 P55 d          23.166   5.402  20.961  0.00  0.00    -0.210 N 
ATOM     21  C18 P55 d          23.255   4.837  22.319  0.00  0.00     0.169 C 
ATOM     22  C19 P55 d          22.545   3.481  22.411  0.00  0.00     0.255 C 
ATOM     23  N20 P55 d          22.997   2.621  21.300  0.00  0.00    -0.068 N 
ATOM     24  C21 P55 d          22.832   3.184  19.950  0.00  0.00     0.255 C 
ATOM     25  H12 P55 d          23.992   2.537  21.434  0.00  0.00     0.280 HD
ATOM     26  C22 P55 d          23.520   4.542  19.817  0.00  0.00     0.169 C 
BRANCH  23  27
ATOM     27  C23 P55 d          22.474   1.245  21.343  0.00  0.00     0.230 C 
ATOM     28  C24 P55 d          20.945   1.208  21.252  0.00  0.00     0.034 C 
ENDBRANCH  23  27
ENDBRANCH   7  20
TORSDOF 4
