REMARK  6 active torsions:
REMARK  status: ('A' for Active; 'I' for Inactive)
REMARK    1  A    between atoms: CAC_1  and  CA_2 
REMARK    2  A    between atoms: CA_2  and  CB_3 
REMARK    3  A    between atoms: CB_3  and  CBC_4 
REMARK    4  A    between atoms: CB_3  and  CG_5 
REMARK    5  A    between atoms: CB_3  and  OHB_13 
REMARK    6  A    between atoms: CG_5  and  CGC_6 
ROOT
ATOM      1  CB  FLC d          85.830  -2.170  41.084  0.00  0.00     0.164 C 
ENDROOT
BRANCH   1   2
ATOM      2  CA  FLC d          87.351  -2.375  41.068  0.00  0.00     0.163 C 
BRANCH   2   3
ATOM      3  CAC FLC d          87.943  -2.356  42.444  0.00  0.00     0.176 C 
ATOM      4  OA1 FLC d          88.723  -3.274  42.791  0.00  0.00    -0.648 OA
ATOM      5  OA2 FLC d          87.614  -1.398  43.180  0.00  0.00    -0.648 OA
ENDBRANCH   2   3
ENDBRANCH   1   2
BRANCH   1   6
ATOM      6  CBC FLC d          85.193  -2.588  42.412  0.00  0.00     0.210 C 
ATOM      7  OB1 FLC d          84.707  -1.771  43.257  0.00  0.00    -0.646 OA
ATOM      8  OB2 FLC d          85.179  -3.818  42.632  0.00  0.00    -0.646 OA
ENDBRANCH   1   6
BRANCH   1   9
ATOM      9  CG  FLC d          85.455  -0.718  40.706  0.00  0.00     0.163 C 
BRANCH   9  10
ATOM     10  CGC FLC d          84.151  -0.606  39.928  0.00  0.00     0.176 C 
ATOM     11  OG1 FLC d          83.344   0.277  40.240  0.00  0.00    -0.648 OA
ATOM     12  OG2 FLC d          83.905  -1.379  38.982  0.00  0.00    -0.648 OA
ENDBRANCH   9  10
ENDBRANCH   1   9
BRANCH   1  13
ATOM     13  OHB FLC d          85.382  -3.119  40.109  0.00  0.00    -0.378 OA
ATOM     14  H5  FLC d          84.434  -3.094  40.056  0.00  0.00     0.211 HD
ENDBRANCH   1  13
TORSDOF 6
