REMARK  6 active torsions:
REMARK  status: ('A' for Active; 'I' for Inactive)
REMARK    1  A    between atoms: C9_9  and  C5_5 
REMARK    2  A    between atoms: N10_10  and  C9_9 
REMARK    3  A    between atoms: S11_11  and  N10_10 
REMARK    4  A    between atoms: C26_26  and  S11_11 
REMARK    5  A    between atoms: N21_21  and  C20_20 
REMARK    6  A    between atoms: C22_22  and  N21_21 
ROOT
ATOM      1  S11 A94 d          20.688  22.313  17.574  0.00  0.00     0.259 S 
ATOM      2  O12 A94 d          19.992  21.874  18.751  0.00  0.00    -0.201 OA
ATOM      3  O13 A94 d          21.935  21.702  17.235  0.00  0.00    -0.201 OA
ENDROOT
BRANCH   1   4
ATOM      4  N10 A94 d          21.156  23.973  17.857  0.00  0.00    -0.310 N 
ATOM      5  H9  A94 d          22.064  24.287  17.578  0.00  0.00     0.172 HD
BRANCH   4   6
ATOM      6  C9  A94 d          20.221  24.917  18.506  0.00  0.00     0.192 C 
BRANCH   6   7
ATOM      7  C5  A94 d          19.315  25.651  17.538  0.00  0.00     0.073 A 
ATOM      8  N4  A94 d          18.064  25.969  17.970  0.00  0.00    -0.066 NA
ATOM      9  C3  A94 d          17.252  26.610  17.126  0.00  0.00     0.720 A 
ATOM     10  N2  A94 d          17.564  26.974  15.866  0.00  0.00    -0.068 NA
ATOM     11  N8  A94 d          16.030  26.911  17.577  0.00  0.00    -0.231 N 
ATOM     12  C1  A94 d          18.816  26.652  15.448  0.00  0.00     0.051 A 
ATOM     13  C6  A94 d          19.744  25.988  16.241  0.00  0.00     0.057 A 
ATOM     14  C7  A94 d          19.159  27.004  14.183  0.00  0.00     0.071 C 
ATOM     15  H5  A94 d          15.363  27.405  16.967  0.00  0.00     0.174 HD
ATOM     16  H6  A94 d          15.755  26.649  18.534  0.00  0.00     0.174 HD
ENDBRANCH   6   7
ENDBRANCH   4   6
ENDBRANCH   1   4
BRANCH   1  17
ATOM     17  C26 A94 d          19.639  22.356  16.227  0.00  0.00     0.081 A 
ATOM     18  C25 A94 d          18.255  21.991  16.372  0.00  0.00     0.025 A 
ATOM     19  C24 A94 d          17.374  22.049  15.234  0.00  0.00     0.004 A 
ATOM     20  C23 A94 d          17.893  22.478  13.961  0.00  0.00     0.029 A 
ATOM     21  C22 A94 d          19.300  22.847  13.822  0.00  0.00     0.033 A 
ATOM     22  C27 A94 d          20.151  22.778  14.965  0.00  0.00     0.054 A 
BRANCH  21  23
ATOM     23  N21 A94 d          19.821  23.267  12.619  0.00  0.00    -0.365 N 
ATOM     24  H15 A94 d          20.833  23.176  12.451  0.00  0.00     0.165 HD
BRANCH  23  25
ATOM     25  C20 A94 d          18.967  23.843  11.566  0.00  0.00     0.101 C 
ATOM     26  C16 A94 d          19.382  24.472  10.476  0.00  0.00     0.034 C 
ATOM     27  C15 A94 d          20.705  24.806   9.941  0.00  0.00     0.073 C 
ATOM     28  C17 A94 d          18.428  25.001   9.488  0.00  0.00     0.290 C 
ATOM     29  C14 A94 d          20.530  25.733   8.765  0.00  0.00     0.184 C 
ATOM     30  O18 A94 d          19.093  25.705   8.547  0.00  0.00    -0.317 OA
ATOM     31  O19 A94 d          17.244  24.826   9.516  0.00  0.00    -0.260 OA
ENDBRANCH  23  25
ENDBRANCH  21  23
ENDBRANCH   1  17
TORSDOF 6
