REMARK  4 active torsions:
REMARK  status: ('A' for Active; 'I' for Inactive)
REMARK    1  A    between atoms: C2_2  and  O2_7 
REMARK    2  A    between atoms: C3_3  and  O3_8 
REMARK    3  A    between atoms: C4_4  and  O4_9 
REMARK    4  A    between atoms: C6_6  and  O6_10 
ROOT
ATOM      1  C1  CTS d          22.168  43.831  69.976  0.00  0.00     0.269 C 
ATOM      2  C2  CTS d          21.777  42.891  71.131  0.00  0.00     0.175 C 
ATOM      3  C3  CTS d          23.040  42.266  71.700  0.00  0.00     0.179 C 
ATOM      4  C4  CTS d          23.674  41.442  70.566  0.00  0.00     0.182 C 
ATOM      5  C5  CTS d          24.176  42.338  69.461  0.00  0.00     0.247 C 
ATOM      6  C6  CTS d          24.480  41.639  68.154  0.00  0.00     0.153 C 
ATOM      7  N   CTS d          23.132  43.266  69.046  0.00  0.00    -0.059 N 
ATOM      8  C7  CTS d          24.433  42.794  67.194  0.00  0.00     0.061 C 
ATOM      9  C8  CTS d          23.279  43.677  67.656  0.00  0.00     0.238 C 
ATOM     10  H12 CTS d          22.490  42.526  68.810  0.00  0.00     0.280 HD
ENDROOT
BRANCH   2  11
ATOM     11  O2  CTS d          21.042  43.741  72.052  0.00  0.00    -0.391 OA
ATOM     12  H8  CTS d          20.272  44.087  71.616  0.00  0.00     0.210 HD
ENDBRANCH   2  11
BRANCH   3  13
ATOM     13  O3  CTS d          22.656  41.429  72.779  0.00  0.00    -0.390 OA
ATOM     14  H9  CTS d          23.422  40.980  73.118  0.00  0.00     0.210 HD
ENDBRANCH   3  13
BRANCH   4  15
ATOM     15  O4  CTS d          24.819  40.707  70.965  0.00  0.00    -0.391 OA
ATOM     16  H10 CTS d          24.583  40.112  71.667  0.00  0.00     0.210 HD
ENDBRANCH   4  15
BRANCH   6  17
ATOM     17  O6  CTS d          23.453  40.722  67.785  0.00  0.00    -0.393 OA
ATOM     18  H11 CTS d          23.682  40.306  66.962  0.00  0.00     0.210 HD
ENDBRANCH   6  17
TORSDOF 4
