1tok_ligand

Created by X-TOOL on Fri Sep 26 17:34:26 2014
 10  9  0  0  0  0  0  0  0  0999 V2000
   36.8250   19.4470   -3.8260  C 0  5  0  1  0  3
   36.7530   20.5780   -3.2830  O 0  0  0  1  0  1
   36.9220   18.4380   -3.0830  O 0  0  0  1  0  1
   36.7050   19.3960   -5.3140  C 0  0  0  2  0  3
   36.4720   18.3330   -6.0920  C 0  0  0  2  0  3
   36.4700   16.9220   -5.6560  C 0  5  0  1  0  3
   35.5520   16.3540   -4.9950  O 0  0  0  1  0  1
   37.4690   16.2720   -6.0060  O 0  0  0  1  0  1
   36.8223   20.3466   -5.8322  H 0  0  0  1  0  1
   36.2647   18.5258   -7.1436  H 0  0  0  1  0  1
  1  2  2  0  0  2
  1  3  2  0  0  2
  1  4  1  0  0  2
  4  5  2  0  0  2
  5  6  1  0  0  2
  6  7  2  0  0  2
  6  8  2  0  0  2
  4  9  1  0  0  2
  5 10  1  0  0  2
M  END
> <MOLECULAR_FORMULA>
C4H2O4

> <MOLECULAR_WEIGHT>
114.0

> <NUM_HB_ATOMS>
4  

> <NUM_ROTOR>
0  

> <XLOGP2>
-0.92

$$$$
