REMARK  10 active torsions:
REMARK  status: ('A' for Active; 'I' for Inactive)
REMARK    1  A    between atoms: O3B_8  and  PG_1 
REMARK    2  A    between atoms: PB_5  and  O3B_8 
REMARK    3  A    between atoms: O3A_12  and  PB_5 
REMARK    4  A    between atoms: PA_9  and  O3A_12 
REMARK    5  A    between atoms: PA_9  and  O5_13 
REMARK    6  A    between atoms: O5_13  and  C5_14 
REMARK    7  A    between atoms: C5_14  and  C4_15 
REMARK    8  A    between atoms: C3_17  and  O3_18 
REMARK    9  A    between atoms: C2_19  and  O2_20 
REMARK   10  A    between atoms: C1_21  and  N9_22 
ROOT
ATOM      1  C4  ATP d         -18.858  48.692  -1.433  0.00  0.00     0.180 C 
ATOM      2  O4  ATP d         -17.448  48.646  -1.163  0.00  0.00    -0.353 OA
ATOM      3  C3  ATP d         -19.246  47.259  -1.787  0.00  0.00     0.182 C 
ATOM      4  C2  ATP d         -18.087  46.423  -1.277  0.00  0.00     0.198 C 
ATOM      5  C1  ATP d         -16.918  47.363  -1.508  0.00  0.00     0.262 C 
ENDROOT
BRANCH   1   6
ATOM      6  C5  ATP d         -19.563  49.197  -0.162  0.00  0.00     0.216 C 
BRANCH   6   7
ATOM      7  O5  ATP d         -19.393  48.220   0.862  0.00  0.00    -0.287 OA
BRANCH   7   8
ATOM      8  PA  ATP d         -18.783  48.491   2.330  0.00  0.00     0.417 P 
ATOM      9  O1A ATP d         -18.192  47.191   2.783  0.00  0.00    -0.624 OA
ATOM     10  O2A ATP d         -17.936  49.731   2.358  0.00  0.00    -0.624 OA
BRANCH   8  11
ATOM     11  O3A ATP d         -20.150  48.792   3.123  0.00  0.00    -0.180 OA
BRANCH  11  12
ATOM     12  PB  ATP d         -20.467  48.744   4.701  0.00  0.00     0.428 P 
ATOM     13  O1B ATP d         -21.382  49.906   4.947  0.00  0.00    -0.624 OA
ATOM     14  O2B ATP d         -19.203  48.686   5.502  0.00  0.00    -0.624 OA
BRANCH  12  15
ATOM     15  O3B ATP d         -21.282  47.352   4.791  0.00  0.00    -0.173 OA
BRANCH  15  16
ATOM     16  PG  ATP d         -21.639  46.538   6.156  0.00  0.00     0.431 P 
ATOM     17  O1G ATP d         -20.370  46.439   6.959  0.00  0.00    -0.616 OA
ATOM     18  O2G ATP d         -22.104  45.209   5.609  0.00  0.00    -0.616 OA
ATOM     19  O3G ATP d         -22.751  47.351   6.794  0.00  0.00    -0.616 OA
ENDBRANCH  15  16
ENDBRANCH  12  15
ENDBRANCH  11  12
ENDBRANCH   8  11
ENDBRANCH   7   8
ENDBRANCH   6   7
ENDBRANCH   1   6
BRANCH   3  20
ATOM     20  O3  ATP d         -19.331  47.129  -3.213  0.00  0.00    -0.390 OA
ATOM     21  H5  ATP d         -19.573  46.237  -3.435  0.00  0.00     0.210 HD
ENDBRANCH   3  20
BRANCH   5  22
ATOM     22  N9  ATP d         -15.751  47.015  -0.666  0.00  0.00    -0.294 N 
ATOM     23  C8  ATP d         -15.671  47.130   0.674  0.00  0.00     0.214 A 
ATOM     24  N7  ATP d         -14.457  46.730   1.134  0.00  0.00    -0.236 NA
ATOM     25  C5  ATP d         -13.728  46.353   0.066  0.00  0.00     0.149 A 
ATOM     26  C6  ATP d         -12.353  45.828  -0.153  0.00  0.00     0.155 A 
ATOM     27  C4  ATP d         -14.581  46.543  -1.123  0.00  0.00     0.167 A 
ATOM     28  N6  ATP d         -11.520  45.629   0.899  0.00  0.00    -0.382 N 
ATOM     29  N1  ATP d         -11.975  45.559  -1.429  0.00  0.00    -0.222 NA
ATOM     30  H10 ATP d         -10.569  45.265   0.742  0.00  0.00     0.157 HD
ATOM     31  H11 ATP d         -11.838  45.842   1.855  0.00  0.00     0.157 HD
ATOM     32  C2  ATP d         -12.809  45.761  -2.478  0.00  0.00     0.237 A 
ATOM     33  N3  ATP d         -14.070  46.237  -2.350  0.00  0.00    -0.222 NA
ENDBRANCH   5  22
BRANCH   4  34
ATOM     34  O2  ATP d         -17.927  45.187  -1.970  0.00  0.00    -0.388 OA
ATOM     35  H7  ATP d         -17.770  45.360  -2.891  0.00  0.00     0.210 HD
ENDBRANCH   4  34
TORSDOF 10
