REMARK  0 active torsions:
REMARK  status: ('A' for Active; 'I' for Inactive)
ROOT
ATOM      1  C1  TEP d          28.374   3.630  40.577  0.00  0.00     0.164 C 
ATOM      2  N1  TEP d          28.545   5.019  40.099  0.00  0.00    -0.269 N 
ATOM      3  C2  TEP d          27.641   6.012  40.499  0.00  0.00     0.332 A 
ATOM      4  O2  TEP d          26.735   5.740  41.288  0.00  0.00    -0.246 OA
ATOM      5  N3  TEP d          27.793   7.320  40.027  0.00  0.00    -0.286 N 
ATOM      6  C3  TEP d          26.832   8.370  40.436  0.00  0.00     0.163 C 
ATOM      7  C4  TEP d          28.846   7.631  39.157  0.00  0.00     0.167 A 
ATOM      8  C5  TEP d          29.744   6.642  38.770  0.00  0.00     0.149 A 
ATOM      9  C6  TEP d          29.596   5.341  39.232  0.00  0.00     0.281 A 
ATOM     10  O6  TEP d          30.400   4.473  38.894  0.00  0.00    -0.265 OA
ATOM     11  N7  TEP d          30.630   7.217  37.961  0.00  0.00    -0.343 N 
ATOM     12  C8  TEP d          30.315   8.506  37.846  0.00  0.00     0.210 A 
ATOM     13  N9  TEP d          29.230   8.759  38.574  0.00  0.00    -0.224 NA
ATOM     14  H7  TEP d          31.423   6.746  37.502  0.00  0.00     0.167 HD
ENDROOT
TORSDOF 0
