REMARK  2 active torsions:
REMARK  status: ('A' for Active; 'I' for Inactive)
REMARK    1  A    between atoms: C1_1  and  C7_9 
REMARK    2  A    between atoms: C4_5  and  O4_6 
ROOT
ATOM      1  C1  FHB d          14.893  12.354  40.667  0.00  0.00     0.043 A 
ATOM      2  C2  FHB d          15.485  11.337  39.878  0.00  0.00     0.063 A 
ATOM      3  C3  FHB d          15.021  10.043  39.961  0.00  0.00     0.150 A 
ATOM      4  F3  FHB d          15.606   9.063  39.221  0.00  0.00    -0.203 F 
ATOM      5  C4  FHB d          13.899   9.751  40.752  0.00  0.00     0.104 A 
ATOM      6  C5  FHB d          13.306  10.735  41.522  0.00  0.00     0.041 A 
ATOM      7  C6  FHB d          13.793  12.051  41.467  0.00  0.00     0.021 A 
ENDROOT
BRANCH   1   8
ATOM      8  C7  FHB d          15.475  13.750  40.590  0.00  0.00     0.209 C 
ATOM      9  O2  FHB d          14.987  14.651  41.243  0.00  0.00    -0.644 OA
ATOM     10  O1  FHB d          16.405  14.010  39.825  0.00  0.00    -0.644 OA
ENDBRANCH   1   8
BRANCH   5  11
ATOM     11  O4  FHB d          13.470   8.441  40.765  0.00  0.00    -0.358 OA
ATOM     12  H2  FHB d          14.005   7.928  40.171  0.00  0.00     0.217 HD
ENDBRANCH   5  11
TORSDOF 2
