REMARK  8 active torsions:
REMARK  status: ('A' for Active; 'I' for Inactive)
REMARK    1  A    between atoms: C1_1  and  C7_7 
REMARK    2  A    between atoms: C3_3  and  O1_8 
REMARK    3  A    between atoms: C4_4  and  O2_9 
REMARK    4  A    between atoms: C5_5  and  O3_10 
REMARK    5  A    between atoms: O1_8  and  P1_13 
REMARK    6  A    between atoms: O3_10  and  C8_17 
REMARK    7  A    between atoms: C8_17  and  C10_19 
REMARK    8  A    between atoms: C8_17  and  P2_22 
ROOT
ATOM      1  C1  RC1 d          55.803  11.935  27.855  0.00  0.00     0.020 C 
ATOM      2  C2  RC1 d          54.622  11.169  28.208  0.00  0.00     0.022 C 
ATOM      3  C3  RC1 d          54.765   9.913  29.075  0.00  0.00     0.190 C 
ATOM      4  C4  RC1 d          56.131   9.863  29.933  0.00  0.00     0.180 C 
ATOM      5  C5  RC1 d          57.321  10.041  28.926  0.00  0.00     0.160 C 
ATOM      6  C6  RC1 d          57.186  11.515  28.332  0.00  0.00     0.080 C 
ENDROOT
BRANCH   5   7
ATOM      7  O3  RC1 d          58.554   9.962  29.595  0.00  0.00    -0.349 OA
BRANCH   7   8
ATOM      8  C8  RC1 d          59.351   8.764  29.312  0.00  0.00     0.259 C 
ATOM      9  C9  RC1 d          58.732   7.262  29.179  0.00  0.00     0.074 C 
BRANCH   8  10
ATOM     10  C10 RC1 d          60.079   9.371  28.040  0.00  0.00     0.223 C 
ATOM     11  O9  RC1 d          60.201  10.393  27.293  0.00  0.00    -0.645 OA
ATOM     12  O10 RC1 d          60.709   8.296  27.839  0.00  0.00    -0.645 OA
ENDBRANCH   8  10
BRANCH   8  13
ATOM     13  P2  RC1 d          60.599   8.768  30.681  0.00  0.00     0.306 P 
ATOM     14  O11 RC1 d          59.755   8.262  31.870  0.00  0.00    -0.637 OA
ATOM     15  O12 RC1 d          61.188  10.127  30.969  0.00  0.00    -0.637 OA
ATOM     16  O13 RC1 d          61.665   7.697  30.342  0.00  0.00    -0.637 OA
ENDBRANCH   8  13
ENDBRANCH   7   8
ENDBRANCH   5   7
BRANCH   4  17
ATOM     17  O2  RC1 d          56.081   8.599  30.611  0.00  0.00    -0.390 OA
ATOM     18  H7  RC1 d          55.999   7.901  29.972  0.00  0.00     0.210 HD
ENDBRANCH   4  17
BRANCH   3  19
ATOM     19  O1  RC1 d          54.621   8.634  28.146  0.00  0.00    -0.271 OA
BRANCH  19  20
ATOM     20  P1  RC1 d          53.219   7.733  27.971  0.00  0.00     0.422 P 
ATOM     21  O6  RC1 d          52.184   8.687  27.372  0.00  0.00    -0.617 OA
ATOM     22  O7  RC1 d          52.895   7.266  29.441  0.00  0.00    -0.617 OA
ATOM     23  O8  RC1 d          53.740   6.669  26.974  0.00  0.00    -0.617 OA
ENDBRANCH  19  20
ENDBRANCH   3  19
BRANCH   1  24
ATOM     24  C7  RC1 d          55.694  13.167  27.027  0.00  0.00     0.205 C 
ATOM     25  O4  RC1 d          54.818  13.221  26.167  0.00  0.00    -0.644 OA
ATOM     26  O5  RC1 d          56.484  14.050  27.286  0.00  0.00    -0.644 OA
ENDBRANCH   1  24
TORSDOF 8
