REMARK  12 active torsions:
REMARK  status: ('A' for Active; 'I' for Inactive)
REMARK       I    between atoms: N_4  and  C_1 
REMARK    1  A    between atoms: CA_5  and  N_4 
REMARK    2  A    between atoms: C_6  and  CA_5 
REMARK    3  A    between atoms: CA_5  and  CB_8 
REMARK       I    between atoms: N_20  and  C_6 
REMARK    4  A    between atoms: CB_8  and  CG_9 
REMARK    5  A    between atoms: CZ_14  and  OH_15 
REMARK    6  A    between atoms: OH_15  and  P_16 
REMARK    7  A    between atoms: CA_22  and  N_20 
REMARK    8  A    between atoms: CA_22  and  C_23 
REMARK       I    between atoms: C_23  and  N_28 
REMARK    9  A    between atoms: N_28  and  CA_29 
REMARK   10  A    between atoms: CA_29  and  C_30 
REMARK   11  A    between atoms: CA_29  and  CB_32 
REMARK       I    between atoms: C_30  and  N_36 
REMARK   12  A    between atoms: CB_32  and  CG_33 
REMARK       I    between atoms: CG_33  and  ND2_35 
ROOT
ATOM      1  C   ACE d          13.005 -13.827   0.980  0.00  0.00     0.241 C 
ATOM      2  O   ACE d          12.720 -14.984   1.113  0.00  0.00    -0.271 OA
ATOM      3  N   ACE d          13.624 -13.108   1.865  0.00  0.00    -0.341 N 
ATOM      4  H12 ACE d          13.795 -12.144   1.661  0.00  0.00     0.163 HD
ENDROOT
BRANCH   3   5
ATOM      5  CA  ACE d          14.074 -13.630   3.121  0.00  0.00     0.114 C 
ATOM      6  CB1 ACE d          15.198 -14.584   2.817  0.00  0.00     0.041 C 
ATOM      7  CG1 ACE d          16.504 -13.867   3.044  0.00  0.00     0.003 C 
ATOM      8  CG2 ACE d          16.127 -12.451   3.407  0.00  0.00     0.003 C 
ATOM      9  CB2 ACE d          14.713 -12.546   3.948  0.00  0.00     0.041 C 
BRANCH   5  10
ATOM     10  C   ACE d          12.922 -14.281   3.909  0.00  0.00     0.246 C 
ATOM     11  O   ACE d          13.111 -15.257   4.591  0.00  0.00    -0.271 OA
ATOM     12  N   ACE d          11.776 -13.667   3.839  0.00  0.00    -0.345 N 
ATOM     13  H21 ACE d          11.706 -12.857   3.257  0.00  0.00     0.163 HD
BRANCH  12  14
ATOM     14  CA  ACE d          10.598 -14.097   4.561  0.00  0.00     0.185 C 
BRANCH  14  15
ATOM     15  C   ACE d           9.577 -14.755   3.655  0.00  0.00     0.238 C 
ATOM     16  O   ACE d           8.437 -14.849   3.987  0.00  0.00    -0.271 OA
ATOM     17  N   ACE d          10.037 -15.274   2.567  0.00  0.00    -0.368 N 
ATOM     18  H27 ACE d           9.415 -15.724   1.926  0.00  0.00     0.159 HD
ATOM     19  H28 ACE d          11.015 -15.227   2.365  0.00  0.00     0.159 HD
ENDBRANCH  14  15
BRANCH  14  20
ATOM     20  CB  ACE d           9.997 -12.913   5.301  0.00  0.00     0.137 C 
BRANCH  20  21
ATOM     21  CG  ACE d           9.427 -11.802   4.442  0.00  0.00     0.217 C 
ATOM     22  OD1 ACE d           9.885 -11.695   3.236  0.00  0.00    -0.274 OA
ATOM     23  ND2 ACE d           8.575 -10.994   4.985  0.00  0.00    -0.370 N 
ATOM     24  H25 ACE d           8.179 -10.250   4.447  0.00  0.00     0.159 HD
ATOM     25  H26 ACE d           8.312 -11.114   5.942  0.00  0.00     0.159 HD
ENDBRANCH  20  21
ENDBRANCH  14  20
ENDBRANCH  12  14
ENDBRANCH   5  10
ENDBRANCH   3   5
BRANCH   1  26
ATOM     26  CA  ACE d          12.598 -13.066  -0.286  0.00  0.00     0.180 C 
BRANCH  26  27
ATOM     27  N   ACE d          12.846 -13.874  -1.473  0.00  0.00    -0.348 N 
ATOM     28  C   ACE d          13.575 -13.482  -2.478  0.00  0.00     0.214 C 
ATOM     29  O   ACE d          14.152 -12.444  -2.542  0.00  0.00    -0.274 OA
ATOM     30  CH3 ACE d          13.674 -14.438  -3.643  0.00  0.00     0.117 C 
ATOM     31  H4  ACE d          12.432 -14.783  -1.518  0.00  0.00     0.163 HD
ENDBRANCH  26  27
BRANCH  26  32
ATOM     32  CB  ACE d          11.122 -12.633  -0.236  0.00  0.00     0.073 C 
BRANCH  32  33
ATOM     33  CG  ACE d          10.735 -11.926  -1.536  0.00  0.00    -0.056 A 
ATOM     34  CD1 ACE d          10.211 -12.647  -2.557  0.00  0.00     0.010 A 
ATOM     35  CE1 ACE d           9.904 -12.024  -3.729  0.00  0.00     0.038 A 
ATOM     36  CZ  ACE d          10.103 -10.680  -3.942  0.00  0.00     0.082 A 
ATOM     37  CE2 ACE d          10.638  -9.957  -2.907  0.00  0.00     0.038 A 
ATOM     38  CD2 ACE d          10.948 -10.582  -1.718  0.00  0.00     0.010 A 
BRANCH  36  39
ATOM     39  OH  ACE d           9.772 -10.214  -5.147  0.00  0.00    -0.240 OA
BRANCH  39  40
ATOM     40  P   ACE d          10.038  -8.780  -5.680  0.00  0.00     0.427 P 
ATOM     41  O1P ACE d           9.932  -8.851  -7.159  0.00  0.00    -0.617 OA
ATOM     42  O2P ACE d           9.163  -7.829  -5.111  0.00  0.00    -0.617 OA
ATOM     43  O3P ACE d          11.301  -8.430  -5.467  0.00  0.00    -0.617 OA
ENDBRANCH  39  40
ENDBRANCH  36  39
ENDBRANCH  32  33
ENDBRANCH  26  32
ENDBRANCH   1  26
TORSDOF 12
