REMARK  4 active torsions:
REMARK  status: ('A' for Active; 'I' for Inactive)
REMARK       I    between atoms: C8_2  and  N2_4 
REMARK    1  A    between atoms: N2_4  and  C3_5 
REMARK    2  A    between atoms: C4_6  and  O4_7 
REMARK    3  A    between atoms: C5_8  and  O5_9 
REMARK    4  A    between atoms: C6_10  and  O6_11 
ROOT
ATOM      1  C3  F34 d         -14.160   3.960  -1.816  0.00  0.00     0.141 C 
ATOM      2  C4  F34 d         -14.683   2.922  -0.858  0.00  0.00     0.173 C 
ATOM      3  C5  F34 d         -15.327   3.480   0.384  0.00  0.00     0.179 C 
ATOM      4  C6  F34 d         -16.587   4.338   0.203  0.00  0.00     0.175 C 
ATOM      5  C7  F34 d         -17.102   4.603  -1.218  0.00  0.00     0.266 C 
ATOM      6  N1  F34 d         -16.208   5.307  -2.139  0.00  0.00    -0.071 N 
ATOM      7  C2  F34 d         -14.830   5.341  -1.668  0.00  0.00     0.260 C 
ATOM      8  H14 F34 d         -16.536   6.254  -2.246  0.00  0.00     0.277 HD
ATOM      9  H15 F34 d         -16.232   4.840  -3.032  0.00  0.00     0.277 HD
ENDROOT
BRANCH   1  10
ATOM     10  N2  F34 d         -14.038   3.318  -3.133  0.00  0.00    -0.353 N 
ATOM     11  C8  F34 d         -15.035   2.794  -3.851  0.00  0.00     0.214 C 
ATOM     12  O8  F34 d         -16.205   2.862  -3.501  0.00  0.00    -0.274 OA
ATOM     13  C9  F34 d         -14.637   2.165  -5.169  0.00  0.00     0.117 C 
ATOM     14  H4  F34 d         -13.121   3.269  -3.529  0.00  0.00     0.163 HD
ENDBRANCH   1  10
BRANCH   2  15
ATOM     15  O4  F34 d         -13.530   2.141  -0.403  0.00  0.00    -0.391 OA
ATOM     16  H7  F34 d         -13.822   1.473   0.206  0.00  0.00     0.210 HD
ENDBRANCH   2  15
BRANCH   3  17
ATOM     17  O5  F34 d         -15.590   2.327   1.174  0.00  0.00    -0.390 OA
ATOM     18  H9  F34 d         -14.773   1.880   1.361  0.00  0.00     0.210 HD
ENDBRANCH   3  17
BRANCH   4  19
ATOM     19  O6  F34 d         -17.618   3.616   0.859  0.00  0.00    -0.391 OA
ATOM     20  H11 F34 d         -17.394   3.509   1.776  0.00  0.00     0.210 HD
ENDBRANCH   4  19
TORSDOF 4
