REMARK  7 active torsions:
REMARK  status: ('A' for Active; 'I' for Inactive)
REMARK    1  A    between atoms: C07_7  and  N03_3 
REMARK    2  A    between atoms: N03_3  and  C09_9 
REMARK    3  A    between atoms: C06_6  and  N04_4 
REMARK    4  A    between atoms: N04_4  and  C16_16 
REMARK    5  A    between atoms: C14_14  and  O25_25 
REMARK    6  A    between atoms: O25_25  and  C15_15 
REMARK    7  A    between atoms: C19_19  and  C22_22 
ROOT
ATOM      1  N01 MOL d           3.847  31.808   9.156  0.00  0.00    -0.075 NA
ATOM      2  N02 MOL d           4.502  30.952   7.058  0.00  0.00    -0.045 NA
ATOM      3  C05 MOL d           4.405  30.760   9.800  0.00  0.00     0.140 A 
ATOM      4  C06 MOL d           3.897  31.890   7.813  0.00  0.00     0.728 A 
ATOM      5  C07 MOL d           5.073  29.873   7.658  0.00  0.00     0.148 A 
ATOM      6  C08 MOL d           5.029  29.755   9.054  0.00  0.00     0.071 A 
ENDROOT
BRANCH   5   7
ATOM      7  N03 MOL d           5.704  28.843   6.871  0.00  0.00    -0.338 N 
ATOM      8  H1  MOL d           5.997  27.969   7.330  0.00  0.00     0.167 HD
BRANCH   7   9
ATOM      9  C09 MOL d           5.935  29.005   5.460  0.00  0.00     0.067 A 
ATOM     10  C10 MOL d           4.894  29.362   4.608  0.00  0.00     0.032 A 
ATOM     11  C11 MOL d           5.118  29.519   3.246  0.00  0.00     0.002 A 
ATOM     12  C12 MOL d           6.387  29.306   2.728  0.00  0.00     0.003 A 
ATOM     13  C13 MOL d           7.425  28.934   3.574  0.00  0.00     0.039 A 
ATOM     14  C14 MOL d           7.209  28.792   4.945  0.00  0.00     0.105 A 
BRANCH  14  15
ATOM     15  O25 MOL d           8.248  28.395   5.779  0.00  0.00    -0.253 OA
BRANCH  15  16
ATOM     16  C15 MOL d           9.331  29.199   6.080  0.00  0.00     0.530 C 
ATOM     17  F26 MOL d           8.950  30.461   6.333  0.00  0.00    -0.144 F 
ATOM     18  F27 MOL d          10.149  29.193   5.033  0.00  0.00    -0.144 F 
ATOM     19  F28 MOL d           9.979  28.674   7.129  0.00  0.00    -0.144 F 
ENDBRANCH  15  16
ENDBRANCH  14  15
ENDBRANCH   7   9
ENDBRANCH   5   7
BRANCH   4  20
ATOM     20  N04 MOL d           3.300  33.048   7.223  0.00  0.00    -0.188 N 
ATOM     21  H2  MOL d           3.107  33.837   7.856  0.00  0.00     0.184 HD
BRANCH  20  22
ATOM     22  C16 MOL d           2.939  33.233   5.844  0.00  0.00     0.049 A 
ATOM     23  C17 MOL d           1.860  34.066   5.569  0.00  0.00     0.031 A 
ATOM     24  C18 MOL d           1.477  34.325   4.263  0.00  0.00     0.020 A 
ATOM     25  C19 MOL d           2.184  33.728   3.217  0.00  0.00     0.041 A 
ATOM     26  C20 MOL d           3.262  32.882   3.468  0.00  0.00     0.020 A 
ATOM     27  C21 MOL d           3.647  32.657   4.794  0.00  0.00     0.031 A 
BRANCH  25  28
ATOM     28  C22 MOL d           1.723  34.008   1.833  0.00  0.00     0.209 C 
ATOM     29  O23 MOL d           2.550  34.033   0.868  0.00  0.00    -0.644 OA
ATOM     30  O24 MOL d           0.482  34.234   1.672  0.00  0.00    -0.644 OA
ENDBRANCH  25  28
ENDBRANCH  20  22
ENDBRANCH   4  20
TORSDOF 7
