REMARK  5 active torsions:
REMARK  status: ('A' for Active; 'I' for Inactive)
REMARK    1  A    between atoms: C1'_19  and  N1_4 
REMARK    2  A    between atoms: C5'_12  and  NBA_11 
REMARK    3  A    between atoms: C4'_13  and  C5'_12 
REMARK    4  A    between atoms: C3'_15  and  O3'_16 
REMARK    5  A    between atoms: C2'_17  and  O2'_18 
ROOT
ATOM      1  C4' U1S d          38.752  -0.845  13.902  0.00  0.00     0.181 C 
ATOM      2  O4' U1S d          38.813  -1.426  12.554  0.00  0.00    -0.354 OA
ATOM      3  C3' U1S d          38.201   0.518  13.566  0.00  0.00     0.181 C 
ATOM      4  C2' U1S d          37.008   0.120  12.725  0.00  0.00     0.198 C 
ATOM      5  C1' U1S d          37.483  -1.176  12.009  0.00  0.00     0.263 C 
ENDROOT
BRANCH   5   6
ATOM      6  N1  U1S d          36.602  -2.390  12.172  0.00  0.00    -0.280 N 
ATOM      7  C6  U1S d          36.963  -3.433  13.062  0.00  0.00     0.104 A 
ATOM      8  C5  U1S d          36.158  -4.563  13.213  0.00  0.00     0.092 A 
ATOM      9  C4  U1S d          34.983  -4.678  12.476  0.00  0.00     0.250 A 
ATOM     10  N3  U1S d          34.614  -3.662  11.576  0.00  0.00    -0.275 N 
ATOM     11  O4  U1S d          34.275  -5.674  12.604  0.00  0.00    -0.268 OA
ATOM     12  C2  U1S d          35.416  -2.516  11.424  0.00  0.00     0.331 A 
ATOM     13  H3  U1S d          33.775  -3.755  11.040  0.00  0.00     0.173 HD
ATOM     14  O2  U1S d          35.066  -1.639  10.635  0.00  0.00    -0.246 OA
ENDBRANCH   5   6
BRANCH   4  15
ATOM     15  O2' U1S d          36.867   1.195  11.812  0.00  0.00    -0.388 OA
ATOM     16  H21 U1S d          36.130   1.026  11.237  0.00  0.00     0.210 HD
ENDBRANCH   4  15
BRANCH   1  17
ATOM     17  C5' U1S d          40.044  -0.759  14.748  0.00  0.00     0.269 C 
BRANCH  17  18
ATOM     18  NBA U1S d          41.222  -1.239  14.004  0.00  0.00    -0.069 N 
ATOM     19  CAM U1S d          42.307  -0.232  14.126  0.00  0.00     0.235 C 
ATOM     20  CAK U1S d          43.074  -0.329  15.465  0.00  0.00     0.028 C 
ATOM     21  CAV U1S d          43.667  -1.728  15.686  0.00  0.00     0.003 C 
ATOM     22  CAJ U1S d          43.119  -2.726  14.656  0.00  0.00     0.028 C 
ATOM     23  CAL U1S d          41.597  -2.585  14.491  0.00  0.00     0.235 C 
ATOM     24  H14 U1S d          40.981  -1.320  13.029  0.00  0.00     0.280 HD
ENDBRANCH  17  18
ENDBRANCH   1  17
BRANCH   3  25
ATOM     25  O3' U1S d          37.740   1.228  14.706  0.00  0.00    -0.390 OA
ATOM     26  H19 U1S d          37.406   2.075  14.436  0.00  0.00     0.210 HD
ENDBRANCH   3  25
TORSDOF 5
