REMARK  8 active torsions:
REMARK  status: ('A' for Active; 'I' for Inactive)
REMARK    1  A    between atoms: CAG_6  and  CAQ_7 
REMARK    2  A    between atoms: CAQ_7  and  CAP_8 
REMARK    3  A    between atoms: CBA_10  and  OBC_11 
REMARK    4  A    between atoms: CAN_14  and  CAM_15 
REMARK    5  A    between atoms: CAM_15  and  CAL_16 
REMARK    6  A    between atoms: CAV_23  and  OAU_24 
REMARK    7  A    between atoms: OAU_24  and  CAT_25 
REMARK    8  A    between atoms: CAT_25  and  CAS_26 
ROOT
ATOM      1  CAP G24 d          21.745  -0.021 -25.161  0.00  0.00    -0.020 A 
ATOM      2  CAO G24 d          21.936  -0.568 -26.394  0.00  0.00     0.017 A 
ATOM      3  CBA G24 d          20.935   1.121 -25.052  0.00  0.00     0.072 A 
ATOM      4  CAZ G24 d          20.336   1.652 -26.200  0.00  0.00     0.037 A 
ATOM      5  CAY G24 d          20.542   1.066 -27.449  0.00  0.00     0.010 A 
ATOM      6  CAN G24 d          21.355  -0.052 -27.508  0.00  0.00    -0.053 A 
ENDROOT
BRANCH   6   7
ATOM      7  CAM G24 d          21.709  -0.842 -28.716  0.00  0.00     0.078 C 
BRANCH   7   8
ATOM      8  CAL G24 d          21.402  -0.175 -29.998  0.00  0.00    -0.042 A 
ATOM      9  CAX G24 d          20.304  -0.622 -30.709  0.00  0.00    -0.052 A 
ATOM     10  CBB G24 d          19.450  -1.739 -30.105  0.00  0.00     0.049 C 
ATOM     11  CAW G24 d          19.984  -0.055 -31.931  0.00  0.00     0.044 A 
ATOM     12  CAV G24 d          20.791   0.960 -32.430  0.00  0.00     0.070 A 
ATOM     13  CAJ G24 d          21.902   1.403 -31.724  0.00  0.00     0.044 A 
ATOM     14  CAK G24 d          22.212   0.830 -30.503  0.00  0.00    -0.052 A 
ATOM     15  CAE G24 d          23.432   1.298 -29.699  0.00  0.00     0.049 C 
BRANCH  12  16
ATOM     16  OAU G24 d          20.513   1.538 -33.623  0.00  0.00    -0.341 OA
BRANCH  16  17
ATOM     17  CAT G24 d          21.419   2.621 -33.810  0.00  0.00     0.288 C 
BRANCH  17  18
ATOM     18  CAS G24 d          22.576   2.262 -34.742  0.00  0.00     0.198 C 
ATOM     19  OAR G24 d          22.523   2.676 -35.920  0.00  0.00    -0.646 OA
ATOM     20  OAI G24 d          23.518   1.587 -34.277  0.00  0.00    -0.646 OA
ENDBRANCH  17  18
ENDBRANCH  16  17
ENDBRANCH  12  16
ENDBRANCH   7   8
ENDBRANCH   6   7
BRANCH   1  21
ATOM     21  CAQ G24 d          22.535  -0.810 -24.120  0.00  0.00     0.080 C 
BRANCH  21  22
ATOM     22  CAG G24 d          21.764  -1.183 -22.877  0.00  0.00    -0.054 A 
ATOM     23  CAF G24 d          21.350  -2.467 -22.569  0.00  0.00     0.007 A 
ATOM     24  CAB G24 d          20.668  -2.687 -21.371  0.00  0.00     0.001 A 
ATOM     25  CAC G24 d          20.424  -1.640 -20.485  0.00  0.00     0.000 A 
ATOM     26  CAD G24 d          20.873  -0.360 -20.810  0.00  0.00     0.001 A 
ATOM     27  CAH G24 d          21.567  -0.175 -22.053  0.00  0.00     0.007 A 
ENDBRANCH  21  22
ENDBRANCH   1  21
BRANCH   3  28
ATOM     28  OBC G24 d          20.712   1.763 -23.858  0.00  0.00    -0.360 OA
ATOM     29  H9  G24 d          20.140   2.508 -24.002  0.00  0.00     0.217 HD
ENDBRANCH   3  28
TORSDOF 8
