REMARK  9 active torsions:
REMARK  status: ('A' for Active; 'I' for Inactive)
REMARK       I    between atoms: C1_1  and  N1_2 
REMARK    1  A    between atoms: C12_19  and  C1_1 
REMARK    2  A    between atoms: N1_2  and  C2_5 
REMARK    3  A    between atoms: N1_2  and  O2_7 
REMARK    4  A    between atoms: C2_5  and  C3_9 
REMARK    5  A    between atoms: C18_25  and  N2_6 
REMARK    6  A    between atoms: C3_9  and  C4_11 
REMARK    7  A    between atoms: C4_11  and  C6_13 
REMARK    8  A    between atoms: C4_11  and  PA1_28 
REMARK    9  A    between atoms: C13_20  and  C18_25 
ROOT
ATOM      1  C1  FM8 d          39.297  21.994  23.713  0.00  0.00     0.277 C 
ATOM      2  N1  FM8 d          39.943  21.576  24.815  0.00  0.00    -0.225 N 
ATOM      3  O1  FM8 d          38.095  21.794  23.536  0.00  0.00    -0.265 OA
ENDROOT
BRANCH   2   4
ATOM      4  C2  FM8 d          41.377  21.807  25.093  0.00  0.00     0.161 C 
BRANCH   4   5
ATOM      5  C3  FM8 d          42.165  20.514  25.415  0.00  0.00     0.046 C 
BRANCH   5   6
ATOM      6  C4  FM8 d          42.944  20.023  24.178  0.00  0.00     0.150 C 
BRANCH   6   7
ATOM      7  C6  FM8 d          43.727  21.138  23.456  0.00  0.00    -0.039 A 
ATOM      8  C7  FM8 d          44.362  22.164  24.155  0.00  0.00     0.033 A 
ATOM      9  C8  FM8 d          45.030  23.159  23.453  0.00  0.00     0.056 A 
ATOM     10 CL1  FM8 d          45.809  24.422  24.337  0.00  0.00    -0.083 Cl
ATOM     11  C9  FM8 d          45.071  23.131  22.058  0.00  0.00     0.055 A 
ATOM     12 CL2  FM8 d          45.907  24.371  21.193  0.00  0.00    -0.083 Cl
ATOM     13  C10 FM8 d          44.442  22.106  21.351  0.00  0.00     0.026 A 
ATOM     14  C11 FM8 d          43.767  21.115  22.064  0.00  0.00     0.010 A 
ENDBRANCH   6   7
BRANCH   6  15
ATOM     15  PA1 FM8 d          44.008  18.548  24.501  0.00  0.00     0.268 P 
ATOM     16  OP1 FM8 d          43.773  17.921  25.956  0.00  0.00    -0.639 OA
ATOM     17  OP2 FM8 d          43.251  17.539  23.504  0.00  0.00    -0.639 OA
ATOM     18  OP3 FM8 d          45.438  18.650  24.107  0.00  0.00    -0.639 OA
ENDBRANCH   6  15
ENDBRANCH   5   6
ENDBRANCH   4   5
ENDBRANCH   2   4
BRANCH   2  19
ATOM     19  O2  FM8 d          39.202  20.937  25.763  0.00  0.00    -0.285 OA
ATOM     20  H3  FM8 d          38.306  20.854  25.460  0.00  0.00     0.245 HD
ENDBRANCH   2  19
BRANCH   1  21
ATOM     21  C12 FM8 d          40.083  22.742  22.615  0.00  0.00     0.042 A 
ATOM     22  C13 FM8 d          40.243  24.138  22.652  0.00  0.00    -0.022 A 
ATOM     23  C14 FM8 d          40.950  24.762  21.617  0.00  0.00     0.010 A 
ATOM     24  C15 FM8 d          41.479  24.025  20.553  0.00  0.00     0.001 A 
ATOM     25  C16 FM8 d          41.298  22.651  20.517  0.00  0.00     0.001 A 
ATOM     26  C17 FM8 d          40.598  22.011  21.542  0.00  0.00     0.018 A 
BRANCH  22  27
ATOM     27  C18 FM8 d          39.715  25.054  23.765  0.00  0.00     0.191 C 
BRANCH  27  28
ATOM     28  N2  FM8 d          40.740  25.181  24.816  0.00  0.00    -0.258 N 
ATOM     29  N3  FM8 d          41.886  25.597  24.630  0.00  0.00    -0.164 NA
ATOM     30  C19 FM8 d          42.529  25.569  25.797  0.00  0.00     0.256 A 
ATOM     31  N4  FM8 d          41.689  25.101  26.719  0.00  0.00    -0.234 NA
ATOM     32  C20 FM8 d          40.542  24.857  26.091  0.00  0.00     0.230 A 
ENDBRANCH  27  28
ENDBRANCH  22  27
ENDBRANCH   1  21
TORSDOF 9
