REMARK  6 active torsions:
REMARK  status: ('A' for Active; 'I' for Inactive)
REMARK    1  A    between atoms: O21_2  and  C20_3 
REMARK    2  A    between atoms: C20_3  and  O17_4 
REMARK    3  A    between atoms: O17_4  and  C14_5 
REMARK    4  A    between atoms: C08_16  and  O16_17 
REMARK    5  A    between atoms: C13_20  and  C18_21 
REMARK    6  A    between atoms: C18_21  and  C19_22 
ROOT
ATOM      1  C14 AB0 d          -0.233  -2.608  22.068  0.00  0.00     0.156 C 
ATOM      2  C15 AB0 d           0.134  -1.394  21.207  0.00  0.00     0.069 C 
ATOM      3  C10 AB0 d           1.411  -0.728  21.730  0.00  0.00     0.156 C 
ATOM      4  O11 AB0 d           1.652   0.495  21.017  0.00  0.00    -0.371 OA
ATOM      5  C05 AB0 d           2.851   1.186  21.409  0.00  0.00     0.177 C 
ATOM      6  C06 AB0 d           2.870   2.369  20.433  0.00  0.00     0.007 C 
ATOM      7  C07 AB0 d           3.727   3.436  20.680  0.00  0.00     0.000 C 
ATOM      8  C01 AB0 d           4.524   3.773  21.769  0.00  0.00     0.024 C 
ATOM      9  C02 AB0 d           4.733   3.113  22.974  0.00  0.00     0.135 C 
ATOM     10  O03 AB0 d           4.148   1.852  23.338  0.00  0.00    -0.352 OA
ATOM     11  C04 AB0 d           2.817   1.547  22.892  0.00  0.00     0.191 C 
ATOM     12  C08 AB0 d           2.463   0.296  23.702  0.00  0.00     0.181 C 
ATOM     13  C09 AB0 d           1.187  -0.374  23.192  0.00  0.00     0.182 C 
ATOM     14  O12 AB0 d           0.931  -1.578  23.931  0.00  0.00    -0.372 OA
ATOM     15  C13 AB0 d          -0.315  -2.162  23.521  0.00  0.00     0.161 C 
ENDROOT
BRANCH   1  16
ATOM     16  O17 AB0 d          -1.515  -3.134  21.689  0.00  0.00    -0.359 OA
BRANCH  16  17
ATOM     17  C20 AB0 d          -1.390  -4.194  20.728  0.00  0.00     0.337 C 
BRANCH  17  18
ATOM     18  O21 AB0 d          -1.087  -3.672  19.426  0.00  0.00    -0.372 OA
ATOM     19  C22 AB0 d          -2.205  -2.941  18.914  0.00  0.00     0.204 C 
ENDBRANCH  17  18
ENDBRANCH  16  17
ENDBRANCH   1  16
BRANCH  15  20
ATOM     20  C18 AB0 d          -0.636  -3.354  24.425  0.00  0.00     0.147 C 
BRANCH  20  21
ATOM     21  C19 AB0 d          -0.752  -2.907  25.883  0.00  0.00     0.175 C 
ATOM     22  O23 AB0 d          -1.454  -1.943  26.184  0.00  0.00    -0.648 OA
ATOM     23  O24 AB0 d          -0.135  -3.504  26.766  0.00  0.00    -0.648 OA
ENDBRANCH  20  21
ENDBRANCH  15  20
BRANCH  12  24
ATOM     24  O16 AB0 d           2.295   0.646  25.078  0.00  0.00    -0.390 OA
ATOM     25  H17 AB0 d           3.103   1.019  25.410  0.00  0.00     0.210 HD
ENDBRANCH  12  24
TORSDOF 6
