REMARK  19 active torsions:
REMARK  status: ('A' for Active; 'I' for Inactive)
REMARK    1  A    between atoms: C1_1  and  SAL_24 
REMARK    2  A    between atoms: C2_2  and  O2_6 
REMARK    3  A    between atoms: C3_3  and  O3_10 
REMARK    4  A    between atoms: C4_4  and  O4_14 
REMARK    5  A    between atoms: C5_18  and  C6_5 
REMARK    6  A    between atoms: C6_5  and  O6_19 
REMARK    7  A    between atoms: O2_6  and  CBJ_8 
REMARK    8  A    between atoms: O3_10  and  CBC_11 
REMARK    9  A    between atoms: O4_14  and  CAZ_15 
REMARK   10  A    between atoms: O6_19  and  CAY_20 
REMARK   11  A    between atoms: SAL_24  and  NAK_27 
REMARK   12  A    between atoms: NAK_27  and  CAJ_28 
REMARK   13  A    between atoms: CAJ_28  and  CAI_29 
REMARK   14  A    between atoms: CAI_29  and  CAH_30 
REMARK   15  A    between atoms: CAH_30  and  CAG_31 
REMARK   16  A    between atoms: CAG_31  and  CAF_32 
REMARK   17  A    between atoms: CAF_32  and  OAA_33 
REMARK   18  A    between atoms: OAA_33  and  SAB_34 
REMARK   19  A    between atoms: SAB_34  and  NAE_37 
ROOT
ATOM      1  C1  MOL d           3.371   9.554  81.826  0.00  0.00     0.296 C 
ATOM      2  C2  MOL d           3.933  10.928  81.943  0.00  0.00     0.209 C 
ATOM      3  C3  MOL d           5.291  11.135  81.392  0.00  0.00     0.197 C 
ATOM      4  C4  MOL d           5.991  10.041  80.610  0.00  0.00     0.195 C 
ATOM      5  C5  MOL d           5.240   8.682  80.560  0.00  0.00     0.180 C 
ATOM      6  O5  MOL d           4.472   8.618  81.879  0.00  0.00    -0.356 OA
ENDROOT
BRANCH   1   7
ATOM      7  SAL MOL d           2.513   9.255  83.379  0.00  0.00     0.256 S 
ATOM      8  OAM MOL d           3.648   9.556  84.516  0.00  0.00    -0.203 OA
ATOM      9  OAN MOL d           1.169  10.214  83.436  0.00  0.00    -0.203 OA
BRANCH   7  10
ATOM     10  NAK MOL d           2.076   7.578  83.379  0.00  0.00    -0.317 N 
ATOM     11  H20 MOL d           2.483   6.851  83.933  0.00  0.00     0.172 HD
BRANCH  10  12
ATOM     12  CAJ MOL d           0.979   7.438  82.394  0.00  0.00     0.132 C 
BRANCH  12  13
ATOM     13  CAI MOL d          -0.354   7.318  83.184  0.00  0.00     0.020 C 
BRANCH  13  14
ATOM     14  CAH MOL d          -0.185   6.265  84.320  0.00  0.00     0.004 C 
BRANCH  14  15
ATOM     15  CAG MOL d          -1.553   5.658  84.682  0.00  0.00     0.028 C 
BRANCH  15  16
ATOM     16  CAF MOL d          -1.462   4.751  85.932  0.00  0.00     0.192 C 
BRANCH  16  17
ATOM     17  OAA MOL d          -1.007   3.499  85.458  0.00  0.00    -0.260 OA
BRANCH  17  18
ATOM     18  SAB MOL d          -1.444   2.166  86.350  0.00  0.00     0.355 S 
ATOM     19  OAC MOL d          -2.872   2.321  86.050  0.00  0.00    -0.176 OA
ATOM     20  OAD MOL d          -0.635   2.532  87.697  0.00  0.00    -0.176 OA
BRANCH  18  21
ATOM     21  NAE MOL d          -0.715   0.855  85.548  0.00  0.00    -0.306 N 
ATOM     22  H31 MOL d          -0.833  -0.074  85.899  0.00  0.00     0.171 HD
ATOM     23  H32 MOL d          -0.169   1.013  84.725  0.00  0.00     0.171 HD
ENDBRANCH  18  21
ENDBRANCH  17  18
ENDBRANCH  16  17
ENDBRANCH  15  16
ENDBRANCH  14  15
ENDBRANCH  13  14
ENDBRANCH  12  13
ENDBRANCH  10  12
ENDBRANCH   7  10
ENDBRANCH   1   7
BRANCH   2  24
ATOM     24  O2  MOL d           2.951  11.913  81.470  0.00  0.00    -0.310 OA
BRANCH  24  25
ATOM     25  CBJ MOL d           2.619  12.878  82.445  0.00  0.00     0.255 C 
ATOM     26  CBK MOL d           1.293  13.639  82.275  0.00  0.00     0.126 C 
ATOM     27  OBL MOL d           3.350  13.099  83.360  0.00  0.00    -0.266 OA
ENDBRANCH  24  25
ENDBRANCH   2  24
BRANCH   3  28
ATOM     28  O3  MOL d           5.516  12.571  80.998  0.00  0.00    -0.311 OA
BRANCH  28  29
ATOM     29  CBC MOL d           5.207  13.299  79.817  0.00  0.00     0.255 C 
ATOM     30  OBH MOL d           4.542  12.907  78.915  0.00  0.00    -0.266 OA
ATOM     31  CBD MOL d           5.806  14.722  79.769  0.00  0.00     0.126 C 
ENDBRANCH  28  29
ENDBRANCH   3  28
BRANCH   5  32
ATOM     32  C6  MOL d           6.188   7.635  80.557  0.00  0.00     0.213 C 
BRANCH  32  33
ATOM     33  O6  MOL d           7.070   7.888  81.646  0.00  0.00    -0.319 OA
BRANCH  33  34
ATOM     34  CAY MOL d           8.171   7.005  81.674  0.00  0.00     0.254 C 
ATOM     35  OBE MOL d           9.053   7.110  82.470  0.00  0.00    -0.266 OA
ATOM     36  CBA MOL d           8.189   5.894  80.629  0.00  0.00     0.126 C 
ENDBRANCH  33  34
ENDBRANCH  32  33
ENDBRANCH   5  32
BRANCH   4  37
ATOM     37  O4  MOL d           6.392  10.381  79.274  0.00  0.00    -0.311 OA
BRANCH  37  38
ATOM     38  CAZ MOL d           7.795  10.404  79.132  0.00  0.00     0.255 C 
ATOM     39  OBF MOL d           8.482  10.380  80.105  0.00  0.00    -0.266 OA
ATOM     40  CBB MOL d           8.418  10.448  77.723  0.00  0.00     0.126 C 
ENDBRANCH  37  38
ENDBRANCH   4  37
TORSDOF 19
