REMARK  6 active torsions:
REMARK  status: ('A' for Active; 'I' for Inactive)
REMARK    1  A    between atoms: N7_7  and  C17_14 
REMARK    2  A    between atoms: C8_8  and  C11_10 
REMARK       I    between atoms: C11_10  and  N12_11 
REMARK    3  A    between atoms: N12_11  and  C13_12 
REMARK    4  A    between atoms: C17_14  and  C18_15 
REMARK    5  A    between atoms: C24_19  and  O1_22 
REMARK    6  A    between atoms: N1_27  and  C16_28 
ROOT
ATOM      1  C1  IID d           2.928  10.171  25.681  0.00  0.00     0.002 A 
ATOM      2  C2  IID d           4.129   9.314  25.606  0.00  0.00     0.030 A 
ATOM      3  C3  IID d           4.519   8.698  24.316  0.00  0.00     0.045 A 
ATOM      4  C4  IID d           3.689   8.915  23.096  0.00  0.00    -0.007 A 
ATOM      5  C5  IID d           2.509   9.794  23.182  0.00  0.00     0.014 A 
ATOM      6  C6  IID d           2.128  10.427  24.464  0.00  0.00     0.001 A 
ATOM      7  N7  IID d           5.563   7.860  23.942  0.00  0.00    -0.337 N 
ATOM      8  C8  IID d           5.400   7.543  22.636  0.00  0.00     0.104 A 
ATOM      9  C9  IID d           4.269   8.157  22.062  0.00  0.00     0.049 A 
ENDROOT
BRANCH   8  10
ATOM     10  C11 IID d           6.219   6.662  21.946  0.00  0.00     0.268 C 
ATOM     11  N12 IID d           5.620   5.896  21.015  0.00  0.00    -0.351 N 
ATOM     12  H6  IID d           4.681   6.017  20.692  0.00  0.00     0.163 HD
ATOM     13  O45 IID d           7.422   6.595  22.200  0.00  0.00    -0.266 OA
BRANCH  11  14
ATOM     14  C13 IID d           6.529   4.874  20.551  0.00  0.00     0.087 C 
ATOM     15  C14 IID d           7.148   5.274  19.212  0.00  0.00     0.053 C 
ATOM     16  C26 IID d           8.174   4.259  18.701  0.00  0.00     0.237 C 
ATOM     17  N1  IID d           7.559   2.900  18.612  0.00  0.00    -0.067 N 
ATOM     18  C12 IID d           6.832   2.441  19.849  0.00  0.00     0.237 C 
ATOM     19  H25 IID d           6.867   2.968  17.882  0.00  0.00     0.280 HD
ATOM     20  C10 IID d           5.855   3.520  20.343  0.00  0.00     0.053 C 
BRANCH  17  21
ATOM     21  C16 IID d           8.508   1.825  18.203  0.00  0.00     0.180 C 
ATOM     22  C19 IID d           9.527   2.225  17.147  0.00  0.00     0.039 C 
ATOM     23  C20 IID d           7.715   0.622  17.731  0.00  0.00     0.039 C 
ENDBRANCH  17  21
ENDBRANCH  11  14
ENDBRANCH   8  10
BRANCH   7  24
ATOM     24  C17 IID d           6.630   7.337  24.848  0.00  0.00     0.168 C 
BRANCH  24  25
ATOM     25  C18 IID d           7.991   8.054  24.915  0.00  0.00    -0.037 A 
ATOM     26  C21 IID d           8.423   9.145  23.995  0.00  0.00     0.009 A 
ATOM     27  C22 IID d           9.746   9.750  24.169  0.00  0.00     0.003 A 
ATOM     28  C23 IID d          10.636   9.285  25.237  0.00  0.00     0.037 A 
ATOM     29  C24 IID d          10.227   8.226  26.160  0.00  0.00     0.068 A 
ATOM     30  C25 IID d           8.904   7.604  25.983  0.00  0.00     0.045 A 
BRANCH  29  31
ATOM     31  O1  IID d          11.141   7.952  27.175  0.00  0.00    -0.356 OA
ATOM     32  C7  IID d          11.100   6.761  27.985  0.00  0.00     0.210 C 
ENDBRANCH  29  31
ENDBRANCH  24  25
ENDBRANCH   7  24
TORSDOF 6
