REMARK  19 active torsions:
REMARK  status: ('A' for Active; 'I' for Inactive)
REMARK    1  A    between atoms: N1T_1  and  C1'_16 
REMARK    2  A    between atoms: C4'_12  and  C5'_10 
REMARK    3  A    between atoms: C5'_10  and  O5'_11 
REMARK    4  A    between atoms: O5'_11  and  PA_20 
REMARK    5  A    between atoms: C3'_14  and  NA3_17 
REMARK    6  A    between atoms: PA_20  and  OPA_23 
REMARK    7  A    between atoms: OPA_23  and  PB_24 
REMARK    8  A    between atoms: PB_24  and  OPB_27 
REMARK    9  A    between atoms: OPB_27  and  PC_28 
REMARK   10  A    between atoms: PC_28  and  OPC_31 
REMARK   11  A    between atoms: OPC_31  and  PD_32 
REMARK   12  A    between atoms: PD_32  and  OPD_35 
REMARK   13  A    between atoms: OPD_35  and  PE_36 
REMARK   14  A    between atoms: PE_36  and  O5'_39 
REMARK   15  A    between atoms: O5'_39  and  C5'_40 
REMARK   16  A    between atoms: C5'_40  and  C4'_41 
REMARK   17  A    between atoms: C3'_43  and  O3'_44 
REMARK   18  A    between atoms: C2'_45  and  O2'_46 
REMARK   19  A    between atoms: C1'_47  and  N9A_48 
ROOT
ATOM      1  NA3 Z5A d          22.343 102.242  20.814  0.00  0.00    -0.107 NA
ATOM      2  N3B Z5A d          22.799 102.919  21.737  0.00  0.00    -0.167 NA
ATOM      3  N3C Z5A d          23.151 103.425  22.675  0.00  0.00     0.068 N 
ENDROOT
BRANCH   1   4
ATOM      4  C3' Z5A d          22.549 102.739  19.451  0.00  0.00     0.180 C 
ATOM      5  C4' Z5A d          21.704 101.929  18.496  0.00  0.00     0.176 C 
ATOM      6  O4' Z5A d          22.595 101.160  17.642  0.00  0.00    -0.356 OA
ATOM      7  C1' Z5A d          23.732 100.970  18.487  0.00  0.00     0.234 C 
ATOM      8  C2' Z5A d          23.911 102.308  19.059  0.00  0.00     0.087 C 
BRANCH   5   9
ATOM      9  C5' Z5A d          20.579 102.588  17.728  0.00  0.00     0.215 C 
BRANCH   9  10
ATOM     10  O5' Z5A d          21.239 103.306  16.735  0.00  0.00    -0.287 OA
BRANCH  10  11
ATOM     11  PA  Z5A d          20.517 104.138  15.609  0.00  0.00     0.417 P 
ATOM     12  O2P Z5A d          21.372 105.078  14.831  0.00  0.00    -0.624 OA
ATOM     13  O1P Z5A d          19.516 103.313  14.879  0.00  0.00    -0.624 OA
BRANCH  11  14
ATOM     14  OPA Z5A d          19.824 104.962  16.609  0.00  0.00    -0.180 OA
BRANCH  14  15
ATOM     15  PB  Z5A d          18.659 105.945  16.628  0.00  0.00     0.427 P 
ATOM     16  O4P Z5A d          17.359 105.207  16.769  0.00  0.00    -0.624 OA
ATOM     17  O3P Z5A d          19.054 107.048  17.540  0.00  0.00    -0.624 OA
BRANCH  15  18
ATOM     18  OPB Z5A d          18.614 106.579  15.180  0.00  0.00    -0.180 OA
BRANCH  18  19
ATOM     19  PC  Z5A d          17.882 107.737  14.500  0.00  0.00     0.427 P 
ATOM     20  O6P Z5A d          16.653 107.987  15.321  0.00  0.00    -0.624 OA
ATOM     21  O5P Z5A d          17.819 107.504  13.053  0.00  0.00    -0.624 OA
BRANCH  19  22
ATOM     22  OPC Z5A d          18.842 108.931  14.794  0.00  0.00    -0.180 OA
BRANCH  22  23
ATOM     23  PD  Z5A d          18.809 110.486  14.686  0.00  0.00     0.427 P 
ATOM     24  O8P Z5A d          19.584 110.724  13.464  0.00  0.00    -0.624 OA
ATOM     25  O7P Z5A d          17.396 110.890  14.758  0.00  0.00    -0.624 OA
BRANCH  23  26
ATOM     26  OPD Z5A d          19.514 111.172  15.947  0.00  0.00    -0.180 OA
BRANCH  26  27
ATOM     27  PE  Z5A d          19.613 112.657  16.644  0.00  0.00     0.417 P 
ATOM     28  OAP Z5A d          19.739 113.702  15.592  0.00  0.00    -0.624 OA
ATOM     29  O9P Z5A d          20.636 112.566  17.696  0.00  0.00    -0.624 OA
BRANCH  27  30
ATOM     30  O5' Z5A d          18.199 112.917  17.364  0.00  0.00    -0.287 OA
BRANCH  30  31
ATOM     31  C5' Z5A d          17.825 112.226  18.535  0.00  0.00     0.216 C 
BRANCH  31  32
ATOM     32  C4' Z5A d          16.874 112.969  19.423  0.00  0.00     0.180 C 
ATOM     33  C3' Z5A d          15.649 113.614  18.628  0.00  0.00     0.182 C 
ATOM     34  C2' Z5A d          16.142 115.045  18.436  0.00  0.00     0.198 C 
ATOM     35  C1' Z5A d          16.969 115.278  19.720  0.00  0.00     0.262 C 
ATOM     36  O4' Z5A d          17.520 114.015  20.171  0.00  0.00    -0.353 OA
BRANCH  33  37
ATOM     37  O3' Z5A d          14.487 113.578  19.478  0.00  0.00    -0.390 OA
ATOM     38  H17 Z5A d          13.791 114.090  19.083  0.00  0.00     0.210 HD
ENDBRANCH  33  37
BRANCH  34  39
ATOM     39  O2' Z5A d          15.116 116.047  18.196  0.00  0.00    -0.388 OA
ATOM     40  H19 Z5A d          14.505 116.054  18.924  0.00  0.00     0.210 HD
ENDBRANCH  34  39
BRANCH  35  41
ATOM     41  N9A Z5A d          18.026 116.285  19.485  0.00  0.00    -0.294 N 
ATOM     42  C4A Z5A d          18.012 117.500  20.092  0.00  0.00     0.167 A 
ATOM     43  C5A Z5A d          19.140 118.144  19.670  0.00  0.00     0.149 A 
ATOM     44  N3A Z5A d          17.179 117.858  21.083  0.00  0.00    -0.222 NA
ATOM     45  N7A Z5A d          19.688 117.482  18.553  0.00  0.00    -0.236 NA
ATOM     46  C6A Z5A d          19.395 119.410  20.271  0.00  0.00     0.155 A 
ATOM     47  C8A Z5A d          19.067 116.327  18.574  0.00  0.00     0.214 C 
ATOM     48  N1A Z5A d          18.569 119.803  21.291  0.00  0.00    -0.222 NA
ATOM     49  N6A Z5A d          20.365 120.229  19.835  0.00  0.00    -0.382 N 
ATOM     50  C2A Z5A d          17.568 118.998  21.655  0.00  0.00     0.237 A 
ATOM     51  H22 Z5A d          20.518 121.137  20.296  0.00  0.00     0.157 HD
ATOM     52  H23 Z5A d          20.956 119.949  19.039  0.00  0.00     0.157 HD
ENDBRANCH  35  41
ENDBRANCH  31  32
ENDBRANCH  30  31
ENDBRANCH  27  30
ENDBRANCH  26  27
ENDBRANCH  23  26
ENDBRANCH  22  23
ENDBRANCH  19  22
ENDBRANCH  18  19
ENDBRANCH  15  18
ENDBRANCH  14  15
ENDBRANCH  11  14
ENDBRANCH  10  11
ENDBRANCH   9  10
ENDBRANCH   5   9
BRANCH   7  53
ATOM     53  N1T Z5A d          24.830 100.609  17.625  0.00  0.00    -0.282 N 
ATOM     54  C6T Z5A d          24.785 100.899  16.253  0.00  0.00     0.110 C 
ATOM     55  C5T Z5A d          25.649 100.333  15.366  0.00  0.00     0.022 C 
ATOM     56  C4T Z5A d          26.689  99.479  15.847  0.00  0.00     0.256 C 
ATOM     57  C7T Z5A d          25.569 100.633  13.847  0.00  0.00     0.056 C 
ATOM     58  N3T Z5A d          26.793  99.340  17.253  0.00  0.00    -0.275 N 
ATOM     59  O4T Z5A d          27.485  98.925  15.098  0.00  0.00    -0.267 OA
ATOM     60  C2T Z5A d          25.802  99.777  18.164  0.00  0.00     0.331 C 
ATOM     61  H1  Z5A d          27.615  98.908  17.624  0.00  0.00     0.173 HD
ATOM     62  O2T Z5A d          25.746  99.387  19.331  0.00  0.00    -0.246 OA
ENDBRANCH   7  53
ENDBRANCH   1   4
TORSDOF 19
