REMARK  5 active torsions:
REMARK  status: ('A' for Active; 'I' for Inactive)
REMARK    1  A    between atoms: N1_1  and  C2_2 
REMARK    2  A    between atoms: N1_1  and  S13_9 
REMARK    3  A    between atoms: C6_6  and  N2_8 
REMARK    4  A    between atoms: S13_9  and  C15_10 
REMARK    5  A    between atoms: C18_13  and  C21_16 
ROOT
ATOM      1  N1  NST d          79.386   4.262  31.113  0.00  0.00    -0.281 N 
ATOM      2  H1  NST d          79.144   3.301  30.976  0.00  0.00     0.179 HD
ENDROOT
BRANCH   1   3
ATOM      3  C2  NST d          80.640   4.590  31.662  0.00  0.00     0.045 A 
ATOM      4  C3  NST d          80.856   4.543  33.092  0.00  0.00     0.030 A 
ATOM      5  C5  NST d          82.157   4.873  33.622  0.00  0.00     0.005 A 
ATOM      6  C7  NST d          83.226   5.238  32.723  0.00  0.00     0.036 A 
ATOM      7  C6  NST d          83.001   5.282  31.292  0.00  0.00     0.105 A 
ATOM      8  C4  NST d          81.700   4.956  30.772  0.00  0.00     0.066 A 
BRANCH   7   9
ATOM      9  N2  NST d          84.018   5.623  30.434  0.00  0.00    -0.116 N 
ATOM     10  O1  NST d          83.826   5.660  29.224  0.00  0.00    -0.532 OA
ATOM     11  O2  NST d          85.126   5.889  30.869  0.00  0.00    -0.532 OA
ENDBRANCH   7   9
ENDBRANCH   1   3
BRANCH   1  12
ATOM     12  S13 NST d          78.255   5.497  30.671  0.00  0.00     0.264 S 
ATOM     13  O16 NST d          76.968   4.851  30.513  0.00  0.00    -0.200 OA
ATOM     14  O17 NST d          78.173   6.457  31.723  0.00  0.00    -0.200 OA
BRANCH  12  15
ATOM     15  C15 NST d          78.657   6.353  29.076  0.00  0.00     0.104 A 
ATOM     16  C18 NST d          78.841   5.761  27.811  0.00  0.00     0.104 A 
ATOM     17  S20 NST d          79.137   6.823  26.868  0.00  0.00    -0.094 SA
ATOM     18  C22 NST d          79.130   8.034  27.585  0.00  0.00     0.052 A 
ATOM     19  C19 NST d          78.835   7.746  28.926  0.00  0.00     0.034 A 
BRANCH  16  20
ATOM     20  C21 NST d          78.746   4.295  27.483  0.00  0.00     0.218 C 
ATOM     21  O23 NST d          78.475   3.387  28.425  0.00  0.00    -0.643 OA
ATOM     22  O24 NST d          78.928   3.928  26.335  0.00  0.00    -0.643 OA
ENDBRANCH  16  20
ENDBRANCH  12  15
ENDBRANCH   1  12
TORSDOF 5
