REMARK  7 active torsions:
REMARK  status: ('A' for Active; 'I' for Inactive)
REMARK    1  A    between atoms: C1_1  and  C2_2 
REMARK    2  A    between atoms: C3_3  and  O8_8 
REMARK    3  A    between atoms: O8_8  and  C14_14 
REMARK    4  A    between atoms: C12_12  and  N17_17 
REMARK    5  A    between atoms: C14_14  and  C18_18 
REMARK    6  A    between atoms: C18_18  and  C19_19 
REMARK    7  A    between atoms: C19_19  and  C20_20 
ROOT
ATOM      1  C1  FU5 d          13.746  -1.452  51.464  0.00  0.00     0.048 A 
ATOM      2  C3  FU5 d          13.598  -1.641  52.894  0.00  0.00     0.083 A 
ATOM      3  C4  FU5 d          12.596  -1.110  50.661  0.00  0.00     0.049 A 
ATOM      4  C7  FU5 d          12.292  -1.497  53.497  0.00  0.00     0.038 A 
ATOM      5  C9  FU5 d          11.318  -0.976  51.291  0.00  0.00     0.025 A 
ATOM      6 CL10 FU5 d          12.699  -0.847  48.940  0.00  0.00    -0.083 Cl
ATOM      7  C13 FU5 d          11.164  -1.171  52.697  0.00  0.00     0.004 A 
ENDROOT
BRANCH   1   8
ATOM      8  C2  FU5 d          15.096  -1.610  50.818  0.00  0.00     0.092 A 
ATOM      9  C5  FU5 d          15.657  -2.880  50.771  0.00  0.00     0.060 A 
ATOM     10  C11 FU5 d          16.882  -2.993  50.189  0.00  0.00     0.052 A 
ATOM     11  N15 FU5 d          17.546  -1.915  49.668  0.00  0.00    -0.068 NA
ATOM     12  C16 FU5 d          17.544  -4.360  50.118  0.00  0.00     0.071 C 
ATOM     13  C12 FU5 d          16.973  -0.695  49.730  0.00  0.00     0.721 A 
ATOM     14  N6  FU5 d          15.758  -0.511  50.295  0.00  0.00    -0.062 NA
BRANCH  13  15
ATOM     15  N17 FU5 d          17.657   0.402  49.200  0.00  0.00    -0.231 N 
ATOM     16  H10 FU5 d          17.234   1.340  49.239  0.00  0.00     0.174 HD
ATOM     17  H11 FU5 d          18.584   0.272  48.770  0.00  0.00     0.174 HD
ENDBRANCH  13  15
ENDBRANCH   1   8
BRANCH   2  18
ATOM     18  O8  FU5 d          14.750  -1.954  53.596  0.00  0.00    -0.350 OA
BRANCH  18  19
ATOM     19  C14 FU5 d          14.860  -2.167  54.902  0.00  0.00     0.176 C 
BRANCH  19  20
ATOM     20  C18 FU5 d          16.306  -2.483  55.289  0.00  0.00     0.035 C 
BRANCH  20  21
ATOM     21  C19 FU5 d          16.845  -3.609  54.385  0.00  0.00     0.119 C 
BRANCH  21  22
ATOM     22  C20 FU5 d          18.297  -3.994  54.664  0.00  0.00     0.388 C 
ATOM     23  F21 FU5 d          18.479  -4.311  55.993  0.00  0.00    -0.171 F 
ATOM     24  F22 FU5 d          18.648  -5.089  53.898  0.00  0.00    -0.171 F 
ATOM     25  F23 FU5 d          19.140  -2.956  54.343  0.00  0.00    -0.171 F 
ENDBRANCH  21  22
ENDBRANCH  20  21
ENDBRANCH  19  20
ENDBRANCH  18  19
ENDBRANCH   2  18
TORSDOF 7
