REMARK  0 active torsions:
REMARK  status: ('A' for Active; 'I' for Inactive)
ROOT
ATOM      1  CAN MEW d           3.659  14.019  40.691  0.00  0.00     0.091 C 
ATOM      2  CAT MEW d           3.913  13.533  42.097  0.00  0.00     0.104 A 
ATOM      3  NAO MEW d           3.534  14.293  43.147  0.00  0.00    -0.344 N 
ATOM      4  CAV MEW d           3.764  13.849  44.416  0.00  0.00     0.049 A 
ATOM      5  CAK MEW d           3.351  14.612  45.502  0.00  0.00     0.030 A 
ATOM      6  CAG MEW d           3.599  14.133  46.798  0.00  0.00     0.002 A 
ATOM      7  CAH MEW d           4.229  12.901  47.020  0.00  0.00     0.001 A 
ATOM      8  CAL MEW d           4.639  12.131  45.932  0.00  0.00     0.019 A 
ATOM      9  CAW MEW d           4.394  12.616  44.636  0.00  0.00     0.060 A 
ATOM     10  CAU MEW d           4.779  11.871  43.521  0.00  0.00     0.281 A 
ATOM     11  OAC MEW d           5.334  10.794  43.659  0.00  0.00    -0.265 OA
ATOM     12  NAQ MEW d           4.524  12.348  42.280  0.00  0.00    -0.196 NA
ATOM     13  H   MEW d           3.075  15.201  42.991  0.00  0.00     0.167 HD
ENDROOT
TORSDOF 0
