REMARK  15 active torsions:
REMARK  status: ('A' for Active; 'I' for Inactive)
REMARK    1  A    between atoms: C46_2  and  C40_4 
REMARK    2  A    between atoms: C43_9  and  N24_10 
REMARK    3  A    between atoms: C29_15  and  C21_16 
REMARK       I    between atoms: C21_16  and  N20_18 
REMARK    4  A    between atoms: N20_18  and  C19_19 
REMARK    5  A    between atoms: C19_19  and  C32_20 
REMARK    6  A    between atoms: C19_19  and  C17_27 
REMARK    7  A    between atoms: C32_20  and  C38_21 
REMARK    8  A    between atoms: C17_27  and  O18_28 
REMARK    9  A    between atoms: C17_27  and  C16_29 
REMARK   10  A    between atoms: C16_29  and  N11_30 
REMARK   11  A    between atoms: N11_30  and  C12_31 
REMARK   12  A    between atoms: N11_30  and  S8_35 
REMARK   13  A    between atoms: C12_31  and  C13_32 
REMARK   14  A    between atoms: S8_35  and  C5_38 
REMARK   15  A    between atoms: C2_41  and  O19_42 
ROOT
ATOM      1  C19 MUI d          19.500  28.809  14.284  0.00  0.00     0.118 C 
ENDROOT
BRANCH   1   2
ATOM      2  N20 MUI d          20.417  27.948  13.530  0.00  0.00    -0.351 N 
ATOM      3  C21 MUI d          21.150  28.367  12.496  0.00  0.00     0.249 C 
ATOM      4  O22 MUI d          21.220  29.531  12.115  0.00  0.00    -0.271 OA
ATOM      5  H11 MUI d          20.498  26.991  13.807  0.00  0.00     0.163 HD
BRANCH   3   6
ATOM      6  C29 MUI d          21.914  27.316  11.748  0.00  0.00     0.243 C 
ATOM      7  O28 MUI d          21.879  26.009  12.331  0.00  0.00    -0.287 OA
ATOM      8  C26 MUI d          21.561  25.066  11.288  0.00  0.00     0.368 C 
ATOM      9  N24 MUI d          21.233  25.727  10.197  0.00  0.00    -0.291 N 
ATOM     10  O27 MUI d          21.644  23.861  11.463  0.00  0.00    -0.238 OA
ATOM     11  C25 MUI d          21.201  27.164  10.395  0.00  0.00     0.177 C 
BRANCH   9  12
ATOM     12  C43 MUI d          21.033  25.170   8.922  0.00  0.00     0.039 A 
ATOM     13  C42 MUI d          20.315  25.901   7.972  0.00  0.00     0.031 A 
ATOM     14  C41 MUI d          20.134  25.397   6.698  0.00  0.00     0.017 A 
ATOM     15  C40 MUI d          20.671  24.163   6.334  0.00  0.00     0.009 A 
ATOM     16  C45 MUI d          21.403  23.438   7.264  0.00  0.00     0.017 A 
ATOM     17  C44 MUI d          21.595  23.942   8.547  0.00  0.00     0.031 A 
BRANCH  15  18
ATOM     18  C46 MUI d          20.479  23.632   4.943  0.00  0.00     0.155 C 
ATOM     19  O45 MUI d          20.885  22.511   4.642  0.00  0.00    -0.293 OA
ATOM     20  C47 MUI d          19.808  24.512   3.940  0.00  0.00     0.096 C 
ENDBRANCH  15  18
ENDBRANCH   9  12
ENDBRANCH   3   6
ENDBRANCH   1   2
BRANCH   1  21
ATOM     21  C32 MUI d          18.189  28.001  14.230  0.00  0.00     0.066 C 
BRANCH  21  22
ATOM     22  C38 MUI d          17.888  27.620  12.785  0.00  0.00    -0.056 A 
ATOM     23  C37 MUI d          17.502  28.587  11.865  0.00  0.00     0.007 A 
ATOM     24  C36 MUI d          17.260  28.231  10.539  0.00  0.00     0.001 A 
ATOM     25  C35 MUI d          17.382  26.914  10.121  0.00  0.00     0.000 A 
ATOM     26  C34 MUI d          17.772  25.941  11.034  0.00  0.00     0.001 A 
ATOM     27  C33 MUI d          18.018  26.292  12.356  0.00  0.00     0.007 A 
ENDBRANCH  21  22
ENDBRANCH   1  21
BRANCH   1  28
ATOM     28  C17 MUI d          19.975  29.155  15.695  0.00  0.00     0.155 C 
BRANCH  28  29
ATOM     29  O18 MUI d          19.906  28.015  16.560  0.00  0.00    -0.392 OA
ATOM     30  H21 MUI d          20.206  28.259  17.428  0.00  0.00     0.210 HD
ENDBRANCH  28  29
BRANCH  28  31
ATOM     31  C16 MUI d          19.137  30.299  16.285  0.00  0.00     0.141 C 
BRANCH  31  32
ATOM     32  N11 MUI d          19.388  31.547  15.520  0.00  0.00    -0.204 NA
BRANCH  32  33
ATOM     33  C12 MUI d          20.170  32.541  16.288  0.00  0.00     0.111 C 
BRANCH  33  34
ATOM     34  C13 MUI d          21.662  32.189  16.295  0.00  0.00    -0.009 C 
ATOM     35  C15 MUI d          22.428  33.184  17.159  0.00  0.00     0.011 C 
ATOM     36  C14 MUI d          22.264  32.125  14.889  0.00  0.00     0.011 C 
ENDBRANCH  33  34
ENDBRANCH  32  33
BRANCH  32  37
ATOM     37  S8  MUI d          18.072  32.219  14.814  0.00  0.00     0.243 S 
ATOM     38  O10 MUI d          17.277  31.177  14.251  0.00  0.00    -0.206 OA
ATOM     39  O9  MUI d          18.621  33.052  13.769  0.00  0.00    -0.206 OA
BRANCH  37  40
ATOM     40  C5  MUI d          17.193  33.101  15.852  0.00  0.00     0.074 A 
ATOM     41  C6  MUI d          16.211  32.517  16.662  0.00  0.00     0.027 A 
ATOM     42  C7  MUI d          15.476  33.289  17.576  0.00  0.00     0.038 A 
ATOM     43  C2  MUI d          15.706  34.659  17.689  0.00  0.00     0.068 A 
ATOM     44  C3  MUI d          16.679  35.249  16.871  0.00  0.00     0.038 A 
ATOM     45  C4  MUI d          17.409  34.472  15.966  0.00  0.00     0.027 A 
BRANCH  43  46
ATOM     46  O19 MUI d          14.975  35.400  18.590  0.00  0.00    -0.356 OA
ATOM     47  C18 MUI d          15.294  36.759  18.901  0.00  0.00     0.210 C 
ENDBRANCH  43  46
ENDBRANCH  37  40
ENDBRANCH  32  37
ENDBRANCH  31  32
ENDBRANCH  28  31
ENDBRANCH   1  28
TORSDOF 15
