REMARK  13 active torsions:
REMARK  status: ('A' for Active; 'I' for Inactive)
REMARK    1  A    between atoms: C1_1  and  O1_8 
REMARK    2  A    between atoms: C4_4  and  N1_25 
REMARK    3  A    between atoms: O1_8  and  P1_7 
REMARK    4  A    between atoms: P1_7  and  C8_11 
REMARK    5  A    between atoms: C8_11  and  C9_12 
REMARK    6  A    between atoms: C9_12  and  C10_13 
REMARK    7  A    between atoms: C10_13  and  C11_14 
REMARK       I    between atoms: C11_14  and  N2_15 
REMARK    8  A    between atoms: N2_15  and  C12_17 
REMARK    9  A    between atoms: C12_17  and  C13_18 
REMARK   10  A    between atoms: C13_18  and  C14_19 
REMARK   11  A    between atoms: C14_19  and  C15_20 
REMARK   12  A    between atoms: C15_20  and  C16_21 
REMARK   13  A    between atoms: C16_21  and  C17_22 
ROOT
ATOM      1  C8  PNF d          15.510  36.579  61.756  0.00  0.00     0.136 C 
ENDROOT
BRANCH   1   2
ATOM      2  P1  PNF d          14.213  37.527  62.361  0.00  0.00     0.254 P 
ATOM      3  O2  PNF d          14.446  38.926  62.111  0.00  0.00    -0.646 OA
ATOM      4  O3  PNF d          13.965  37.092  63.747  0.00  0.00    -0.646 OA
BRANCH   2   5
ATOM      5  O1  PNF d          12.946  37.045  61.446  0.00  0.00    -0.270 OA
BRANCH   5   6
ATOM      6  C1  PNF d          11.724  37.652  61.592  0.00  0.00     0.079 A 
ATOM      7  C6  PNF d          10.722  36.936  62.221  0.00  0.00     0.040 A 
ATOM      8  C5  PNF d           9.494  37.601  62.356  0.00  0.00     0.039 A 
ATOM      9  C4  PNF d           9.323  38.924  61.867  0.00  0.00     0.103 A 
ATOM     10  C3  PNF d          10.383  39.581  61.241  0.00  0.00     0.039 A 
ATOM     11  C2  PNF d          11.595  38.944  61.099  0.00  0.00     0.040 A 
BRANCH   9  12
ATOM     12  N1  PNF d           8.013  39.606  62.026  0.00  0.00    -0.116 N 
ATOM     13  O5  PNF d           7.062  38.983  62.494  0.00  0.00    -0.532 OA
ATOM     14  O4  PNF d           7.850  40.794  61.711  0.00  0.00    -0.532 OA
ENDBRANCH   9  12
ENDBRANCH   5   6
ENDBRANCH   2   5
ENDBRANCH   1   2
BRANCH   1  15
ATOM     15  C9  PNF d          16.065  37.044  60.476  0.00  0.00     0.022 C 
BRANCH  15  16
ATOM     16  C10 PNF d          17.270  36.154  60.214  0.00  0.00     0.103 C 
BRANCH  16  17
ATOM     17  C11 PNF d          17.624  36.077  58.752  0.00  0.00     0.217 C 
ATOM     18  O6  PNF d          18.167  37.095  58.246  0.00  0.00    -0.274 OA
ATOM     19  N2  PNF d          17.329  34.903  58.052  0.00  0.00    -0.361 N 
ATOM     20  H11 PNF d          16.895  34.160  58.561  0.00  0.00     0.162 HD
BRANCH  19  21
ATOM     21  C12 PNF d          17.590  34.690  56.712  0.00  0.00     0.122 C 
BRANCH  21  22
ATOM     22  C13 PNF d          16.589  33.739  56.035  0.00  0.00     0.020 C 
BRANCH  22  23
ATOM     23  C14 PNF d          17.231  32.921  54.867  0.00  0.00     0.002 C 
BRANCH  23  24
ATOM     24  C15 PNF d          17.047  31.385  54.981  0.00  0.00     0.010 C 
BRANCH  24  25
ATOM     25  C16 PNF d          16.760  30.638  53.667  0.00  0.00     0.113 C 
BRANCH  25  26
ATOM     26  C17 PNF d          15.774  29.452  53.768  0.00  0.00     0.172 C 
ATOM     27  O8  PNF d          15.099  29.045  52.837  0.00  0.00    -0.648 OA
ATOM     28  O7  PNF d          15.646  28.879  54.789  0.00  0.00    -0.648 OA
ENDBRANCH  25  26
ENDBRANCH  24  25
ENDBRANCH  23  24
ENDBRANCH  22  23
ENDBRANCH  21  22
ENDBRANCH  19  21
ENDBRANCH  16  17
ENDBRANCH  15  16
ENDBRANCH   1  15
TORSDOF 13
