REMARK  13 active torsions:
REMARK  status: ('A' for Active; 'I' for Inactive)
REMARK    1  A    between atoms: N3_2  and  C20_12 
REMARK    2  A    between atoms: C1_29  and  N3_2 
REMARK    3  A    between atoms: C12_34  and  C4_3 
REMARK    4  A    between atoms: C3_30  and  C5_4 
REMARK    5  A    between atoms: C16_37  and  C17_11 
REMARK    6  A    between atoms: C17_11  and  C18_38 
REMARK    7  A    between atoms: C20_12  and  C21_13 
REMARK    8  A    between atoms: C21_13  and  N6_28 
REMARK    9  A    between atoms: S1_19  and  C30_21 
REMARK   10  A    between atoms: N6_28  and  S1_19 
REMARK   11  A    between atoms: C2_32  and  N4_33 
REMARK   12  A    between atoms: N5_36  and  C16_37 
REMARK   13  A    between atoms: C18_38  and  O1_39 
ROOT
ATOM      1  N1  LIX d         -56.942 -18.129 -35.167  0.00  0.00    -0.045 NA
ATOM      2  C4  LIX d         -56.402 -18.670 -32.846  0.00  0.00     0.046 A 
ATOM      3  C1  LIX d         -56.425 -19.018 -34.291  0.00  0.00     0.156 A 
ATOM      4  C3  LIX d         -56.943 -17.350 -32.463  0.00  0.00     0.068 A 
ATOM      5  N2  LIX d         -57.429 -16.570 -33.455  0.00  0.00    -0.067 NA
ATOM      6  C2  LIX d         -57.415 -16.935 -34.753  0.00  0.00     0.722 A 
ENDROOT
BRANCH   3   7
ATOM      7  N3  LIX d         -55.950 -20.193 -34.742  0.00  0.00    -0.372 N 
ATOM      8  H1  LIX d         -55.509 -20.859 -34.092  0.00  0.00     0.161 HD
BRANCH   7   9
ATOM      9  C20 LIX d         -56.064 -20.513 -36.147  0.00  0.00     0.141 C 
BRANCH   9  10
ATOM     10  C21 LIX d         -54.980 -21.449 -36.640  0.00  0.00     0.152 C 
BRANCH  10  11
ATOM     11  N6  LIX d         -53.965 -20.738 -37.389  0.00  0.00    -0.314 N 
ATOM     12  H28 LIX d         -54.233 -19.970 -37.971  0.00  0.00     0.172 HD
BRANCH  11  13
ATOM     13  S1  LIX d         -52.422 -21.157 -37.303  0.00  0.00     0.258 S 
ATOM     14  O5  LIX d         -51.970 -20.728 -35.997  0.00  0.00    -0.201 OA
ATOM     15  O4  LIX d         -51.692 -20.502 -38.355  0.00  0.00    -0.201 OA
BRANCH  13  16
ATOM     16  C30 LIX d         -52.258 -22.731 -37.548  0.00  0.00     0.080 A 
ATOM     17  C29 LIX d         -51.670 -23.592 -36.601  0.00  0.00     0.037 A 
ATOM     18  C25 LIX d         -51.545 -24.956 -36.890  0.00  0.00    -0.025 A 
ATOM     19  C24 LIX d         -50.972 -25.859 -35.997  0.00  0.00     0.012 A 
ATOM     20  C26 LIX d         -52.024 -25.472 -38.206  0.00  0.00    -0.026 A 
ATOM     21  C23 LIX d         -50.868 -27.218 -36.345  0.00  0.00     0.001 A 
ATOM     22  C28 LIX d         -51.326 -27.700 -37.583  0.00  0.00     0.001 A 
ATOM     23  C27 LIX d         -51.900 -26.833 -38.515  0.00  0.00     0.012 A 
ATOM     24  C32 LIX d         -52.586 -24.574 -39.109  0.00  0.00     0.014 A 
ATOM     25  C31 LIX d         -52.699 -23.223 -38.782  0.00  0.00     0.026 A 
ENDBRANCH  13  16
ENDBRANCH  11  13
ENDBRANCH  10  11
ENDBRANCH   9  10
ENDBRANCH   7   9
ENDBRANCH   3   7
BRANCH   2  26
ATOM     26  C12 LIX d         -55.807 -19.553 -31.825  0.00  0.00    -0.018 A 
ATOM     27  C7  LIX d         -56.501 -20.383 -30.948  0.00  0.00     0.015 A 
ATOM     28  C8  LIX d         -55.756 -21.132 -30.041  0.00  0.00     0.040 A 
ATOM     29  C9  LIX d         -54.353 -21.055 -30.009  0.00  0.00     0.097 A 
ATOM     30  C10 LIX d         -53.661 -20.218 -30.895  0.00  0.00     0.071 A 
ATOM     31  O2  LIX d         -53.639 -21.801 -29.099  0.00  0.00    -0.329 OA
ATOM     32  C11 LIX d         -54.418 -19.476 -31.798  0.00  0.00     0.045 A 
ATOM     33  N5  LIX d         -52.238 -20.146 -30.890  0.00  0.00    -0.313 N 
ATOM     34  C15 LIX d         -51.576 -21.050 -30.163  0.00  0.00     0.259 C 
ATOM     35  O3  LIX d         -50.369 -21.000 -30.068  0.00  0.00    -0.270 OA
ATOM     36  C14 LIX d         -52.316 -22.185 -29.484  0.00  0.00     0.141 C 
ATOM     37  C13 LIX d         -51.496 -22.570 -28.263  0.00  0.00     0.057 C 
ATOM     38  C22 LIX d         -52.461 -23.344 -30.476  0.00  0.00     0.057 C 
BRANCH  33  39
ATOM     39  C16 LIX d         -51.491 -19.156 -31.709  0.00  0.00     0.134 C 
BRANCH  39  40
ATOM     40  C17 LIX d         -51.479 -17.781 -31.054  0.00  0.00     0.046 C 
BRANCH  40  41
ATOM     41  C18 LIX d         -50.859 -16.787 -32.042  0.00  0.00     0.168 C 
BRANCH  41  42
ATOM     42  O1  LIX d         -50.703 -15.508 -31.454  0.00  0.00    -0.396 OA
ATOM     43  C19 LIX d         -50.197 -14.502 -32.337  0.00  0.00     0.201 C 
ENDBRANCH  41  42
ENDBRANCH  40  41
ENDBRANCH  39  40
ENDBRANCH  33  39
ENDBRANCH   2  26
BRANCH   6  44
ATOM     44  N4  LIX d         -57.919 -16.071 -35.656  0.00  0.00    -0.231 N 
ATOM     45  H29 LIX d         -57.925 -16.317 -36.656  0.00  0.00     0.174 HD
ATOM     46  H30 LIX d         -58.299 -15.165 -35.346  0.00  0.00     0.174 HD
ENDBRANCH   6  44
BRANCH   4  47
ATOM     47  C5  LIX d         -56.964 -16.851 -31.038  0.00  0.00     0.056 C 
ATOM     48  C6  LIX d         -55.828 -15.880 -30.818  0.00  0.00     0.011 C 
ENDBRANCH   4  47
TORSDOF 13
