2il2_ligand

Created by X-TOOL on Fri Sep 26 17:34:33 2014
 82 86  0  0  0  0  0  0  0  0999 V2000
  -56.9420  -18.1290  -35.1670  N 0  0  0  1  0  2
  -55.9500  -20.1930  -34.7420  N 0  0  0  2  0  3
  -56.4020  -18.6700  -32.8460  C 0  0  0  1  0  3
  -56.9640  -16.8510  -31.0380  C 0  0  0  3  0  4
  -55.8280  -15.8800  -30.8180  C 0  0  0  4  0  4
  -56.5010  -20.3830  -30.9480  C 0  0  0  2  0  3
  -55.7560  -21.1320  -30.0410  C 0  0  0  2  0  3
  -53.6610  -20.2180  -30.8950  C 0  0  0  1  0  3
  -51.4960  -22.5700  -28.2630  C 0  0  0  4  0  4
  -51.5760  -21.0500  -30.1630  C 0  0  0  1  0  3
  -51.4790  -17.7810  -31.0540  C 0  0  0  3  0  4
  -56.0640  -20.5130  -36.1470  C 0  0  0  3  0  4
  -54.9800  -21.4490  -36.6400  C 0  0  0  3  0  4
  -52.4610  -23.3440  -30.4760  C 0  0  0  4  0  4
  -50.9720  -25.8590  -35.9970  C 0  0  0  2  0  3
  -52.0240  -25.4720  -38.2060  C 0  0  0  1  0  3
  -51.3260  -27.7000  -37.5830  C 0  0  0  2  0  3
  -51.9700  -20.7280  -35.9970  O 0  0  0  1  0  1
  -52.4220  -21.1570  -37.3030  S 0  0  0  1  0  4
  -51.6920  -20.5020  -38.3550  O 0  0  0  1  0  1
  -52.2580  -22.7310  -37.5480  C 0  0  0  1  0  3
  -51.6700  -23.5920  -36.6010  C 0  0  0  2  0  3
  -51.5450  -24.9560  -36.8900  C 0  0  0  1  0  3
  -52.6990  -23.2230  -38.7820  C 0  0  0  2  0  3
  -52.5860  -24.5740  -39.1090  C 0  0  0  2  0  3
  -51.9000  -26.8330  -38.5150  C 0  0  0  2  0  3
  -50.8680  -27.2180  -36.3450  C 0  0  0  2  0  3
  -53.9650  -20.7380  -37.3890  N 0  0  0  2  0  3
  -56.4250  -19.0180  -34.2910  C 0  0  0  1  0  3
  -56.9430  -17.3500  -32.4630  C 0  0  0  1  0  3
  -57.4290  -16.5700  -33.4550  N 0  0  0  1  0  2
  -57.4150  -16.9350  -34.7530  C 0  0  0  1  0  3
  -57.9190  -16.0710  -35.6560  N 0  0  0  3  0  3
  -55.8070  -19.5530  -31.8250  C 0  0  0  1  0  3
  -54.4180  -19.4760  -31.7980  C 0  0  0  2  0  3
  -52.2380  -20.1460  -30.8900  N 0  0  0  1  0  3
  -51.4910  -19.1560  -31.7090  C 0  0  0  3  0  4
  -50.8590  -16.7870  -32.0420  C 0  0  0  3  0  4
  -50.7030  -15.5080  -31.4540  O 0  0  0  1  0  2
  -50.1970  -14.5020  -32.3370  C 0  0  0  4  0  4
  -50.3690  -21.0000  -30.0680  O 0  0  0  1  0  1
  -52.3160  -22.1850  -29.4840  C 0  0  0  1  0  4
  -53.6390  -21.8010  -29.0990  O 0  0  0  1  0  2
  -54.3530  -21.0550  -30.0090  C 0  0  0  1  0  3
  -55.5089  -20.8589  -34.0917  H 0  0  0  1  0  1
  -57.9205  -16.3440  -30.8429  H 0  0  0  1  0  1
  -56.8539  -17.7032  -30.3513  H 0  0  0  1  0  1
  -55.8490  -15.5205  -29.7786  H 0  0  0  1  0  1
  -55.9371  -15.0266  -31.5034  H 0  0  0  1  0  1
  -54.8706  -16.3858  -31.0117  H 0  0  0  1  0  1
  -57.5831  -20.4438  -30.9707  H 0  0  0  1  0  1
  -56.2682  -21.7874  -29.3459  H 0  0  0  1  0  1
  -51.9938  -23.3950  -27.7323  H 0  0  0  1  0  1
  -51.4079  -21.7028  -27.5921  H 0  0  0  1  0  1
  -50.4931  -22.8909  -28.5811  H 0  0  0  1  0  1
  -50.8799  -17.8127  -30.1320  H 0  0  0  1  0  1
  -52.5074  -17.4742  -30.8128  H 0  0  0  1  0  1
  -56.0061  -19.5780  -36.7235  H 0  0  0  1  0  1
  -57.0406  -20.9895  -36.3181  H 0  0  0  1  0  1
  -55.4345  -22.2118  -37.2892  H 0  0  0  1  0  1
  -54.5088  -21.9376  -35.7744  H 0  0  0  1  0  1
  -53.0600  -23.0158  -31.3383  H 0  0  0  1  0  1
  -52.9623  -24.1892  -29.9817  H 0  0  0  1  0  1
  -51.4648  -23.6589  -30.8202  H 0  0  0  1  0  1
  -50.6071  -25.5150  -35.0360  H 0  0  0  1  0  1
  -51.2329  -28.7544  -37.8166  H 0  0  0  1  0  1
  -51.3163  -23.2007  -35.6540  H 0  0  0  1  0  1
  -53.1380  -22.5389  -39.4992  H 0  0  0  1  0  1
  -52.9378  -24.9268  -40.0717  H 0  0  0  1  0  1
  -52.2470  -27.2100  -39.4703  H 0  0  0  1  0  1
  -50.4232  -27.9111  -35.6402  H 0  0  0  1  0  1
  -54.2329  -19.9704  -37.9713  H 0  0  0  1  0  1
  -57.9246  -16.3165  -36.6563  H 0  0  0  1  0  1
  -58.2986  -15.1651  -35.3459  H 0  0  0  1  0  1
  -53.9119  -18.8213  -32.4982  H 0  0  0  1  0  1
  -50.4541  -19.5028  -31.8300  H 0  0  0  1  0  1
  -51.9688  -19.0767  -32.6966  H 0  0  0  1  0  1
  -51.5140  -16.6998  -32.9214  H 0  0  0  1  0  1
  -49.8728  -17.1604  -32.3549  H 0  0  0  1  0  1
  -50.1102  -13.5486  -31.7952  H 0  0  0  1  0  1
  -50.8852  -14.3797  -33.1863  H 0  0  0  1  0  1
  -49.2066  -14.8043  -32.7081  H 0  0  0  1  0  1
 29  1  4  0  0  1
  1 32  4  0  0  1
  2 12  1  0  0  2
 29  2  1  0  0  2
  3 29  4  0  0  1
  3 30  4  0  0  1
 34  3  1  0  0  2
  4  5  1  0  0  2
 30  4  1  0  0  2
  7  6  4  0  0  1
 34  6  4  0  0  1
 44  7  4  0  0  1
  8 35  4  0  0  1
 36  8  1  0  0  1
  8 44  4  0  0  1
 42  9  1  0  0  2
 36 10  1  0  0  1
 10 41  2  0  0  2
 10 42  1  0  0  1
 37 11  1  0  0  2
 11 38  1  0  0  2
 12 13  1  0  0  2
 13 28  1  0  0  2
 42 14  1  0  0  2
 23 15  4  0  0  1
 15 27  4  0  0  1
 23 16  4  0  0  1
 25 16  4  0  0  1
 16 26  4  0  0  1
 26 17  4  0  0  1
 27 17  4  0  0  1
 19 18  2  0  0  2
 19 20  2  0  0  2
 19 21  1  0  0  2
 28 19  1  0  0  2
 21 22  4  0  0  1
 21 24  4  0  0  1
 22 23  4  0  0  1
 24 25  4  0  0  1
 30 31  4  0  0  1
 31 32  4  0  0  1
 32 33  1  0  0  2
 35 34  4  0  0  1
 36 37  1  0  0  2
 38 39  1  0  0  2
 39 40  1  0  0  2
 42 43  1  0  0  1
 43 44  1  0  0  1
  2 45  1  0  0  2
  4 46  1  0  0  2
  4 47  1  0  0  2
  5 48  1  0  0  2
  5 49  1  0  0  2
  5 50  1  0  0  2
  6 51  1  0  0  2
  7 52  1  0  0  2
  9 53  1  0  0  2
  9 54  1  0  0  2
  9 55  1  0  0  2
 11 56  1  0  0  2
 11 57  1  0  0  2
 12 58  1  0  0  2
 12 59  1  0  0  2
 13 60  1  0  0  2
 13 61  1  0  0  2
 14 62  1  0  0  2
 14 63  1  0  0  2
 14 64  1  0  0  2
 15 65  1  0  0  2
 17 66  1  0  0  2
 22 67  1  0  0  2
 24 68  1  0  0  2
 25 69  1  0  0  2
 26 70  1  0  0  2
 27 71  1  0  0  2
 28 72  1  0  0  2
 33 73  1  0  0  2
 33 74  1  0  0  2
 35 75  1  0  0  2
 37 76  1  0  0  2
 37 77  1  0  0  2
 38 78  1  0  0  2
 38 79  1  0  0  2
 40 80  1  0  0  2
 40 81  1  0  0  2
 40 82  1  0  0  2
M  END
> <MOLECULAR_FORMULA>
C32H38N6O5S

> <MOLECULAR_WEIGHT>
618.5

> <NUM_HB_ATOMS>
10 

> <NUM_ROTOR>
9  

> <XLOGP2>
4.88 

$$$$
