REMARK  3 active torsions:
REMARK  status: ('A' for Active; 'I' for Inactive)
REMARK    1  A    between atoms: P_1  and  O1P_2 
REMARK    2  A    between atoms: O1P_2  and  C2_6 
REMARK    3  A    between atoms: C2_6  and  C1_7 
ROOT
ATOM      1  O1P PGA d          31.147  70.209  12.544  0.00  0.00    -0.272 OA
ENDROOT
BRANCH   1   2
ATOM      2  P   PGA d          31.884  69.406  13.709  0.00  0.00     0.422 P 
ATOM      3  O2P PGA d          31.170  69.896  14.892  0.00  0.00    -0.617 OA
ATOM      4  O3P PGA d          31.666  67.975  13.310  0.00  0.00    -0.617 OA
ATOM      5  O4P PGA d          33.297  69.823  13.657  0.00  0.00    -0.617 OA
ENDBRANCH   1   2
BRANCH   1   6
ATOM      6  C2  PGA d          29.746  70.173  12.524  0.00  0.00     0.295 C 
BRANCH   6   7
ATOM      7  C1  PGA d          29.206  70.451  11.144  0.00  0.00     0.198 C 
ATOM      8  O1  PGA d          29.886  70.078  10.162  0.00  0.00    -0.646 OA
ATOM      9  O2  PGA d          28.076  70.987  11.039  0.00  0.00    -0.646 OA
ENDBRANCH   6   7
ENDBRANCH   1   6
TORSDOF 3
