REMARK  8 active torsions:
REMARK  status: ('A' for Active; 'I' for Inactive)
REMARK    1  A    between atoms: C1_1  and  C2_3 
REMARK    2  A    between atoms: C2_3  and  C3_4 
REMARK    3  A    between atoms: C3_4  and  C4_5 
REMARK    4  A    between atoms: C4_5  and  C5_6 
REMARK    5  A    between atoms: C5_6  and  C6_7 
REMARK    6  A    between atoms: C6_7  and  C7_8 
REMARK    7  A    between atoms: C7_8  and  C8_9 
REMARK    8  A    between atoms: C8_9  and  C9_10 
ROOT
ATOM      1  C4  DKA d          11.337  -2.217  -0.166  0.00  0.00     0.001 C 
ENDROOT
BRANCH   1   2
ATOM      2  C3  DKA d          10.003  -2.110   0.552  0.00  0.00     0.010 C 
BRANCH   2   3
ATOM      3  C2  DKA d           9.515  -0.668   0.516  0.00  0.00     0.113 C 
BRANCH   3   4
ATOM      4  C1  DKA d           8.040  -0.601   0.816  0.00  0.00     0.172 C 
ATOM      5  O1  DKA d           7.249  -1.122  -0.004  0.00  0.00    -0.648 OA
ATOM      6  O2  DKA d           7.673  -0.019   1.862  0.00  0.00    -0.648 OA
ENDBRANCH   3   4
ENDBRANCH   2   3
ENDBRANCH   1   2
BRANCH   1   7
ATOM      7  C5  DKA d          12.139  -3.413   0.332  0.00  0.00     0.000 C 
BRANCH   7   8
ATOM      8  C6  DKA d          13.525  -3.360  -0.296  0.00  0.00     0.000 C 
BRANCH   8   9
ATOM      9  C7  DKA d          14.235  -4.699  -0.184  0.00  0.00     0.000 C 
BRANCH   9  10
ATOM     10  C8  DKA d          15.224  -4.853  -1.322  0.00  0.00    -0.000 C 
BRANCH  10  11
ATOM     11  C9  DKA d          16.606  -5.228  -0.840  0.00  0.00    -0.005 C 
ATOM     12  C10 DKA d          17.606  -5.156  -1.973  0.00  0.00     0.005 C 
ENDBRANCH  10  11
ENDBRANCH   9  10
ENDBRANCH   8   9
ENDBRANCH   7   8
ENDBRANCH   1   7
TORSDOF 8
