REMARK  11 active torsions:
REMARK  status: ('A' for Active; 'I' for Inactive)
REMARK       I    between atoms: C1_1  and  N3_3 
REMARK    1  A    between atoms: C1_1  and  C12_12 
REMARK    2  A    between atoms: N3_3  and  C4_4 
REMARK    3  A    between atoms: C4_4  and  C5_5 
REMARK    4  A    between atoms: C5_5  and  C6_6 
REMARK    5  A    between atoms: C6_6  and  N7_7 
REMARK       I    between atoms: N7_7  and  C8_8 
REMARK       I    between atoms: C8_8  and  N9_9 
REMARK       I    between atoms: N11_11  and  C32_18 
REMARK    6  A    between atoms: C32_18  and  C33_19 
REMARK    7  A    between atoms: C33_19  and  C34_20 
REMARK    8  A    between atoms: C33_19  and  N21_27 
REMARK    9  A    between atoms: C34_20  and  C52_22 
REMARK   10  A    between atoms: N21_27  and  C22_28 
REMARK   11  A    between atoms: C22_28  and  C23_29 
ROOT
ATOM      1  N11 IGN d          42.487  24.914  52.077  0.00  0.00    -0.238 NA
ATOM      2  C12 IGN d          42.222  23.878  51.050  0.00  0.00     0.157 C 
ATOM      3  C13 IGN d          42.017  24.503  49.671  0.00  0.00     0.030 C 
ATOM      4  C14 IGN d          40.831  25.508  49.685  0.00  0.00     0.003 C 
ATOM      5  C15 IGN d          41.182  26.625  50.708  0.00  0.00     0.015 C 
ATOM      6  C16 IGN d          41.445  26.016  52.112  0.00  0.00     0.099 C 
ATOM      7  O31 IGN d          43.075  23.183  53.490  0.00  0.00    -0.277 OA
ATOM      8  C32 IGN d          42.675  24.361  53.324  0.00  0.00     0.231 C 
ENDROOT
BRANCH   2   9
ATOM      9  C1  IGN d          43.440  22.982  50.915  0.00  0.00     0.235 C 
ATOM     10  O2  IGN d          44.539  23.454  51.163  0.00  0.00    -0.272 OA
ATOM     11  N3  IGN d          43.275  21.688  50.511  0.00  0.00    -0.360 N 
ATOM     12  H1  IGN d          42.361  21.330  50.319  0.00  0.00     0.162 HD
BRANCH  11  13
ATOM     13  C4  IGN d          44.440  20.841  50.364  0.00  0.00     0.124 C 
BRANCH  13  14
ATOM     14  C5  IGN d          44.249  19.546  51.181  0.00  0.00     0.040 C 
BRANCH  14  15
ATOM     15  C6  IGN d          45.605  19.061  51.720  0.00  0.00     0.139 C 
BRANCH  15  16
ATOM     16  N7  IGN d          45.415  17.981  52.672  0.00  0.00    -0.227 N 
ATOM     17  C8  IGN d          45.871  18.063  53.889  0.00  0.00     0.665 C 
ATOM     18  N9  IGN d          46.322  19.180  54.413  0.00  0.00    -0.235 N 
ATOM     19  N10 IGN d          45.899  16.986  54.613  0.00  0.00    -0.235 N 
ATOM     20  H9  IGN d          46.672  19.190  55.382  0.00  0.00     0.174 HD
ATOM     21  H10 IGN d          46.326  20.046  53.855  0.00  0.00     0.174 HD
ATOM     22  H11 IGN d          45.552  16.097  54.227  0.00  0.00     0.174 HD
ATOM     23  H12 IGN d          46.269  17.021  55.574  0.00  0.00     0.174 HD
ATOM     24  H8  IGN d          44.909  17.133  52.379  0.00  0.00     0.177 HD
ENDBRANCH  15  16
ENDBRANCH  14  15
ENDBRANCH  13  14
ENDBRANCH  11  13
ENDBRANCH   2   9
BRANCH   8  25
ATOM     25  C33 IGN d          42.387  25.193  54.534  0.00  0.00     0.272 C 
BRANCH  25  26
ATOM     26  C34 IGN d          41.253  24.491  55.375  0.00  0.00     0.047 C 
BRANCH  26  27
ATOM     27  C52 IGN d          40.112  25.425  55.838  0.00  0.00    -0.012 C 
ATOM     28  C51 IGN d          39.048  24.518  56.538  0.00  0.00     0.005 C 
ATOM     29  C56 IGN d          37.715  25.228  56.822  0.00  0.00     0.000 C 
ATOM     30  C55 IGN d          37.167  25.763  55.509  0.00  0.00     0.000 C 
ATOM     31  C54 IGN d          38.108  26.859  55.043  0.00  0.00     0.000 C 
ATOM     32  C53 IGN d          39.476  26.239  54.662  0.00  0.00     0.005 C 
ENDBRANCH  26  27
ENDBRANCH  25  26
BRANCH  25  33
ATOM     33  N21 IGN d          43.521  25.300  55.418  0.00  0.00    -0.053 N 
ATOM     34  H36 IGN d          43.319  24.731  56.225  0.00  0.00     0.278 HD
ATOM     35  H37 IGN d          43.587  26.267  55.696  0.00  0.00     0.278 HD
BRANCH  33  36
ATOM     36  C22 IGN d          44.847  24.903  54.938  0.00  0.00     0.345 C 
BRANCH  36  37
ATOM     37  C23 IGN d          45.734  24.721  56.122  0.00  0.00     0.199 C 
ATOM     38  O24 IGN d          45.239  24.727  57.286  0.00  0.00    -0.647 OA
ATOM     39  O25 IGN d          47.046  24.580  55.949  0.00  0.00    -0.647 OA
ENDBRANCH  36  37
ENDBRANCH  33  36
ENDBRANCH  25  33
ENDBRANCH   8  25
TORSDOF 11
