REMARK  5 active torsions:
REMARK  status: ('A' for Active; 'I' for Inactive)
REMARK    1  A    between atoms: C03_3  and  S11_11 
REMARK    2  A    between atoms: C06_6  and  C07_7 
REMARK       I    between atoms: C07_7  and  N09_9 
REMARK    3  A    between atoms: N09_9  and  C10_10 
REMARK    4  A    between atoms: C10_10  and  C15_15 
REMARK    5  A    between atoms: S11_11  and  NP2_12 
ROOT
ATOM      1  C07 IOF d          -4.006   5.489  13.513  0.00  0.00     0.251 C 
ATOM      2  O08 IOF d          -4.827   6.347  13.227  0.00  0.00    -0.268 OA
ATOM      3  N09 IOF d          -2.629   5.678  13.098  0.00  0.00    -0.353 N 
ATOM      4  H5  IOF d          -1.931   4.986  13.283  0.00  0.00     0.163 HD
ENDROOT
BRANCH   1   5
ATOM      5  C06 IOF d          -4.578   4.318  14.317  0.00  0.00     0.032 A 
ATOM      6  C01 IOF d          -3.772   3.267  14.729  0.00  0.00     0.018 A 
ATOM      7  C02 IOF d          -4.266   2.206  15.484  0.00  0.00     0.026 A 
ATOM      8  C03 IOF d          -5.634   2.166  15.859  0.00  0.00     0.079 A 
ATOM      9  C04 IOF d          -6.441   3.222  15.435  0.00  0.00     0.026 A 
ATOM     10  C05 IOF d          -5.911   4.276  14.676  0.00  0.00     0.018 A 
BRANCH   8  11
ATOM     11  S11 IOF d          -6.187   0.766  16.850  0.00  0.00     0.256 S 
ATOM     12  O13 IOF d          -7.589   1.063  16.986  0.00  0.00    -0.201 OA
ATOM     13  O14 IOF d          -5.518   0.977  18.132  0.00  0.00    -0.201 OA
BRANCH  11  14
ATOM     14  NP2 IOF d          -5.818  -0.669  16.117  0.00  0.00    -0.324 N 
ATOM     15  H8  IOF d          -6.066  -1.533  16.555  0.00  0.00     0.169 HD
ATOM     16  H9  IOF d          -5.346  -0.673  15.235  0.00  0.00     0.169 HD
ENDBRANCH  11  14
ENDBRANCH   8  11
ENDBRANCH   1   5
BRANCH   3  17
ATOM     17  C10 IOF d          -2.297   6.941  12.387  0.00  0.00     0.161 C 
BRANCH  17  18
ATOM     18  C15 IOF d          -1.569   7.952  13.118  0.00  0.00    -0.034 A 
ATOM     19  C16 IOF d          -0.544   8.765  12.490  0.00  0.00     0.054 A 
ATOM     20  C17 IOF d           0.150   9.757  13.303  0.00  0.00     0.158 A 
ATOM     21  C18 IOF d          -0.177   9.921  14.687  0.00  0.00     0.193 A 
ATOM     22  F21 IOF d           1.102  10.522  12.750  0.00  0.00    -0.203 F 
ATOM     23  C19 IOF d          -1.188   9.115  15.296  0.00  0.00     0.158 A 
ATOM     24  F22 IOF d           0.465  10.835  15.426  0.00  0.00    -0.200 F 
ATOM     25  C20 IOF d          -1.879   8.141  14.530  0.00  0.00     0.054 A 
ATOM     26  F23 IOF d          -1.499   9.262  16.590  0.00  0.00    -0.203 F 
ENDBRANCH  17  18
ENDBRANCH   3  17
TORSDOF 5
