REMARK  2 active torsions:
REMARK  status: ('A' for Active; 'I' for Inactive)
REMARK    1  A    between atoms: C4_1  and  C5_2 
REMARK    2  A    between atoms: C_17  and  N_18 
ROOT
ATOM      1  C4  MOL d          -7.109  15.925  -0.029  0.00  0.00     0.119 A 
ATOM      2  N1  MOL d          -4.351  16.674  -0.512  0.00  0.00    -0.041 NA
ATOM      3  N2  MOL d          -4.835  18.353   1.179  0.00  0.00    -0.222 NA
ATOM      4  C3  MOL d          -6.527  16.962   0.715  0.00  0.00     0.113 A 
ATOM      5  N3  MOL d          -7.014  17.837   1.722  0.00  0.00    -0.346 N 
ATOM      6  N4  MOL d          -6.409  15.258  -0.987  0.00  0.00    -0.060 NA
ATOM      7  C   MOL d          -5.054  15.666  -1.173  0.00  0.00     0.723 A 
ATOM      8  C1  MOL d          -5.156  17.287   0.401  0.00  0.00     0.198 A 
ATOM      9  C2  MOL d          -5.944  18.647   1.955  0.00  0.00     0.210 A 
ATOM     10  H5  MOL d          -7.944  17.855   2.165  0.00  0.00     0.167 HD
ENDROOT
BRANCH   1  11
ATOM     11  C5  MOL d          -8.476  15.506   0.203  0.00  0.00     0.032 A 
ATOM     12  fur MOL d          -9.141  15.577   1.394  0.00  0.00     0.098 A 
ATOM     13  C9  MOL d         -10.515  15.168   1.532  0.00  0.00     0.002 A 
ATOM     14  O   MOL d          -8.579  15.860   2.567  0.00  0.00    -0.321 OA
ATOM     15  C8  MOL d         -10.954  15.404   2.968  0.00  0.00     0.039 C 
ATOM     16  C10 MOL d         -11.185  14.612   0.450  0.00  0.00     0.033 A 
ATOM     17  C7  MOL d          -9.580  15.769   3.616  0.00  0.00     0.143 C 
ATOM     18  C11 MOL d         -10.465  14.476  -0.714  0.00  0.00     0.012 A 
ATOM     19  C12 MOL d          -9.179  14.906  -0.885  0.00  0.00     0.036 A 
ATOM     20 BR   MOL d         -11.286  13.613  -2.267  0.00  0.00    -0.051 Br
ENDBRANCH   1  11
BRANCH   7  21
ATOM     21  N   MOL d          -4.308  14.958  -2.140  0.00  0.00    -0.231 N 
ATOM     22  H6  MOL d          -3.325  15.209  -2.317  0.00  0.00     0.174 HD
ATOM     23  H7  MOL d          -4.747  14.191  -2.669  0.00  0.00     0.174 HD
ENDBRANCH   7  21
TORSDOF 2
