REMARK  7 active torsions:
REMARK  status: ('A' for Active; 'I' for Inactive)
REMARK    1  A    between atoms: O15_1  and  C10_2 
REMARK    2  A    between atoms: C10_2  and  C6_3 
REMARK    3  A    between atoms: C6_3  and  N2_4 
REMARK    4  A    between atoms: C1_12  and  C4_13 
REMARK    5  A    between atoms: C4_13  and  N8_14 
REMARK    6  A    between atoms: N20_18  and  S21_21 
REMARK    7  A    between atoms: S21_21  and  C22_24 
ROOT
ATOM      1  N8  RDR d           5.481   5.059  21.600  0.00  0.00    -0.344 N 
ATOM      2  C12 RDR d           5.059   5.249  22.914  0.00  0.00     0.234 C 
ATOM      3  O18 RDR d           4.326   4.471  23.509  0.00  0.00    -0.272 OA
ATOM      4  C17 RDR d           5.569   6.522  23.635  0.00  0.00     0.210 C 
ATOM      5  N20 RDR d           6.049   7.617  22.762  0.00  0.00    -0.196 NA
ATOM      6  C19 RDR d           7.031   7.080  21.790  0.00  0.00     0.128 C 
ATOM      7  C13 RDR d           6.375   6.022  20.881  0.00  0.00     0.141 C 
ENDROOT
BRANCH   1   8
ATOM      8  C4  RDR d           5.025   3.854  20.860  0.00  0.00     0.183 C 
BRANCH   8   9
ATOM      9  C1  RDR d           6.085   2.962  20.179  0.00  0.00     0.031 A 
ATOM     10  N2  RDR d           5.863   2.363  18.959  0.00  0.00    -0.346 N 
ATOM     11  C5  RDR d           6.998   1.617  18.591  0.00  0.00     0.048 A 
ATOM     12  C7  RDR d           7.962   1.765  19.638  0.00  0.00     0.010 A 
ATOM     13  C9  RDR d           7.311   0.830  17.471  0.00  0.00     0.050 A 
ATOM     14  C11 RDR d           9.191   1.115  19.513  0.00  0.00     0.130 A 
ATOM     15  C3  RDR d           7.374   2.618  20.643  0.00  0.00     0.042 A 
ATOM     16  N16 RDR d           9.495   0.345  18.415  0.00  0.00    -0.272 NA
ATOM     17  C14 RDR d           8.577   0.206  17.416  0.00  0.00     0.118 A 
BRANCH  10  18
ATOM     18  C6  RDR d           4.649   2.426  18.079  0.00  0.00     0.155 C 
BRANCH  18  19
ATOM     19  C10 RDR d           3.629   1.289  18.330  0.00  0.00     0.184 C 
BRANCH  19  20
ATOM     20  O15 RDR d           3.024   1.497  19.601  0.00  0.00    -0.399 OA
ATOM     21  H1  RDR d           2.395   0.805  19.768  0.00  0.00     0.209 HD
ENDBRANCH  19  20
ENDBRANCH  18  19
ENDBRANCH  10  18
ENDBRANCH   8   9
ENDBRANCH   1   8
BRANCH   5  22
ATOM     22  S21 RDR d           6.624   9.039  23.660  0.00  0.00     0.250 S 
ATOM     23  O23 RDR d           5.618   9.281  24.661  0.00  0.00    -0.205 OA
ATOM     24  O24 RDR d           6.839  10.016  22.625  0.00  0.00    -0.205 OA
BRANCH  22  25
ATOM     25  C22 RDR d           8.126   8.683  24.420  0.00  0.00     0.116 A 
ATOM     26  C25 RDR d           8.159   8.081  25.690  0.00  0.00     0.045 A 
ATOM     27  C27 RDR d           9.523   7.841  26.141  0.00  0.00    -0.017 A 
ATOM     28  C28 RDR d          10.470   8.297  25.141  0.00  0.00     0.018 A 
ATOM     29  C29 RDR d           9.981   7.257  27.323  0.00  0.00     0.014 A 
ATOM     30  S26 RDR d           9.678   8.963  23.790  0.00  0.00    -0.076 SA
ATOM     31  C30 RDR d          11.834   8.145  25.374  0.00  0.00     0.043 A 
ATOM     32  C32 RDR d          12.278   7.545  26.574  0.00  0.00     0.035 A 
ATOM     33 CL33 RDR d          13.965   7.345  26.831  0.00  0.00    -0.084 Cl
ATOM     34  C31 RDR d          11.368   7.101  27.562  0.00  0.00     0.024 A 
ENDBRANCH  22  25
ENDBRANCH   5  22
TORSDOF 7
