4pyx_ligand

Created by X-TOOL on Sun Nov 13 14:28:33 2016
 49 50  0  0  0  0  0  0  0  0999 V2000
   -2.9120    3.2080   13.2420  F 0  0  0  1  0  1
   -3.8400    3.2860   14.1730  C 0  0  0  1  0  3
   -4.3510    4.5110   14.5500  C 0  0  0  1  0  3
   -3.7230    6.0230   13.8200  S 0  0  0  1  0  2
   -4.2030    5.8180   12.0490  C 0  0  0  3  0  4
   -5.6620    6.2450   11.7140  C 0  0  0  3  0  4
   -6.0260    5.8620   10.3900  O 0  0  0  2  0  2
   -5.3360    4.5630   15.5210  C 0  0  0  1  0  3
   -5.8920    5.7150   15.9040  F 0  0  0  1  0  1
   -4.3110    2.0740   14.7320  C 0  0  0  1  0  3
   -5.2360    2.1660   15.7740  C 0  0  0  1  0  3
   -5.8500    0.7560   16.6650  S 0  0  0  1  0  4
   -7.3390    0.8200   16.5660  O 0  0  0  1  0  1
   -5.1200   -0.6680   16.1100  N 0  0  0  3  0  3
   -5.4270    0.9840   18.0570  O 0  0  0  1  0  1
   -5.7790    3.3940   16.1410  C 0  0  0  1  0  3
   -6.6790    3.4560   17.0930  F 0  0  0  1  0  1
   -3.7440    0.8460   14.3020  N 0  0  0  2  0  3
   -3.6000    0.5360   12.8980  C 0  0  0  2  0  4
   -3.8160   -1.0030   12.8330  C 0  0  0  3  0  4
   -3.0320   -1.7140   11.7250  C 0  0  0  3  0  4
   -2.9750   -1.2090   10.2990  C 0  0  0  3  0  4
   -2.4920    0.2250    9.9540  C 0  0  0  3  0  4
   -3.7620    0.9820    9.6620  C 0  0  0  3  0  4
   -4.2190    1.9300   10.7630  C 0  0  0  3  0  4
   -4.7100    1.2080   12.0310  C 0  0  0  3  0  4
   -4.0878    4.7567   11.7839  H 0  0  0  1  0  1
   -3.5198    6.4251   11.4369  H 0  0  0  1  0  1
   -5.7448    7.3380   11.8057  H 0  0  0  1  0  1
   -6.3481    5.7642   12.4268  H 0  0  0  1  0  1
   -6.9190    6.1358   10.2165  H 0  0  0  1  0  1
   -5.3656   -1.5475   16.5177  H 0  0  0  1  0  1
   -4.4434   -0.6293   15.3746  H 0  0  0  1  0  1
   -3.4289    0.1621   15.0048  H 0  0  0  1  0  1
   -2.6043    0.8259   12.5313  H 0  0  0  1  0  1
   -4.8873   -1.1919   12.6698  H 0  0  0  1  0  1
   -3.5107   -1.4328   13.7984  H 0  0  0  1  0  1
   -3.4432   -2.7327   11.6691  H 0  0  0  1  0  1
   -1.9892   -1.7580   12.0724  H 0  0  0  1  0  1
   -3.9969   -1.2939    9.9010  H 0  0  0  1  0  1
   -2.3112   -1.8969    9.7548  H 0  0  0  1  0  1
   -1.8333    0.2136    9.0731  H 0  0  0  1  0  1
   -1.9581    0.6723   10.8054  H 0  0  0  1  0  1
   -4.5636    0.2486    9.4900  H 0  0  0  1  0  1
   -3.6035    1.5731    8.7480  H 0  0  0  1  0  1
   -5.0423    2.5460   10.3724  H 0  0  0  1  0  1
   -3.3738    2.5785   11.0370  H 0  0  0  1  0  1
   -5.2304    1.9453   12.6599  H 0  0  0  1  0  1
   -5.4180    0.4250   11.7216  H 0  0  0  1  0  1
  1  2  1  0  0  2
  2  3  4  0  0  1
  2 10  4  0  0  1
  3  4  1  0  0  2
  3  8  4  0  0  1
  4  5  1  0  0  2
  5  6  1  0  0  2
  6  7  1  0  0  2
  8  9  1  0  0  2
  8 16  4  0  0  1
 10 11  4  0  0  1
 10 18  1  0  0  2
 11 12  1  0  0  2
 11 16  4  0  0  1
 12 13  2  0  0  2
 12 14  1  0  0  2
 12 15  2  0  0  2
 16 17  1  0  0  2
 18 19  1  0  0  2
 19 20  1  0  0  1
 19 26  1  0  0  1
 20 21  1  0  0  1
 21 22  1  0  0  1
 22 23  1  0  0  1
 23 24  1  0  0  1
 24 25  1  0  0  1
 25 26  1  0  0  1
  5 27  1  0  0  2
  5 28  1  0  0  2
  6 29  1  0  0  2
  6 30  1  0  0  2
  7 31  1  0  0  2
 14 32  1  0  0  2
 14 33  1  0  0  2
 18 34  1  0  0  2
 19 35  1  0  0  2
 20 36  1  0  0  2
 20 37  1  0  0  2
 21 38  1  0  0  2
 21 39  1  0  0  2
 22 40  1  0  0  2
 22 41  1  0  0  2
 23 42  1  0  0  2
 23 43  1  0  0  2
 24 44  1  0  0  2
 24 45  1  0  0  2
 25 46  1  0  0  2
 25 47  1  0  0  2
 26 48  1  0  0  2
 26 49  1  0  0  2
M  END
> <MOLECULAR_FORMULA>
C16H23N2O3S2F3

> <MOLECULAR_WEIGHT>
412.3

> <NUM_HB_ATOMS>
6  

> <NUM_ROTOR>
5  

> <XLOGP2>
4.01 

$$$$
