REMARK  10 active torsions:
REMARK  status: ('A' for Active; 'I' for Inactive)
REMARK    1  A    between atoms: N_1  and  CA_2 
REMARK    2  A    between atoms: CA_2  and  CB_3 
REMARK    3  A    between atoms: CA_2  and  C_6 
REMARK    4  A    between atoms: CB_3  and  CG_4 
REMARK    5  A    between atoms: CG_4  and  SD_5 
REMARK    6  A    between atoms: SD_5  and  C5'_9 
REMARK    7  A    between atoms: C5'_9  and  C4'_10 
REMARK    8  A    between atoms: C3'_12  and  O3'_13 
REMARK    9  A    between atoms: C2'_14  and  O2'_15 
REMARK   10  A    between atoms: C1'_16  and  N9_17 
ROOT
ATOM      1  C4' SAH d          40.179 272.403 162.931  0.00  0.00     0.165 C 
ATOM      2  O4' SAH d          40.503 272.123 164.280  0.00  0.00    -0.355 OA
ATOM      3  C3' SAH d          41.185 273.433 162.477  0.00  0.00     0.180 C 
ATOM      4  C2' SAH d          42.140 273.567 163.635  0.00  0.00     0.198 C 
ATOM      5  C1' SAH d          41.312 273.137 164.821  0.00  0.00     0.262 C 
ENDROOT
BRANCH   1   6
ATOM      6  C5' SAH d          40.242 271.118 162.120  0.00  0.00     0.108 C 
BRANCH   6   7
ATOM      7  SD  SAH d          39.643 271.259 160.486  0.00  0.00    -0.166 SA
BRANCH   7   8
ATOM      8  CG  SAH d          37.935 271.365 160.871  0.00  0.00     0.076 C 
BRANCH   8   9
ATOM      9  CB  SAH d          37.102 271.518 159.602  0.00  0.00     0.054 C 
BRANCH   9  10
ATOM     10  CA  SAH d          35.607 271.773 159.773  0.00  0.00     0.284 C 
BRANCH  10  11
ATOM     11  N   SAH d          35.057 270.992 160.845  0.00  0.00    -0.065 N 
ATOM     12  H1  SAH d          35.537 271.214 161.703  0.00  0.00     0.275 HD
ATOM     13  H2  SAH d          35.172 270.012 160.640  0.00  0.00     0.275 HD
ATOM     14  H3  SAH d          34.076 271.202 160.945  0.00  0.00     0.275 HD
ENDBRANCH  10  11
BRANCH  10  15
ATOM     15  C   SAH d          34.917 271.472 158.470  0.00  0.00     0.204 C 
ATOM     16  O   SAH d          34.967 272.271 157.565  0.00  0.00    -0.646 OA
ATOM     17  OXT SAH d          34.321 270.413 158.345  0.00  0.00    -0.646 OA
ENDBRANCH  10  15
ENDBRANCH   9  10
ENDBRANCH   8   9
ENDBRANCH   7   8
ENDBRANCH   6   7
ENDBRANCH   1   6
BRANCH   3  18
ATOM     18  O3' SAH d          40.559 274.666 162.214  0.00  0.00    -0.390 OA
ATOM     19  H13 SAH d          40.136 274.980 163.004  0.00  0.00     0.210 HD
ENDBRANCH   3  18
BRANCH   5  20
ATOM     20  N9  SAH d          42.107 272.593 165.931  0.00  0.00    -0.294 N 
ATOM     21  C8  SAH d          43.195 271.848 165.862  0.00  0.00     0.214 A 
ATOM     22  N7  SAH d          43.632 271.538 167.070  0.00  0.00    -0.236 NA
ATOM     23  C5  SAH d          42.813 272.084 167.935  0.00  0.00     0.149 A 
ATOM     24  C6  SAH d          42.690 272.137 169.390  0.00  0.00     0.155 A 
ATOM     25  C4  SAH d          41.794 272.764 167.183  0.00  0.00     0.167 A 
ATOM     26  N6  SAH d          43.588 271.518 170.123  0.00  0.00    -0.382 N 
ATOM     27  N1  SAH d          41.673 272.803 169.930  0.00  0.00    -0.222 NA
ATOM     28  H18 SAH d          43.520 271.543 171.150  0.00  0.00     0.157 HD
ATOM     29  H19 SAH d          44.360 271.008 169.670  0.00  0.00     0.157 HD
ATOM     30  C2  SAH d          40.777 273.405 169.156  0.00  0.00     0.237 A 
ATOM     31  N3  SAH d          40.814 273.398 167.837  0.00  0.00    -0.222 NA
ENDBRANCH   5  20
BRANCH   4  32
ATOM     32  O2' SAH d          42.695 274.838 163.757  0.00  0.00    -0.388 OA
ATOM     33  H15 SAH d          42.001 275.474 163.886  0.00  0.00     0.210 HD
ENDBRANCH   4  32
TORSDOF 10
