REMARK  10 active torsions:
REMARK  status: ('A' for Active; 'I' for Inactive)
REMARK    1  A    between atoms: N_1  and  CA_2 
REMARK    2  A    between atoms: CA_2  and  CB_3 
REMARK    3  A    between atoms: CA_2  and  C_6 
REMARK    4  A    between atoms: CB_3  and  CG_4 
REMARK    5  A    between atoms: CG_4  and  SD_5 
REMARK    6  A    between atoms: SD_5  and  C5'_9 
REMARK    7  A    between atoms: C5'_9  and  C4'_10 
REMARK    8  A    between atoms: C3'_12  and  O3'_13 
REMARK    9  A    between atoms: C2'_14  and  O2'_15 
REMARK   10  A    between atoms: C1'_16  and  N9_17 
ROOT
ATOM      1  C4' SAH d          44.138  50.863   6.241  0.00  0.00     0.165 C 
ATOM      2  O4' SAH d          44.605  49.515   6.344  0.00  0.00    -0.355 OA
ATOM      3  C3' SAH d          43.954  51.352   7.682  0.00  0.00     0.180 C 
ATOM      4  C2' SAH d          44.417  50.191   8.549  0.00  0.00     0.198 C 
ATOM      5  C1' SAH d          44.175  49.034   7.614  0.00  0.00     0.262 C 
ENDROOT
BRANCH   1   6
ATOM      6  C5' SAH d          45.171  51.663   5.449  0.00  0.00     0.108 C 
BRANCH   6   7
ATOM      7  SD  SAH d          44.465  53.198   4.923  0.00  0.00    -0.166 SA
BRANCH   7   8
ATOM      8  CG  SAH d          43.807  52.857   3.314  0.00  0.00     0.076 C 
BRANCH   8   9
ATOM      9  CB  SAH d          42.276  52.961   3.326  0.00  0.00     0.054 C 
BRANCH   9  10
ATOM     10  CA  SAH d          41.595  52.727   1.956  0.00  0.00     0.284 C 
BRANCH  10  11
ATOM     11  N   SAH d          41.856  51.336   1.443  0.00  0.00    -0.065 N 
ATOM     12  H1  SAH d          41.542  50.662   2.124  0.00  0.00     0.275 HD
ATOM     13  H2  SAH d          42.844  51.217   1.283  0.00  0.00     0.275 HD
ATOM     14  H3  SAH d          41.357  51.197   0.579  0.00  0.00     0.275 HD
ENDBRANCH  10  11
BRANCH  10  15
ATOM     15  C   SAH d          42.071  53.724   0.924  0.00  0.00     0.204 C 
ATOM     16  O   SAH d          41.541  54.835   0.783  0.00  0.00    -0.646 OA
ATOM     17  OXT SAH d          43.014  53.445   0.185  0.00  0.00    -0.646 OA
ENDBRANCH  10  15
ENDBRANCH   9  10
ENDBRANCH   8   9
ENDBRANCH   7   8
ENDBRANCH   6   7
ENDBRANCH   1   6
BRANCH   3  18
ATOM     18  O3' SAH d          42.565  51.595   7.937  0.00  0.00    -0.390 OA
ATOM     19  H13 SAH d          42.456  51.898   8.831  0.00  0.00     0.210 HD
ENDBRANCH   3  18
BRANCH   5  20
ATOM     20  N9  SAH d          44.882  47.821   8.042  0.00  0.00    -0.294 N 
ATOM     21  C8  SAH d          46.178  47.738   8.447  0.00  0.00     0.214 A 
ATOM     22  N7  SAH d          46.474  46.462   8.767  0.00  0.00    -0.236 NA
ATOM     23  C5  SAH d          45.367  45.706   8.577  0.00  0.00     0.149 A 
ATOM     24  C6  SAH d          44.995  44.272   8.731  0.00  0.00     0.155 A 
ATOM     25  C4  SAH d          44.317  46.614   8.089  0.00  0.00     0.167 A 
ATOM     26  N6  SAH d          45.893  43.358   9.177  0.00  0.00    -0.382 N 
ATOM     27  N1  SAH d          43.722  43.909   8.415  0.00  0.00    -0.222 NA
ATOM     28  H18 SAH d          45.617  42.371   9.277  0.00  0.00     0.157 HD
ATOM     29  H19 SAH d          46.851  43.651   9.416  0.00  0.00     0.157 HD
ATOM     30  C2  SAH d          42.815  44.809   7.968  0.00  0.00     0.237 A 
ATOM     31  N3  SAH d          43.087  46.119   7.816  0.00  0.00    -0.222 NA
ENDBRANCH   5  20
BRANCH   4  32
ATOM     32  O2' SAH d          43.589  50.031   9.696  0.00  0.00    -0.388 OA
ATOM     33  H15 SAH d          42.696  49.862   9.419  0.00  0.00     0.210 HD
ENDBRANCH   4  32
TORSDOF 10
