REMARK  6 active torsions:
REMARK  status: ('A' for Active; 'I' for Inactive)
REMARK    1  A    between atoms: C4_1  and  O5_17 
REMARK    2  A    between atoms: C10_5  and  C6_2 
REMARK       I    between atoms: N12_6  and  C10_5 
REMARK    3  A    between atoms: C17_9  and  C16_21 
REMARK    4  A    between atoms: C20_10  and  C21_11 
REMARK    5  A    between atoms: C21_11  and  N22_24 
REMARK    6  A    between atoms: C2_15  and  O1_14 
ROOT
ATOM      1  C10 BD0 d          16.714  -2.839  49.451  0.00  0.00     0.257 C 
ATOM      2  N12 BD0 d          17.031  -3.332  50.739  0.00  0.00    -0.339 N 
ATOM      3  C13 BD0 d          17.624  -4.665  50.818  0.00  0.00     0.127 C 
ATOM      4  C15 BD0 d          17.880  -3.597  52.956  0.00  0.00     0.032 C 
ATOM      5  O11 BD0 d          16.911  -3.459  48.408  0.00  0.00    -0.267 OA
ATOM      6  C14 BD0 d          17.845  -4.966  52.286  0.00  0.00     0.022 C 
ATOM      7  C16 BD0 d          17.073  -2.625  52.054  0.00  0.00     0.120 C 
ENDROOT
BRANCH   7   8
ATOM      8  C17 BD0 d          15.741  -2.455  52.805  0.00  0.00    -0.035 A 
ATOM      9  C18 BD0 d          14.687  -3.428  52.760  0.00  0.00     0.010 A 
ATOM     10  C19 BD0 d          13.497  -3.242  53.499  0.00  0.00     0.009 A 
ATOM     11  C20 BD0 d          13.321  -2.078  54.304  0.00  0.00    -0.033 A 
ATOM     12  C29 BD0 d          14.354  -1.098  54.350  0.00  0.00     0.009 A 
ATOM     13  C30 BD0 d          15.552  -1.281  53.610  0.00  0.00     0.010 A 
BRANCH  11  14
ATOM     14  C21 BD0 d          12.060  -1.904  55.118  0.00  0.00     0.273 C 
BRANCH  14  15
ATOM     15  N22 BD0 d          10.975  -1.105  54.546  0.00  0.00    -0.061 N 
ATOM     16  C28 BD0 d           9.871  -1.044  55.491  0.00  0.00     0.313 C 
ATOM     17  C25 BD0 d           8.732  -0.569  54.653  0.00  0.00     0.269 C 
ATOM     18  C24 BD0 d           9.044  -0.936  53.216  0.00  0.00     0.108 C 
ATOM     19  F26 BD0 d           7.569  -1.117  55.070  0.00  0.00    -0.204 F 
ATOM     20  F27 BD0 d           8.617   0.766  54.772  0.00  0.00    -0.204 F 
ATOM     21  C23 BD0 d          10.399  -1.616  53.288  0.00  0.00     0.241 C 
ATOM     22  H20 BD0 d          11.332  -0.177  54.379  0.00  0.00     0.280 HD
ENDBRANCH  14  15
ENDBRANCH  11  14
ENDBRANCH   7   8
BRANCH   1  23
ATOM     23  C6  BD0 d          16.142  -1.476  49.316  0.00  0.00     0.067 A 
ATOM     24  C4  BD0 d          16.969  -0.410  48.848  0.00  0.00     0.084 A 
ATOM     25  C3  BD0 d          16.425   0.898  48.730  0.00  0.00     0.075 A 
ATOM     26  C2  BD0 d          15.062   1.123  49.081  0.00  0.00     0.090 A 
ATOM     27  C8  BD0 d          14.241   0.059  49.540  0.00  0.00     0.068 A 
ATOM     28  C7  BD0 d          14.778  -1.244  49.658  0.00  0.00     0.046 A 
ATOM     29 CL9  BD0 d          12.595   0.311  49.967  0.00  0.00    -0.081 Cl
BRANCH  24  30
ATOM     30  O5  BD0 d          18.287  -0.646  48.516  0.00  0.00    -0.360 OA
ATOM     31  H14 BD0 d          18.487  -1.565  48.652  0.00  0.00     0.217 HD
ENDBRANCH  24  30
BRANCH  26  32
ATOM     32  O1  BD0 d          14.587   2.395  48.958  0.00  0.00    -0.359 OA
ATOM     33  H12 BD0 d          15.280   2.961  48.639  0.00  0.00     0.217 HD
ENDBRANCH  26  32
ENDBRANCH   1  23
TORSDOF 6
