REMARK  6 active torsions:
REMARK  status: ('A' for Active; 'I' for Inactive)
REMARK    1  A    between atoms: P_1  and  O5_5 
REMARK    2  A    between atoms: O5_5  and  C5_6 
REMARK    3  A    between atoms: C5_6  and  C4_7 
REMARK    4  A    between atoms: C3_9  and  O3_10 
REMARK    5  A    between atoms: C2_11  and  O2_12 
REMARK    6  A    between atoms: C1_13  and  N9_14 
ROOT
ATOM      1  C4  AMP d          27.562  44.016  19.554  0.00  0.00     0.180 C 
ATOM      2  O4  AMP d          27.177  43.201  18.436  0.00  0.00    -0.353 OA
ATOM      3  C3  AMP d          26.393  44.947  19.832  0.00  0.00     0.182 C 
ATOM      4  C2  AMP d          25.403  44.761  18.689  0.00  0.00     0.198 C 
ATOM      5  C1  AMP d          25.917  43.579  17.856  0.00  0.00     0.262 C 
ENDROOT
BRANCH   5   6
ATOM      6  N9  AMP d          24.997  42.393  17.835  0.00  0.00    -0.294 N 
ATOM      7  C8  AMP d          23.977  42.177  18.685  0.00  0.00     0.214 A 
ATOM      8  N7  AMP d          23.324  41.022  18.425  0.00  0.00    -0.236 NA
ATOM      9  C5  AMP d          23.922  40.453  17.384  0.00  0.00     0.149 A 
ATOM     10  C6  AMP d          23.704  39.209  16.622  0.00  0.00     0.155 A 
ATOM     11  C4  AMP d          25.023  41.346  16.990  0.00  0.00     0.167 A 
ATOM     12  N6  AMP d          22.694  38.371  16.967  0.00  0.00    -0.382 N 
ATOM     13  N1  AMP d          24.540  38.957  15.587  0.00  0.00    -0.222 NA
ATOM     14  H10 AMP d          22.541  37.502  16.435  0.00  0.00     0.157 HD
ATOM     15  H11 AMP d          22.080  38.604  17.761  0.00  0.00     0.157 HD
ATOM     16  C2  AMP d          25.531  39.809  15.256  0.00  0.00     0.237 A 
ATOM     17  N3  AMP d          25.773  40.959  15.925  0.00  0.00    -0.222 NA
ENDBRANCH   5   6
BRANCH   4  18
ATOM     18  O2  AMP d          25.285  45.964  17.918  0.00  0.00    -0.388 OA
ATOM     19  H7  AMP d          24.980  46.669  18.477  0.00  0.00     0.210 HD
ENDBRANCH   4  18
BRANCH   1  20
ATOM     20  C5  AMP d          27.943  43.135  20.754  0.00  0.00     0.217 C 
BRANCH  20  21
ATOM     21  O5  AMP d          29.274  43.412  21.233  0.00  0.00    -0.280 OA
BRANCH  21  22
ATOM     22  P   AMP d          29.586  43.938  22.730  0.00  0.00     0.422 P 
ATOM     23  O1P AMP d          28.343  44.710  23.070  0.00  0.00    -0.617 OA
ATOM     24  O2P AMP d          29.825  42.693  23.573  0.00  0.00    -0.617 OA
ATOM     25  O3P AMP d          30.794  44.793  22.504  0.00  0.00    -0.617 OA
ENDBRANCH  21  22
ENDBRANCH  20  21
ENDBRANCH   1  20
BRANCH   3  26
ATOM     26  O3  AMP d          26.846  46.308  19.942  0.00  0.00    -0.390 OA
ATOM     27  H5  AMP d          27.262  46.569  19.129  0.00  0.00     0.210 HD
ENDBRANCH   3  26
TORSDOF 6
