REMARK  4 active torsions:
REMARK  status: ('A' for Active; 'I' for Inactive)
REMARK    1  A    between atoms: N_1  and  CA_2 
REMARK    2  A    between atoms: CA_2  and  C_3 
REMARK    3  A    between atoms: CA_2  and  CB_6 
REMARK    4  A    between atoms: CB_6  and  OG_7 
ROOT
ATOM      1  CA  DSN d           9.082  60.202  44.322  0.00  0.00     0.306 C 
ENDROOT
BRANCH   1   2
ATOM      2  N   DSN d           9.708  61.364  43.705  0.00  0.00    -0.063 N 
ATOM      3  H1  DSN d          10.291  61.065  42.940  0.00  0.00     0.275 HD
ATOM      4  H2  DSN d          10.271  61.845  44.389  0.00  0.00     0.275 HD
ATOM      5  H3  DSN d           8.994  61.986  43.360  0.00  0.00     0.275 HD
ENDBRANCH   1   2
BRANCH   1   6
ATOM      6  C   DSN d           8.195  60.624  45.481  0.00  0.00     0.206 C 
ATOM      7  O   DSN d           7.107  60.062  45.734  0.00  0.00    -0.646 OA
ATOM      8  OXT DSN d           8.579  61.558  46.186  0.00  0.00    -0.646 OA
ENDBRANCH   1   6
BRANCH   1   9
ATOM      9  CB  DSN d           8.268  59.426  43.300  0.00  0.00     0.208 C 
BRANCH   9  10
ATOM     10  OG  DSN d           7.040  60.066  43.040  0.00  0.00    -0.398 OA
ATOM     11  H7  DSN d           7.204  60.938  42.700  0.00  0.00     0.209 HD
ENDBRANCH   9  10
ENDBRANCH   1   9
TORSDOF 4
