REMARK  13 active torsions:
REMARK  status: ('A' for Active; 'I' for Inactive)
REMARK    1  A    between atoms: S8_10  and  C5_7 
REMARK    2  A    between atoms: N11_13  and  S8_10 
REMARK    3  A    between atoms: N11_13  and  C12_14 
REMARK    4  A    between atoms: C16_18  and  N11_13 
REMARK    5  A    between atoms: C12_14  and  C13_15 
REMARK    6  A    between atoms: C17_19  and  C16_18 
REMARK    7  A    between atoms: C17_19  and  O18_20 
REMARK    8  A    between atoms: C19_21  and  C17_19 
REMARK    9  A    between atoms: C19_21  and  N20_22 
REMARK   10  A    between atoms: C32_34  and  C19_21 
REMARK       I    between atoms: N20_22  and  C21_23 
REMARK   11  A    between atoms: C21_23  and  O23_25 
REMARK   12  A    between atoms: O23_25  and  C24_26 
REMARK   13  A    between atoms: C38_40  and  C32_34 
ROOT
ATOM      1  C17 MOL d          15.543  24.088  18.070  0.00  0.00     0.160 C 
ENDROOT
BRANCH   1   2
ATOM      2  C16 MOL d          16.663  24.978  17.522  0.00  0.00     0.169 C 
BRANCH   2   3
ATOM      3  N11 MOL d          17.930  24.288  17.481  0.00  0.00    -0.304 N 
BRANCH   3   4
ATOM      4  S8  MOL d          18.574  23.982  15.990  0.00  0.00     0.261 S 
ATOM      5  O9  MOL d          17.461  23.825  15.045  0.00  0.00    -0.200 OA
ATOM      6  O10 MOL d          19.568  22.874  16.166  0.00  0.00    -0.200 OA
BRANCH   4   7
ATOM      7  C5  MOL d          19.492  25.410  15.514  0.00  0.00     0.082 A 
ATOM      8  C4  MOL d          20.831  25.492  15.816  0.00  0.00     0.065 A 
ATOM      9  C3  MOL d          21.495  26.674  15.502  0.00  0.00     0.106 A 
ATOM     10  C2  MOL d          20.840  27.719  14.859  0.00  0.00     0.105 A 
ATOM     11  O41 MOL d          22.795  27.016  15.659  0.00  0.00    -0.323 OA
ATOM     12  O39 MOL d          21.691  28.778  14.714  0.00  0.00    -0.323 OA
ATOM     13  C7  MOL d          19.491  27.626  14.551  0.00  0.00     0.041 A 
ATOM     14  C40 MOL d          22.883  28.338  15.296  0.00  0.00     0.352 C 
ATOM     15  C6  MOL d          18.830  26.464  14.914  0.00  0.00     0.028 A 
ENDBRANCH   4   7
ENDBRANCH   3   4
BRANCH   3  16
ATOM     16  C12 MOL d          18.876  24.614  18.533  0.00  0.00     0.139 C 
BRANCH  16  17
ATOM     17  C13 MOL d          18.555  23.931  19.874  0.00  0.00    -0.004 C 
ATOM     18  C14 MOL d          18.602  22.409  19.706  0.00  0.00     0.011 C 
ATOM     19  C15 MOL d          19.581  24.397  20.905  0.00  0.00     0.011 C 
ENDBRANCH  16  17
ENDBRANCH   3  16
ENDBRANCH   2   3
ENDBRANCH   1   2
BRANCH   1  20
ATOM     20  O18 MOL d          14.394  24.924  18.342  0.00  0.00    -0.392 OA
ATOM     21  H18 MOL d          13.688  24.388  18.683  0.00  0.00     0.210 HD
ENDBRANCH   1  20
BRANCH   1  22
ATOM     22  C19 MOL d          15.150  22.982  17.080  0.00  0.00     0.121 C 
BRANCH  22  23
ATOM     23  N20 MOL d          14.232  22.096  17.823  0.00  0.00    -0.329 N 
ATOM     24  C21 MOL d          14.529  20.854  18.179  0.00  0.00     0.361 C 
ATOM     25  O22 MOL d          15.611  20.299  17.927  0.00  0.00    -0.238 OA
ATOM     26  H20 MOL d          13.332  22.454  18.073  0.00  0.00     0.165 HD
BRANCH  24  27
ATOM     27  O23 MOL d          13.542  20.239  18.853  0.00  0.00    -0.296 OA
BRANCH  27  28
ATOM     28  C24 MOL d          13.710  18.843  19.098  0.00  0.00     0.166 C 
ATOM     29  C25 MOL d          13.049  18.581  20.453  0.00  0.00     0.204 C 
ATOM     30  O26 MOL d          11.625  18.618  20.223  0.00  0.00    -0.358 OA
ATOM     31  C27 MOL d          11.425  18.019  18.920  0.00  0.00     0.266 C 
ATOM     32  O28 MOL d          10.499  18.857  18.226  0.00  0.00    -0.361 OA
ATOM     33  C31 MOL d          12.744  18.047  18.197  0.00  0.00     0.075 C 
ATOM     34  C29 MOL d          11.190  19.552  17.194  0.00  0.00     0.171 C 
ATOM     35  C30 MOL d          12.420  18.700  16.853  0.00  0.00     0.038 C 
ENDBRANCH  27  28
ENDBRANCH  24  27
ENDBRANCH  22  23
BRANCH  22  36
ATOM     36  C32 MOL d          14.409  23.500  15.853  0.00  0.00     0.066 C 
BRANCH  36  37
ATOM     37  C38 MOL d          14.014  22.340  14.951  0.00  0.00    -0.056 A 
ATOM     38  C33 MOL d          12.677  21.944  14.786  0.00  0.00     0.007 A 
ATOM     39  C34 MOL d          12.310  20.888  13.976  0.00  0.00     0.001 A 
ATOM     40  C35 MOL d          13.288  20.154  13.322  0.00  0.00     0.000 A 
ATOM     41  C36 MOL d          14.607  20.554  13.463  0.00  0.00     0.001 A 
ATOM     42  C37 MOL d          14.984  21.627  14.271  0.00  0.00     0.007 A 
ENDBRANCH  36  37
ENDBRANCH  22  36
ENDBRANCH   1  22
TORSDOF 13
