REMARK  8 active torsions:
REMARK  status: ('A' for Active; 'I' for Inactive)
REMARK    1  A    between atoms: O6B_1  and  C6B_2 
REMARK    2  A    between atoms: C6B_2  and  C5B_3 
REMARK    3  A    between atoms: C4B_4  and  O4B_5 
REMARK    4  A    between atoms: C3B_6  and  O3B_7 
REMARK    5  A    between atoms: C20_22  and  O2B_8 
REMARK    6  A    between atoms: C7B_11  and  C7_14 
REMARK    7  A    between atoms: C7_14  and  N1_15 
REMARK    8  A    between atoms: N1_15  and  C1_16 
ROOT
ATOM      1  C5B NHV d          26.750  48.436  -1.986  0.00  0.00     0.145 C 
ATOM      2  C4B NHV d          27.834  48.654  -0.899  0.00  0.00     0.175 C 
ATOM      3  C3B NHV d          28.052  47.413   0.007  0.00  0.00     0.185 C 
ATOM      4  N1B NHV d          27.329  47.340  -2.795  0.00  0.00    -0.332 N 
ATOM      5  C8B NHV d          27.653  47.277  -4.100  0.00  0.00     0.122 A 
ATOM      6  C7B NHV d          28.339  46.086  -4.255  0.00  0.00     0.069 A 
ATOM      7  N2B NHV d          28.338  45.418  -3.068  0.00  0.00    -0.234 NA
ATOM      8  C1B NHV d          27.757  46.256  -2.182  0.00  0.00     0.138 A 
ATOM      9  C20 NHV d          27.602  46.113  -0.684  0.00  0.00     0.219 C 
ENDROOT
BRANCH   6  10
ATOM     10  C7  NHV d          28.870  45.570  -5.553  0.00  0.00     0.180 C 
BRANCH  10  11
ATOM     11  N1  NHV d          30.319  45.709  -5.629  0.00  0.00    -0.384 N 
ATOM     12  H13 NHV d          30.887  44.858  -5.510  0.00  0.00     0.160 HD
BRANCH  11  13
ATOM     13  C1  NHV d          30.986  46.896  -5.849  0.00  0.00     0.028 A 
ATOM     14  C6  NHV d          30.330  48.036  -6.337  0.00  0.00     0.029 A 
ATOM     15  C5  NHV d          31.063  49.234  -6.547  0.00  0.00     0.002 A 
ATOM     16  C4  NHV d          32.443  49.319  -6.274  0.00  0.00     0.000 A 
ATOM     17  C3  NHV d          33.114  48.176  -5.789  0.00  0.00     0.002 A 
ATOM     18  C2  NHV d          32.376  46.985  -5.588  0.00  0.00     0.029 A 
ENDBRANCH  11  13
ENDBRANCH  10  11
ENDBRANCH   6  10
BRANCH   1  19
ATOM     19  C6B NHV d          26.422  49.735  -2.752  0.00  0.00     0.192 C 
BRANCH  19  20
ATOM     20  O6B NHV d          27.502  50.097  -3.597  0.00  0.00    -0.399 OA
ATOM     21  H1  NHV d          27.660  49.400  -4.223  0.00  0.00     0.209 HD
ENDBRANCH  19  20
ENDBRANCH   1  19
BRANCH   9  22
ATOM     22  O2B NHV d          28.226  44.871  -0.294  0.00  0.00    -0.385 OA
ATOM     23  H9  NHV d          29.160  44.922  -0.459  0.00  0.00     0.210 HD
ENDBRANCH   9  22
BRANCH   2  24
ATOM     24  O4B NHV d          27.481  49.789  -0.105  0.00  0.00    -0.391 OA
ATOM     25  H6  NHV d          28.143  49.926   0.562  0.00  0.00     0.210 HD
ENDBRANCH   2  24
BRANCH   3  26
ATOM     26  O3B NHV d          29.427  47.337   0.401  0.00  0.00    -0.390 OA
ATOM     27  H8  NHV d          29.555  46.576   0.955  0.00  0.00     0.210 HD
ENDBRANCH   3  26
TORSDOF 8
