REMARK  7 active torsions:
REMARK  status: ('A' for Active; 'I' for Inactive)
REMARK    1  A    between atoms: C9_4  and  N7_21 
REMARK    2  A    between atoms: C10_5  and  C11_6 
REMARK    3  A    between atoms: C6_20  and  C10_5 
REMARK    4  A    between atoms: C11_6  and  N19_11 
REMARK    5  A    between atoms: C14_23  and  O17_25 
REMARK    6  A    between atoms: C27_30  and  O30_33 
REMARK    7  A    between atoms: O30_33  and  C31_34 
ROOT
ATOM      1  C2  MOL d          -0.232  -4.642  23.419  0.00  0.00     0.032 A 
ATOM      2  C3  MOL d          -1.516  -5.072  23.701  0.00  0.00     0.074 A 
ATOM      3  C5  MOL d          -0.776  -5.807  25.877  0.00  0.00     0.019 A 
ATOM      4  C   MOL d           0.503  -5.372  25.590  0.00  0.00     0.001 A 
ATOM      5  N   MOL d          -2.511  -4.901  22.736  0.00  0.00    -0.234 NA
ATOM      6  O   MOL d          -3.399  -6.612  26.335  0.00  0.00    -0.267 OA
ATOM      7  C1  MOL d           0.767  -4.788  24.367  0.00  0.00     0.002 A 
ATOM      8  C4  MOL d          -1.779  -5.646  24.935  0.00  0.00     0.061 A 
ATOM      9  C6  MOL d          -3.712  -5.312  23.004  0.00  0.00     0.116 A 
ATOM     10  N7  MOL d          -4.085  -5.904  24.211  0.00  0.00    -0.265 N 
ATOM     11  C8  MOL d          -3.159  -6.100  25.240  0.00  0.00     0.266 A 
ENDROOT
BRANCH   9  12
ATOM     12  C10 MOL d          -4.754  -5.090  21.950  0.00  0.00     0.099 C 
BRANCH  12  13
ATOM     13  C11 MOL d          -5.020  -3.593  21.994  0.00  0.00     0.143 C 
BRANCH  13  14
ATOM     14  N19 MOL d          -6.195  -3.185  21.261  0.00  0.00    -0.279 N 
ATOM     15  C20 MOL d          -7.391  -2.871  21.880  0.00  0.00     0.261 A 
ATOM     16  C21 MOL d          -8.250  -2.490  20.770  0.00  0.00     0.051 A 
ATOM     17  O29 MOL d          -7.751  -2.943  23.056  0.00  0.00    -0.267 OA
ATOM     18  C22 MOL d          -7.574  -2.636  19.589  0.00  0.00     0.081 A 
ATOM     19  C24 MOL d          -9.562  -2.069  20.817  0.00  0.00     0.018 A 
ATOM     20  C23 MOL d          -6.214  -3.087  19.878  0.00  0.00     0.264 A 
ATOM     21  C27 MOL d          -8.161  -2.353  18.372  0.00  0.00     0.086 A 
ATOM     22  O28 MOL d          -5.328  -3.270  19.044  0.00  0.00    -0.267 OA
ATOM     23  C26 MOL d          -9.478  -1.909  18.411  0.00  0.00     0.038 A 
ATOM     24  C25 MOL d         -10.163  -1.773  19.602  0.00  0.00     0.004 A 
BRANCH  21  25
ATOM     25  O30 MOL d          -7.416  -2.550  17.194  0.00  0.00    -0.346 OA
BRANCH  25  26
ATOM     26  C31 MOL d          -8.054  -2.018  16.006  0.00  0.00     0.120 C 
ATOM     27  C32 MOL d          -6.983  -1.588  15.030  0.00  0.00     0.040 C 
ATOM     28  C33 MOL d          -8.937  -3.022  15.288  0.00  0.00     0.040 C 
ENDBRANCH  25  26
ENDBRANCH  21  25
ENDBRANCH  13  14
ENDBRANCH  12  13
ENDBRANCH   9  12
BRANCH  10  29
ATOM     29  C9  MOL d          -5.325  -6.552  24.384  0.00  0.00     0.044 A 
ATOM     30  C12 MOL d          -6.399  -5.837  24.890  0.00  0.00     0.033 A 
ATOM     31  C13 MOL d          -7.612  -6.471  25.099  0.00  0.00     0.039 A 
ATOM     32  C14 MOL d          -7.730  -7.831  24.825  0.00  0.00     0.068 A 
ATOM     33  C15 MOL d          -6.651  -8.544  24.319  0.00  0.00     0.039 A 
ATOM     34  C16 MOL d          -5.444  -7.906  24.094  0.00  0.00     0.033 A 
BRANCH  32  35
ATOM     35  O17 MOL d          -8.913  -8.545  25.016  0.00  0.00    -0.356 OA
ATOM     36  C18 MOL d          -9.762  -7.878  25.944  0.00  0.00     0.210 C 
ENDBRANCH  32  35
ENDBRANCH  10  29
TORSDOF 7
