2jdh_ligand

Created by X-TOOL on Fri Sep 26 17:34:35 2014
 59 61  0  0  0  0  0  0  0  0999 V2000
   38.7450    4.4860   -3.5560  C 0  0  0  2  0  4
   37.4100    4.2790   -2.8990  C 0  0  0  2  0  4
   36.6280    3.2760   -3.6900  C 0  0  0  2  0  4
   37.3660    1.9660   -3.8950  C 0  0  0  2  0  4
   38.7360    2.2880   -4.4980  C 0  0  0  2  0  4
   39.6110    1.0420   -4.6510  C 0  0  0  4  0  4
   36.6290    5.4880   -2.7860  O 0  0  0  2  0  2
   35.3910    2.9920   -2.9610  O 0  0  0  2  0  2
   37.4950    1.3610   -2.5840  O 0  0  0  2  0  2
   39.4710    3.2300   -3.6940  O 0  0  0  1  0  2
   40.8670    7.4180   -7.3530  C 0  0  0  2  0  4
   41.2910    5.9730   -7.2430  C 0  0  0  2  0  4
   40.1520    5.1360   -6.6460  C 0  0  0  2  0  4
   39.7520    5.7730   -5.3130  C 0  0  0  2  0  4
   39.3440    7.2250   -5.5270  C 0  0  0  2  0  4
   38.9250    7.9460   -4.2860  C 0  0  0  3  0  4
   42.8850    5.1840   -8.9210  C 0  0  0  1  0  3
   43.0890    4.7770  -10.3640  C 0  0  0  4  0  4
   41.6190    5.4620   -8.5700  N 0  0  0  2  0  3
   40.7160    3.8300   -6.4180  O 0  0  0  2  0  2
   38.5680    5.1130   -4.8330  O 0  0  0  1  0  2
   40.4790    7.9520   -6.0890  O 0  0  0  1  0  2
   39.8340    7.7690   -3.3160  O 0  0  0  2  0  2
   43.8530    5.2200   -8.1280  O 0  0  0  1  0  1
   43.0380    9.6960   -8.9590  N 0  0  0  1  0  2
   43.7440    9.4090   -7.8490  C 0  0  0  1  0  3
   45.0890    9.9600   -7.3990  C 0  0  0  3  0  4
   45.8110   10.3060   -8.5820  O 0  0  0  2  0  2
   41.8470    8.2050   -7.8050  N 0  0  0  1  0  3
   42.9890    8.4760   -7.1280  C 0  0  0  2  0  3
   41.8270    8.9620   -8.9830  N 0  0  0  1  0  2
   39.3414    5.1567   -2.9201  H 0  0  0  1  0  1
   37.5831    3.8850   -1.8867  H 0  0  0  1  0  1
   36.3913    3.7069   -4.6740  H 0  0  0  1  0  1
   36.8065    1.3000   -4.5684  H 0  0  0  1  0  1
   38.5699    2.7264   -5.4931  H 0  0  0  1  0  1
   40.5803    1.3259   -5.0866  H 0  0  0  1  0  1
   39.1091    0.3204   -5.3124  H 0  0  0  1  0  1
   39.7727    0.5840   -3.6641  H 0  0  0  1  0  1
   35.8104    5.2947   -2.3444  H 0  0  0  1  0  1
   35.6022    2.6000   -2.1218  H 0  0  0  1  0  1
   36.6309    1.1732   -2.2367  H 0  0  0  1  0  1
   40.0145    7.4707   -8.0462  H 0  0  0  1  0  1
   42.1757    5.9014   -6.5932  H 0  0  0  1  0  1
   39.2889    5.0827   -7.3258  H 0  0  0  1  0  1
   40.5760    5.6969   -4.5883  H 0  0  0  1  0  1
   38.5053    7.2432   -6.2385  H 0  0  0  1  0  1
   37.9538    7.5545   -3.9491  H 0  0  0  1  0  1
   38.8316    9.0201   -4.5042  H 0  0  0  1  0  1
   44.1556    4.5740  -10.5404  H 0  0  0  1  0  1
   42.7565    5.5909  -11.0251  H 0  0  0  1  0  1
   42.5033    3.8703  -10.5756  H 0  0  0  1  0  1
   40.8846    5.3156   -9.2327  H 0  0  0  1  0  1
   40.0724    3.2790   -5.9882  H 0  0  0  1  0  1
   40.6732    8.1083   -3.6042  H 0  0  0  1  0  1
   45.6393    9.1967   -6.8294  H 0  0  0  1  0  1
   44.9421   10.8511   -6.7711  H 0  0  0  1  0  1
   46.6610   10.6558   -8.3419  H 0  0  0  1  0  1
   43.2747    8.0371   -6.1732  H 0  0  0  1  0  1
  1  2  1  0  0  1
  1 10  1  0  0  1
 21  1  1  0  0  2
  2  3  1  0  0  1
  2  7  1  0  0  2
  3  4  1  0  0  1
  3  8  1  0  0  2
  5  4  1  0  0  1
  4  9  1  0  0  2
  5  6  1  0  0  2
 10  5  1  0  0  1
 11 12  1  0  0  1
 11 22  1  0  0  1
 29 11  1  0  0  2
 12 13  1  0  0  1
 12 19  1  0  0  2
 13 14  1  0  0  1
 13 20  1  0  0  2
 15 14  1  0  0  1
 14 21  1  0  0  2
 15 16  1  0  0  2
 22 15  1  0  0  1
 16 23  1  0  0  2
 17 18  1  0  0  2
 19 17  1  0  0  2
 17 24  2  0  0  2
 26 25  1  0  0  1
 25 31  2  0  0  1
 26 27  1  0  0  2
 30 26  2  0  0  1
 27 28  1  0  0  2
 29 30  1  0  0  1
 29 31  1  0  0  1
  1 32  1  0  0  2
  2 33  1  0  0  2
  3 34  1  0  0  2
  4 35  1  0  0  2
  5 36  1  0  0  2
  6 37  1  0  0  2
  6 38  1  0  0  2
  6 39  1  0  0  2
  7 40  1  0  0  2
  8 41  1  0  0  2
  9 42  1  0  0  2
 11 43  1  0  0  2
 12 44  1  0  0  2
 13 45  1  0  0  2
 14 46  1  0  0  2
 15 47  1  0  0  2
 16 48  1  0  0  2
 16 49  1  0  0  2
 18 50  1  0  0  2
 18 51  1  0  0  2
 18 52  1  0  0  2
 19 53  1  0  0  2
 20 54  1  0  0  2
 23 55  1  0  0  2
 27 56  1  0  0  2
 27 57  1  0  0  2
 28 58  1  0  0  2
 30 59  1  0  0  2
M  END
> <MOLECULAR_FORMULA>
C17H28N4O10

> <MOLECULAR_WEIGHT>
448.2

> <NUM_HB_ATOMS>
14 

> <NUM_ROTOR>
6  

> <XLOGP2>
-3.93

$$$$
