REMARK  4 active torsions:
REMARK  status: ('A' for Active; 'I' for Inactive)
REMARK    1  A    between atoms: C2_2  and  O4_19 
REMARK    2  A    between atoms: C4_4  and  O5_20 
REMARK    3  A    between atoms: C9_9  and  C10_12 
REMARK    4  A    between atoms: C13_15  and  O3_18 
ROOT
ATOM      1  C1  NAR d          20.843  41.985  37.605  0.00  0.00     0.074 A 
ATOM      2  C2  NAR d          20.942  42.005  36.272  0.00  0.00     0.071 A 
ATOM      3  C3  NAR d          21.986  42.628  35.650  0.00  0.00     0.074 A 
ATOM      4  C4  NAR d          22.951  43.238  36.408  0.00  0.00     0.085 A 
ATOM      5  C5  NAR d          22.885  43.227  37.744  0.00  0.00     0.076 A 
ATOM      6  C6  NAR d          21.825  42.593  38.344  0.00  0.00     0.089 A 
ATOM      7  C7  NAR d          23.844  43.772  38.606  0.00  0.00     0.167 C 
ATOM      8  C8  NAR d          23.788  43.348  40.074  0.00  0.00     0.121 C 
ATOM      9  C9  NAR d          22.797  42.141  40.175  0.00  0.00     0.169 C 
ATOM     10  O1  NAR d          21.715  42.600  39.661  0.00  0.00    -0.340 OA
ATOM     11  O2  NAR d          24.788  44.460  38.256  0.00  0.00    -0.292 OA
ENDROOT
BRANCH   9  12
ATOM     12  C10 NAR d          22.200  41.680  41.516  0.00  0.00    -0.028 A 
ATOM     13  C11 NAR d          21.722  42.614  42.356  0.00  0.00     0.012 A 
ATOM     14  C12 NAR d          21.160  42.121  43.531  0.00  0.00     0.037 A 
ATOM     15  C13 NAR d          21.004  40.772  43.851  0.00  0.00     0.065 A 
ATOM     16  C14 NAR d          21.452  39.778  43.022  0.00  0.00     0.037 A 
ATOM     17  C15 NAR d          22.031  40.173  41.799  0.00  0.00     0.012 A 
BRANCH  15  18
ATOM     18  O3  NAR d          20.431  40.482  45.025  0.00  0.00    -0.361 OA
ATOM     19  H10 NAR d          20.184  41.288  45.463  0.00  0.00     0.217 HD
ENDBRANCH  15  18
ENDBRANCH   9  12
BRANCH   4  20
ATOM     20  O5  NAR d          23.976  43.855  35.840  0.00  0.00    -0.360 OA
ATOM     21  H12 NAR d          23.974  44.770  36.095  0.00  0.00     0.217 HD
ENDBRANCH   4  20
BRANCH   2  22
ATOM     22  O4  NAR d          19.981  41.397  35.576  0.00  0.00    -0.361 OA
ATOM     23  H11 NAR d          19.345  41.024  36.175  0.00  0.00     0.217 HD
ENDBRANCH   2  22
TORSDOF 4
