REMARK  5 active torsions:
REMARK  status: ('A' for Active; 'I' for Inactive)
REMARK       I    between atoms: C12_2  and  N1_4 
REMARK    1  A    between atoms: N1_4  and  C11_5 
REMARK    2  A    between atoms: C5_12  and  O3_19 
REMARK    3  A    between atoms: C3_13  and  O2_17 
REMARK    4  A    between atoms: C1_14  and  O1_15 
REMARK    5  A    between atoms: C17_25  and  O6_28 
ROOT
ATOM      1  C11 LOC d         -13.399   7.803  -2.864  0.00  0.00     0.119 C 
ATOM      2  C14 LOC d         -13.178   6.971  -1.615  0.00  0.00    -0.020 C 
ATOM      3  C15 LOC d         -14.146   6.116  -1.232  0.00  0.00     0.068 C 
ATOM      4  C10 LOC d         -13.909   9.211  -2.536  0.00  0.00     0.034 C 
ATOM      5  C9  LOC d         -13.072   9.932  -1.475  0.00  0.00     0.042 C 
ATOM      6  C8  LOC d         -11.599   9.626  -1.624  0.00  0.00    -0.041 A 
ATOM      7  C7  LOC d         -10.789  10.666  -2.060  0.00  0.00     0.047 A 
ATOM      8  C5  LOC d          -9.425  10.475  -2.223  0.00  0.00     0.104 A 
ATOM      9  C3  LOC d          -8.870   9.222  -1.954  0.00  0.00     0.136 A 
ATOM     10  C1  LOC d          -9.675   8.168  -1.526  0.00  0.00     0.116 A 
ATOM     11  C22 LOC d         -11.050   8.364  -1.368  0.00  0.00     0.017 A 
ATOM     12  C21 LOC d         -11.926   7.242  -0.887  0.00  0.00    -0.014 C 
ATOM     13  C20 LOC d         -11.477   6.685   0.246  0.00  0.00     0.016 C 
ATOM     14  C19 LOC d         -12.002   5.583   1.032  0.00  0.00     0.042 C 
ATOM     15  C17 LOC d         -13.158   4.933   0.899  0.00  0.00     0.118 C 
ATOM     16  C16 LOC d         -14.204   5.194  -0.089  0.00  0.00     0.205 C 
ATOM     17  O5  LOC d         -15.234   4.557   0.034  0.00  0.00    -0.285 OA
ENDROOT
BRANCH   1  18
ATOM     18  N1  LOC d         -14.268   7.177  -3.847  0.00  0.00    -0.353 N 
ATOM     19  C12 LOC d         -13.811   6.418  -4.855  0.00  0.00     0.214 C 
ATOM     20  O4  LOC d         -14.537   6.037  -5.780  0.00  0.00    -0.274 OA
ATOM     21  C13 LOC d         -12.361   6.097  -4.796  0.00  0.00     0.117 C 
ATOM     22  H   LOC d         -15.255   7.319  -3.768  0.00  0.00     0.163 HD
ENDBRANCH   1  18
BRANCH  15  23
ATOM     23  O6  LOC d         -13.406   3.855   1.836  0.00  0.00    -0.352 OA
ATOM     24  C18 LOC d         -12.333   3.189   2.506  0.00  0.00     0.210 C 
ENDBRANCH  15  23
BRANCH  10  25
ATOM     25  O1  LOC d          -9.087   6.949  -1.296  0.00  0.00    -0.352 OA
ATOM     26  C2  LOC d          -9.045   6.052  -2.415  0.00  0.00     0.210 C 
ENDBRANCH  10  25
BRANCH   9  27
ATOM     27  O2  LOC d          -7.506   9.036  -2.091  0.00  0.00    -0.351 OA
ATOM     28  C4  LOC d          -6.698   9.467  -1.006  0.00  0.00     0.210 C 
ENDBRANCH   9  27
BRANCH   8  29
ATOM     29  O3  LOC d          -8.608  11.505  -2.635  0.00  0.00    -0.353 OA
ATOM     30  C6  LOC d          -9.039  12.853  -2.882  0.00  0.00     0.210 C 
ENDBRANCH   8  29
TORSDOF 5
