REMARK  14 active torsions:
REMARK  status: ('A' for Active; 'I' for Inactive)
REMARK    1  A    between atoms: C2_2  and  N1_1 
REMARK    2  A    between atoms: S8_8  and  C5_5 
REMARK    3  A    between atoms: N11_11  and  S8_8 
REMARK    4  A    between atoms: N11_11  and  C12_12 
REMARK    5  A    between atoms: C16_16  and  N11_11 
REMARK    6  A    between atoms: C12_12  and  C13_13 
REMARK    7  A    between atoms: C17_17  and  C16_16 
REMARK    8  A    between atoms: C17_17  and  O18_18 
REMARK    9  A    between atoms: C19_19  and  C17_17 
REMARK   10  A    between atoms: C19_19  and  N20_20 
REMARK   11  A    between atoms: C32_32  and  C19_19 
REMARK       I    between atoms: N20_20  and  C21_21 
REMARK   12  A    between atoms: C21_21  and  O23_23 
REMARK   13  A    between atoms: O23_23  and  C24_24 
REMARK   14  A    between atoms: C38_38  and  C32_32 
ROOT
ATOM      1  C17 MOL d          15.271  23.994  17.990  0.00  0.00     0.160 C 
ENDROOT
BRANCH   1   2
ATOM      2  C16 MOL d          16.454  24.903  17.533  0.00  0.00     0.169 C 
BRANCH   2   3
ATOM      3  N11 MOL d          17.729  24.076  17.519  0.00  0.00    -0.304 N 
BRANCH   3   4
ATOM      4  S8  MOL d          18.356  23.821  15.862  0.00  0.00     0.260 S 
ATOM      5  O9  MOL d          17.162  23.511  14.874  0.00  0.00    -0.200 OA
ATOM      6  O10 MOL d          19.397  22.614  15.920  0.00  0.00    -0.200 OA
BRANCH   4   7
ATOM      7  C5  MOL d          19.213  25.294  15.213  0.00  0.00     0.079 C 
ATOM      8  C4  MOL d          18.450  26.265  14.546  0.00  0.00     0.027 C 
ATOM      9  C3  MOL d          19.130  27.445  14.192  0.00  0.00     0.030 C 
ATOM     10  C2  MOL d          20.460  27.639  14.579  0.00  0.00     0.025 C 
ATOM     11  C7  MOL d          21.193  26.698  15.325  0.00  0.00     0.030 C 
ATOM     12  C6  MOL d          20.520  25.507  15.666  0.00  0.00     0.027 C 
BRANCH  10  13
ATOM     13  N1  MOL d          21.112  28.788  14.235  0.00  0.00    -0.399 N 
ATOM     14  H1  MOL d          20.625  29.513  13.689  0.00  0.00     0.156 HD
ATOM     15  H2  MOL d          22.091  28.930  14.522  0.00  0.00     0.156 HD
ENDBRANCH  10  13
ENDBRANCH   4   7
ENDBRANCH   3   4
BRANCH   3  16
ATOM     16  C12 MOL d          18.729  24.430  18.585  0.00  0.00     0.139 C 
BRANCH  16  17
ATOM     17  C13 MOL d          18.371  23.780  19.961  0.00  0.00    -0.004 C 
ATOM     18  C14 MOL d          18.281  22.269  19.772  0.00  0.00     0.011 C 
ATOM     19  C15 MOL d          19.551  24.117  20.882  0.00  0.00     0.011 C 
ENDBRANCH  16  17
ENDBRANCH   3  16
ENDBRANCH   2   3
ENDBRANCH   1   2
BRANCH   1  20
ATOM     20  O18 MOL d          14.134  24.793  18.303  0.00  0.00    -0.392 OA
ATOM     21  H19 MOL d          13.420  24.231  18.580  0.00  0.00     0.210 HD
ENDBRANCH   1  20
BRANCH   1  22
ATOM     22  C19 MOL d          14.888  22.857  16.985  0.00  0.00     0.121 C 
BRANCH  22  23
ATOM     23  N20 MOL d          14.005  21.943  17.673  0.00  0.00    -0.329 N 
ATOM     24  C21 MOL d          14.354  20.672  17.994  0.00  0.00     0.361 C 
ATOM     25  O22 MOL d          15.418  20.096  17.590  0.00  0.00    -0.238 OA
ATOM     26  H21 MOL d          13.092  22.263  17.925  0.00  0.00     0.165 HD
BRANCH  24  27
ATOM     27  O23 MOL d          13.384  20.072  18.853  0.00  0.00    -0.296 OA
BRANCH  27  28
ATOM     28  C24 MOL d          13.448  18.601  18.925  0.00  0.00     0.166 C 
ATOM     29  C25 MOL d          12.873  18.295  20.327  0.00  0.00     0.204 C 
ATOM     30  O26 MOL d          11.428  18.454  20.207  0.00  0.00    -0.358 OA
ATOM     31  C27 MOL d          11.124  18.100  18.858  0.00  0.00     0.266 C 
ATOM     32  O28 MOL d          10.165  18.975  18.229  0.00  0.00    -0.361 OA
ATOM     33  C31 MOL d          12.346  17.958  18.072  0.00  0.00     0.075 C 
ATOM     34  C29 MOL d          10.881  19.521  17.118  0.00  0.00     0.171 C 
ATOM     35  C30 MOL d          11.950  18.479  16.702  0.00  0.00     0.038 C 
ENDBRANCH  27  28
ENDBRANCH  24  27
ENDBRANCH  22  23
BRANCH  22  36
ATOM     36  C32 MOL d          14.081  23.335  15.719  0.00  0.00     0.066 C 
BRANCH  36  37
ATOM     37  C38 MOL d          13.687  22.165  14.797  0.00  0.00    -0.056 C 
ATOM     38  C33 MOL d          12.361  21.730  14.727  0.00  0.00     0.007 C 
ATOM     39  C34 MOL d          11.979  20.620  13.936  0.00  0.00     0.001 C 
ATOM     40  C35 MOL d          13.006  19.889  13.288  0.00  0.00     0.000 C 
ATOM     41  C36 MOL d          14.340  20.311  13.375  0.00  0.00     0.001 C 
ATOM     42  C37 MOL d          14.708  21.397  14.201  0.00  0.00     0.007 C 
ENDBRANCH  36  37
ENDBRANCH  22  36
ENDBRANCH   1  22
TORSDOF 14
