REMARK  7 active torsions:
REMARK  status: ('A' for Active; 'I' for Inactive)
REMARK    1  A    between atoms: C1_1  and  O1_7 
REMARK    2  A    between atoms: C2_2  and  N2_8 
REMARK    3  A    between atoms: C3_3  and  O3_9 
REMARK    4  A    between atoms: C4_4  and  O4_10 
REMARK    5  A    between atoms: C5_5  and  C6_6 
REMARK    6  A    between atoms: C6_6  and  O6_12 
REMARK    7  A    between atoms: O6_12  and  P_13 
ROOT
ATOM      1  C1  GLP d          28.601  16.111  -4.414  0.00  0.00     0.290 C 
ATOM      2  C2  GLP d          28.891  15.432  -3.091  0.00  0.00     0.269 C 
ATOM      3  C3  GLP d          28.469  16.331  -1.941  0.00  0.00     0.184 C 
ATOM      4  C4  GLP d          29.146  17.683  -2.019  0.00  0.00     0.180 C 
ATOM      5  C5  GLP d          28.852  18.308  -3.399  0.00  0.00     0.180 C 
ATOM      6  O5  GLP d          29.146  17.392  -4.435  0.00  0.00    -0.349 OA
ENDROOT
BRANCH   5   7
ATOM      7  C6  GLP d          29.779  19.521  -3.592  0.00  0.00     0.217 C 
BRANCH   7   8
ATOM      8  O6  GLP d          31.138  19.041  -3.744  0.00  0.00    -0.280 OA
BRANCH   8   9
ATOM      9  P   GLP d          32.401  19.889  -3.182  0.00  0.00     0.422 P 
ATOM     10  O3P GLP d          32.152  20.228  -1.726  0.00  0.00    -0.617 OA
ATOM     11  O2P GLP d          33.552  19.003  -3.386  0.00  0.00    -0.617 OA
ATOM     12  O1P GLP d          32.431  21.182  -3.906  0.00  0.00    -0.617 OA
ENDBRANCH   8   9
ENDBRANCH   7   8
ENDBRANCH   5   7
BRANCH   4  13
ATOM     13  O4  GLP d          28.690  18.599  -1.045  0.00  0.00    -0.390 OA
ATOM     14  H13 GLP d          28.856  18.247  -0.178  0.00  0.00     0.210 HD
ENDBRANCH   4  13
BRANCH   3  15
ATOM     15  O3  GLP d          28.873  15.709  -0.704  0.00  0.00    -0.391 OA
ATOM     16  H12 GLP d          28.615  16.261   0.025  0.00  0.00     0.210 HD
ENDBRANCH   3  15
BRANCH   1  17
ATOM     17  O1  GLP d          27.210  16.267  -4.555  0.00  0.00    -0.369 OA
ATOM     18  H8  GLP d          26.794  15.413  -4.546  0.00  0.00     0.212 HD
ENDBRANCH   1  17
BRANCH   2  19
ATOM     19  N2  GLP d          28.212  14.167  -3.035  0.00  0.00    -0.068 N 
ATOM     20  H9  GLP d          28.510  13.591  -3.807  0.00  0.00     0.275 HD
ATOM     21  H10 GLP d          27.217  14.317  -3.092  0.00  0.00     0.275 HD
ATOM     22  H11 GLP d          28.433  13.705  -2.167  0.00  0.00     0.275 HD
ENDBRANCH   2  19
TORSDOF 7
