REMARK  4 active torsions:
REMARK  status: ('A' for Active; 'I' for Inactive)
REMARK    1  A    between atoms: SBD_2  and  CAT_5 
REMARK    2  A    between atoms: CAS_7  and  SBC_8 
REMARK    3  A    between atoms: CAV_22  and  OBF_23 
REMARK    4  A    between atoms: CAU_26  and  SBE_27 
ROOT
ATOM      1  CAT MOL d           4.945  20.260  55.162  0.00  0.00     0.093 A 
ATOM      2  CAM MOL d           3.758  19.971  54.420  0.00  0.00     0.054 A 
ATOM      3  CAS MOL d           2.793  18.963  54.764  0.00  0.00     0.093 A 
ATOM      4  CAW MOL d           3.043  18.218  55.929  0.00  0.00     0.000 A 
ATOM      5  CAO MOL d           2.178  17.188  56.347  0.00  0.00     0.015 A 
ATOM      6  CAP MOL d           2.407  16.433  57.495  0.00  0.00     0.015 A 
ATOM      7  CAX MOL d           5.160  19.486  56.352  0.00  0.00     0.000 A 
ATOM      8  CBA MOL d           4.231  18.457  56.719  0.00  0.00    -0.000 A 
ATOM      9  CBB MOL d           4.450  17.660  57.888  0.00  0.00     0.001 A 
ATOM     10  CAY MOL d           3.558  16.658  58.294  0.00  0.00     0.000 A 
ATOM     11  CAQ MOL d           6.323  19.663  57.148  0.00  0.00     0.015 A 
ATOM     12  CAR MOL d           6.513  18.895  58.279  0.00  0.00     0.016 A 
ATOM     13  CAZ MOL d           5.591  17.911  58.659  0.00  0.00     0.009 A 
ATOM     14  CAV MOL d           5.860  17.170  59.801  0.00  0.00     0.081 A 
ATOM     15  CAN MOL d           4.971  16.158  60.216  0.00  0.00     0.064 A 
ATOM     16  CAU MOL d           3.779  15.910  59.495  0.00  0.00     0.094 A 
ENDROOT
BRANCH   1  17
ATOM     17  SBD MOL d           5.920  21.459  54.625  0.00  0.00     0.138 S 
ATOM     18  OAJ MOL d           5.769  22.620  55.528  0.00  0.00    -0.591 OA
ATOM     19  OAC MOL d           7.307  20.970  54.427  0.00  0.00    -0.591 OA
ATOM     20  OAD MOL d           5.489  22.023  53.317  0.00  0.00    -0.591 OA
ENDBRANCH   1  17
BRANCH   3  21
ATOM     21  SBC MOL d           1.424  18.714  53.805  0.00  0.00     0.138 S 
ATOM     22  OAA MOL d           1.452  19.736  52.778  0.00  0.00    -0.591 OA
ATOM     23  OAB MOL d           1.440  17.352  53.334  0.00  0.00    -0.591 OA
ATOM     24  OAI MOL d           0.233  18.916  54.639  0.00  0.00    -0.591 OA
ENDBRANCH   3  21
BRANCH  16  25
ATOM     25  SBE MOL d           2.778  14.717  60.043  0.00  0.00     0.138 S 
ATOM     26  OAK MOL d           1.381  15.064  60.286  0.00  0.00    -0.591 OA
ATOM     27  OAE MOL d           2.804  13.609  59.019  0.00  0.00    -0.591 OA
ATOM     28  OAF MOL d           3.370  14.095  61.237  0.00  0.00    -0.591 OA
ENDBRANCH  16  25
BRANCH  14  29
ATOM     29  OBF MOL d           7.031  17.496  60.485  0.00  0.00    -0.355 OA
ATOM     30  CAG MOL d           7.711  16.532  61.302  0.00  0.00     0.210 C 
ENDBRANCH  14  29
TORSDOF 4
