REMARK  6 active torsions:
REMARK  status: ('A' for Active; 'I' for Inactive)
REMARK    1  A    between atoms: C2_2  and  O2_3 
REMARK    2  A    between atoms: C3_4  and  O3_6 
REMARK    3  A    between atoms: C4_7  and  O4_9 
REMARK    4  A    between atoms: C5_10  and  C6_11 
REMARK    5  A    between atoms: C6_11  and  O6_12 
REMARK    6  A    between atoms: C7_14  and  C8_15 
ROOT
ATOM      1  C1  GI3 d          34.138  24.157  38.718  0.00  0.00     0.139 A 
ATOM      2  C2  GI3 d          35.025  23.191  38.022  0.00  0.00     0.219 C 
ATOM      3  C3  GI3 d          35.317  23.716  36.610  0.00  0.00     0.185 C 
ATOM      4  C80 GI3 d          32.954  25.943  39.167  0.00  0.00     0.132 A 
ATOM      5  C4  GI3 d          34.131  24.611  36.108  0.00  0.00     0.175 C 
ATOM      6  N10 GI3 d          33.746  25.355  38.258  0.00  0.00    -0.331 N 
ATOM      7  C5  GI3 d          34.114  25.884  36.938  0.00  0.00     0.146 C 
ATOM      8  N1  GI3 d          33.597  23.981  39.940  0.00  0.00    -0.224 NA
ATOM      9  C7  GI3 d          32.871  25.076  40.238  0.00  0.00     0.150 A 
ENDROOT
BRANCH   7  10
ATOM     10  C6  GI3 d          33.086  26.909  36.498  0.00  0.00     0.192 C 
BRANCH  10  11
ATOM     11  O6  GI3 d          31.751  26.424  36.659  0.00  0.00    -0.399 OA
ATOM     12  H11 GI3 d          31.598  26.220  37.574  0.00  0.00     0.209 HD
ENDBRANCH  10  11
ENDBRANCH   7  10
BRANCH   5  13
ATOM     13  O4  GI3 d          34.064  24.946  34.706  0.00  0.00    -0.391 OA
ATOM     14  H7  GI3 d          33.300  25.488  34.547  0.00  0.00     0.210 HD
ENDBRANCH   5  13
BRANCH   3  15
ATOM     15  O3  GI3 d          35.644  22.579  35.816  0.00  0.00    -0.390 OA
ATOM     16  H5  GI3 d          35.834  22.858  34.928  0.00  0.00     0.210 HD
ENDBRANCH   3  15
BRANCH   2  17
ATOM     17  O2  GI3 d          36.228  23.044  38.804  0.00  0.00    -0.385 OA
ATOM     18  H2  GI3 d          36.810  22.428  38.374  0.00  0.00     0.210 HD
ENDBRANCH   2  17
BRANCH   9  19
ATOM     19  C8  GI3 d          32.139  25.301  41.494  0.00  0.00     0.230 C 
ATOM     20  O8  GI3 d          31.139  25.992  41.504  0.00  0.00    -0.643 OA
ATOM     21  O9  GI3 d          32.627  24.771  42.596  0.00  0.00    -0.643 OA
ENDBRANCH   9  19
TORSDOF 6
