REMARK  5 active torsions:
REMARK  status: ('A' for Active; 'I' for Inactive)
REMARK    1  A    between atoms: C6_6  and  C7_7 
REMARK    2  A    between atoms: C8_8  and  C9_9 
REMARK    3  A    between atoms: C10_10  and  C11_11 
REMARK    4  A    between atoms: C12_12  and  C13_13 
REMARK    5  A    between atoms: C14_14  and  C15_15 
ROOT
ATOM      1  C7  REA d          24.919  31.045   7.334  0.00  0.00     0.009 C 
ATOM      2  C8  REA d          25.046  29.710   7.573  0.00  0.00     0.007 C 
ENDROOT
BRANCH   2   3
ATOM      3  C9  REA d          26.080  29.094   8.397  0.00  0.00    -0.062 C 
ATOM      4  C10 REA d          26.066  27.725   8.531  0.00  0.00     0.007 C 
ATOM      5  C19 REA d          27.157  29.991   9.084  0.00  0.00     0.048 C 
BRANCH   4   6
ATOM      6  C11 REA d          27.051  27.018   9.329  0.00  0.00     0.001 C 
ATOM      7  C12 REA d          27.070  25.694   9.440  0.00  0.00     0.007 C 
BRANCH   7   8
ATOM      8  C13 REA d          28.057  24.977  10.242  0.00  0.00    -0.056 C 
ATOM      9  C14 REA d          27.951  23.626  10.224  0.00  0.00     0.091 C 
ATOM     10  C20 REA d          29.159  25.776  11.043  0.00  0.00     0.048 C 
BRANCH   9  11
ATOM     11  C15 REA d          28.705  22.564  10.870  0.00  0.00     0.199 C 
ATOM     12  O1  REA d          28.377  21.424  10.626  0.00  0.00    -0.644 OA
ATOM     13  O2  REA d          29.641  22.779  11.628  0.00  0.00    -0.644 OA
ENDBRANCH   9  11
ENDBRANCH   7   8
ENDBRANCH   4   6
ENDBRANCH   2   3
BRANCH   1  14
ATOM     14  C6  REA d          23.862  31.835   6.638  0.00  0.00    -0.048 C 
ATOM     15  C1  REA d          22.676  32.386   7.585  0.00  0.00    -0.020 C 
ATOM     16  C2  REA d          21.906  33.574   6.875  0.00  0.00     0.014 C 
ATOM     17  C16 REA d          21.650  31.254   7.888  0.00  0.00     0.020 C 
ATOM     18  C17 REA d          23.235  32.990   8.910  0.00  0.00     0.020 C 
ATOM     19  C3  REA d          21.637  33.455   5.374  0.00  0.00     0.005 C 
ATOM     20  C4  REA d          22.790  32.926   4.506  0.00  0.00     0.034 C 
ATOM     21  C5  REA d          23.891  32.096   5.255  0.00  0.00    -0.077 C 
ATOM     22  C18 REA d          24.948  31.651   4.234  0.00  0.00     0.044 C 
ENDBRANCH   1  14
TORSDOF 5
