REMARK  18 active torsions:
REMARK  status: ('A' for Active; 'I' for Inactive)
REMARK    1  A    between atoms: C1_1  and  C23_23 
REMARK    2  A    between atoms: C1_1  and  C2_2 
REMARK    3  A    between atoms: C2_2  and  C18_18 
REMARK    4  A    between atoms: C2_2  and  C3_3 
REMARK    5  A    between atoms: C13_13  and  C5_5 
REMARK    6  A    between atoms: C18_18  and  C7_7 
REMARK    7  A    between atoms: C7_7  and  C16_16 
REMARK    8  A    between atoms: C7_7  and  C8_8 
REMARK    9  A    between atoms: C8_8  and  C9_9 
REMARK   10  A    between atoms: C9_9  and  C10_10 
REMARK       I    between atoms: C16_16  and  N18_45 
REMARK   11  A    between atoms: N18_45  and  C19_19 
REMARK   12  A    between atoms: C19_19  and  C27_27 
REMARK   13  A    between atoms: C19_19  and  C20_20 
REMARK   14  A    between atoms: C20_20  and  C21_21 
REMARK   15  A    between atoms: C23_23  and  C24_24 
REMARK   16  A    between atoms: C24_24  and  C25_25 
REMARK   17  A    between atoms: C25_25  and  N1_44 
REMARK       I    between atoms: C27_27  and  N29_46 
REMARK   18  A    between atoms: N29_46  and  C30_30 
ROOT
ATOM      1  C7  L04 d          35.150  35.809  24.366  0.00  0.00     0.079 C 
ENDROOT
BRANCH   1   2
ATOM      2  C18 L04 d          33.825  35.266  23.832  0.00  0.00     0.029 C 
BRANCH   2   3
ATOM      3  C2  L04 d          32.632  36.223  23.870  0.00  0.00     0.087 C 
BRANCH   3   4
ATOM      4  C1  L04 d          32.915  37.574  23.197  0.00  0.00     0.015 C 
BRANCH   4   5
ATOM      5  C23 L04 d          31.701  38.480  23.078  0.00  0.00     0.002 C 
BRANCH   5   6
ATOM      6  C24 L04 d          32.025  39.735  22.279  0.00  0.00     0.020 C 
BRANCH   6   7
ATOM      7  C25 L04 d          30.923  40.778  22.396  0.00  0.00     0.126 C 
BRANCH   7   8
ATOM      8  N1  L04 d          29.623  40.298  21.930  0.00  0.00    -0.344 N 
ATOM      9  C28 L04 d          29.130  40.209  20.550  0.00  0.00     0.165 A 
ATOM     10  C36 L04 d          27.758  39.565  20.740  0.00  0.00    -0.025 A 
ATOM     11  C29 L04 d          27.523  39.383  22.127  0.00  0.00     0.040 A 
ATOM     12  C38 L04 d          26.798  39.140  19.813  0.00  0.00     0.010 A 
ATOM     13  C26 L04 d          28.707  39.881  22.838  0.00  0.00     0.254 A 
ATOM     14  C37 L04 d          26.333  38.780  22.559  0.00  0.00     0.017 A 
ATOM     15  O1  L04 d          28.862  39.881  24.062  0.00  0.00    -0.267 OA
ATOM     16  C40 L04 d          25.399  38.365  21.622  0.00  0.00     0.001 A 
ATOM     17  C39 L04 d          25.626  38.543  20.268  0.00  0.00     0.001 A 
ENDBRANCH   7   8
ENDBRANCH   6   7
ENDBRANCH   5   6
ENDBRANCH   4   5
ENDBRANCH   3   4
BRANCH   3  18
ATOM     18  C3  L04 d          32.146  36.393  25.314  0.00  0.00     0.177 C 
ATOM     19  O5  L04 d          32.625  37.237  26.115  0.00  0.00    -0.648 OA
ATOM     20  O4  L04 d          31.264  35.624  25.705  0.00  0.00    -0.648 OA
ENDBRANCH   3  18
ENDBRANCH   2   3
ENDBRANCH   1   2
BRANCH   1  21
ATOM     21  C16 L04 d          36.040  36.268  23.220  0.00  0.00     0.222 C 
ATOM     22  O17 L04 d          35.861  35.853  22.072  0.00  0.00    -0.273 OA
ATOM     23  N18 L04 d          37.002  37.127  23.541  0.00  0.00    -0.347 N 
ATOM     24  H46 L04 d          37.081  37.444  24.486  0.00  0.00     0.163 HD
BRANCH  23  25
ATOM     25  C19 L04 d          37.942  37.614  22.542  0.00  0.00     0.177 C 
BRANCH  25  26
ATOM     26  C27 L04 d          39.215  36.785  22.671  0.00  0.00     0.245 C 
ATOM     27  O28 L04 d          39.724  36.597  23.779  0.00  0.00    -0.271 OA
ATOM     28  N29 L04 d          39.672  36.240  21.543  0.00  0.00    -0.325 N 
ATOM     29  H47 L04 d          39.130  36.421  20.722  0.00  0.00     0.169 HD
BRANCH  28  30
ATOM     30  C30 L04 d          40.796  35.458  21.360  0.00  0.00     0.034 A 
ATOM     31  C35 L04 d          41.642  35.064  22.396  0.00  0.00     0.029 A 
ATOM     32  C34 L04 d          42.766  34.282  22.142  0.00  0.00     0.002 A 
ATOM     33  C33 L04 d          43.054  33.883  20.837  0.00  0.00     0.000 A 
ATOM     34  C32 L04 d          42.218  34.271  19.796  0.00  0.00     0.002 A 
ATOM     35  C31 L04 d          41.097  35.052  20.061  0.00  0.00     0.029 A 
ENDBRANCH  28  30
ENDBRANCH  25  26
BRANCH  25  36
ATOM     36  C20 L04 d          38.262  39.093  22.767  0.00  0.00     0.038 C 
BRANCH  36  37
ATOM     37  C21 L04 d          37.108  40.099  22.744  0.00  0.00    -0.020 C 
ATOM     38  C4  L04 d          37.691  41.496  22.865  0.00  0.00     0.009 C 
ATOM     39  C22 L04 d          36.292  39.963  21.459  0.00  0.00     0.009 C 
ENDBRANCH  36  37
ENDBRANCH  25  36
ENDBRANCH  23  25
ENDBRANCH   1  21
BRANCH   1  40
ATOM     40  C8  L04 d          35.902  34.740  25.164  0.00  0.00     0.019 C 
BRANCH  40  41
ATOM     41  C9  L04 d          35.231  34.354  26.455  0.00  0.00     0.039 C 
BRANCH  41  42
ATOM     42  C10 L04 d          36.128  33.697  27.458  0.00  0.00    -0.058 A 
ATOM     43  C15 L04 d          36.892  34.463  28.331  0.00  0.00     0.008 A 
ATOM     44  C14 L04 d          37.699  33.860  29.285  0.00  0.00     0.013 A 
ATOM     45  C13 L04 d          37.758  32.475  29.380  0.00  0.00    -0.026 A 
ATOM     46  C12 L04 d          36.995  31.711  28.502  0.00  0.00     0.013 A 
ATOM     47  C11 L04 d          36.191  32.314  27.553  0.00  0.00     0.008 A 
BRANCH  45  48
ATOM     48  C5  L04 d          38.607  31.819  30.387  0.00  0.00    -0.026 A 
ATOM     49  C43 L04 d          39.507  30.828  30.012  0.00  0.00     0.015 A 
ATOM     50  C42 L04 d          40.303  30.201  30.961  0.00  0.00     0.043 A 
ATOM     51  C41 L04 d          40.215  30.550  32.301  0.00  0.00     0.116 A 
ATOM     52  C17 L04 d          39.330  31.550  32.679  0.00  0.00     0.043 A 
ATOM     53  F1  L04 d          40.982  29.922  33.216  0.00  0.00    -0.206 F 
ATOM     54  C6  L04 d          38.527  32.174  31.730  0.00  0.00     0.015 A 
ENDBRANCH  45  48
ENDBRANCH  41  42
ENDBRANCH  40  41
ENDBRANCH   1  40
TORSDOF 18
