1zfk_ligand

Created by X-TOOL on Fri Sep 26 17:34:31 2014
 39 40  0  0  0  0  0  0  0  0999 V2000
   15.3260    2.6930   16.8080  S 0  0  0  1  0  4
   15.8140    1.4320   16.1690  N 0  0  0  3  0  3
   13.8840    2.7660   16.6740  O 0  0  0  1  0  1
   15.8670    2.8480   18.1570  O 0  0  0  1  0  1
   16.0050    4.0270   15.8870  C 0  0  0  1  0  3
   15.0780    5.0080   15.4720  C 0  0  0  2  0  3
   15.4930    6.1140   14.7390  C 0  0  0  2  0  3
   16.8410    6.2730   14.3990  C 0  0  0  1  0  3
   17.1920    7.4120   13.6450  N 0  0  0  2  0  3
   18.4190    7.7630   13.2110  C 0  0  0  1  0  3
   19.4390    7.1170   13.4110  O 0  0  0  1  0  1
   18.4470    8.9120   12.5130  N 0  0  0  2  0  3
   19.5890    9.4400   11.6970  S 0  0  0  1  0  4
   20.5580    8.4430   11.3160  O 0  0  0  1  0  1
   19.0170   10.2960   10.6640  O 0  0  0  1  0  1
   20.3370   10.4740   12.9200  C 0  0  0  1  0  3
   21.7280   10.4020   13.0850  C 0  0  0  2  0  3
   22.3430   11.2100   14.0450  C 0  0  0  2  0  3
   21.5680   12.0710   14.8240  C 0  0  0  1  0  3
   22.2280   12.9570   15.8690  C 0  0  0  4  0  4
   20.1890   12.1340   14.6520  C 0  0  0  2  0  3
   19.5730   11.3310   13.6950  C 0  0  0  2  0  3
   17.7530    5.2980   14.8040  C 0  0  0  2  0  3
   17.3440    4.1790   15.5490  C 0  0  0  2  0  3
   15.5231    1.1963   15.2417  H 0  0  0  1  0  1
   16.4312    0.8245   16.6690  H 0  0  0  1  0  1
   14.0305    4.8974   15.7280  H 0  0  0  1  0  1
   14.7679    6.8577   14.4290  H 0  0  0  1  0  1
   16.4441    8.0308   13.4045  H 0  0  0  1  0  1
   17.6197    9.4731   12.5410  H 0  0  0  1  0  1
   22.3187    9.7279   12.4753  H 0  0  0  1  0  1
   23.4172   11.1684   14.1842  H 0  0  0  1  0  1
   21.4603   13.5595   16.3765  H 0  0  0  1  0  1
   22.9530   13.6238   15.3794  H 0  0  0  1  0  1
   22.7480   12.3286   16.6070  H 0  0  0  1  0  1
   19.5955   12.8062   15.2611  H 0  0  0  1  0  1
   18.4988   11.3766   13.5571  H 0  0  0  1  0  1
   18.7984    5.4059   14.5385  H 0  0  0  1  0  1
   18.0708    3.4368   15.8590  H 0  0  0  1  0  1
  1  2  1  0  0  2
  1  3  2  0  0  2
  1  4  2  0  0  2
  1  5  1  0  0  2
  5  6  4  0  0  1
  5 24  4  0  0  1
  6  7  4  0  0  1
  7  8  4  0  0  1
  8  9  1  0  0  2
  8 23  4  0  0  1
  9 10  1  0  0  2
 10 11  2  0  0  2
 10 12  1  0  0  2
 12 13  1  0  0  2
 13 14  2  0  0  2
 13 15  2  0  0  2
 13 16  1  0  0  2
 16 17  4  0  0  1
 16 22  4  0  0  1
 17 18  4  0  0  1
 18 19  4  0  0  1
 19 20  1  0  0  2
 19 21  4  0  0  1
 21 22  4  0  0  1
 23 24  4  0  0  1
  2 25  1  0  0  2
  2 26  1  0  0  2
  6 27  1  0  0  2
  7 28  1  0  0  2
  9 29  1  0  0  2
 12 30  1  0  0  2
 17 31  1  0  0  2
 18 32  1  0  0  2
 20 33  1  0  0  2
 20 34  1  0  0  2
 20 35  1  0  0  2
 21 36  1  0  0  2
 22 37  1  0  0  2
 23 38  1  0  0  2
 24 39  1  0  0  2
M  END
> <MOLECULAR_FORMULA>
C14H15N3O5S2

> <MOLECULAR_WEIGHT>
369.3

> <NUM_HB_ATOMS>
8  

> <NUM_ROTOR>
2  

> <XLOGP2>
1.63 

$$$$
