REMARK  6 active torsions:
REMARK  status: ('A' for Active; 'I' for Inactive)
REMARK    1  A    between atoms: C2_2  and  C19_19 
REMARK    2  A    between atoms: C8_8  and  N13_13 
REMARK    3  A    between atoms: C9_9  and  C10_10 
REMARK       I    between atoms: N13_13  and  C14_14 
REMARK    4  A    between atoms: C14_14  and  C15_15 
REMARK    5  A    between atoms: C19_19  and  O20_20 
REMARK    6  A    between atoms: O20_20  and  C21_21 
ROOT
ATOM      1  O1  DBD d          13.892  44.198  17.349  0.00  0.00    -0.378 OA
ATOM      2  C2  DBD d          13.816  45.044  18.486  0.00  0.00     0.186 C 
ATOM      3  C3  DBD d          12.387  45.372  18.768  0.00  0.00     0.023 A 
ATOM      4  C4  DBD d          11.353  45.039  17.981  0.00  0.00    -0.021 A 
ATOM      5  C5  DBD d          11.543  44.211  16.758  0.00  0.00     0.067 C 
ATOM      6  C6  DBD d          12.784  43.377  17.076  0.00  0.00     0.173 C 
ATOM      7  S7  DBD d          11.937  46.075  20.258  0.00  0.00    -0.072 SA
ATOM      8  C8  DBD d          10.288  45.912  19.771  0.00  0.00     0.095 A 
ATOM      9  C9  DBD d          10.047  45.402  18.557  0.00  0.00     0.082 A 
ENDROOT
BRANCH   2  10
ATOM     10  C19 DBD d          14.638  46.212  18.060  0.00  0.00     0.214 C 
BRANCH  10  11
ATOM     11  O20 DBD d          15.877  45.679  17.667  0.00  0.00    -0.330 OA
BRANCH  11  12
ATOM     12  C21 DBD d          16.713  45.231  18.698  0.00  0.00     0.188 A 
ATOM     13  C22 DBD d          17.949  44.543  18.423  0.00  0.00     0.041 A 
ATOM     14  C23 DBD d          18.635  44.315  19.609  0.00  0.00     0.096 A 
ATOM     15  C26 DBD d          18.462  44.268  17.177  0.00  0.00     0.017 C 
ATOM     16  S24 DBD d          17.780  44.784  21.023  0.00  0.00     0.286 S 
ATOM     17  C29 DBD d          19.871  43.620  19.501  0.00  0.00     0.026 C 
ATOM     18  N25 DBD d          16.601  45.291  20.050  0.00  0.00    -0.134 NA
ATOM     19  O30 DBD d          18.420  45.879  21.625  0.00  0.00    -0.198 OA
ATOM     20  O31 DBD d          17.376  43.603  21.782  0.00  0.00    -0.198 OA
ATOM     21  C28 DBD d          20.396  43.313  18.253  0.00  0.00     0.002 C 
ATOM     22  C27 DBD d          19.670  43.576  17.086  0.00  0.00     0.001 C 
ENDBRANCH  11  12
ENDBRANCH  10  11
ENDBRANCH   2  10
BRANCH   9  23
ATOM     23  C10 DBD d           8.663  45.297  17.953  0.00  0.00     0.212 C 
ATOM     24  O11 DBD d           8.537  45.250  16.765  0.00  0.00    -0.644 OA
ATOM     25  O12 DBD d           7.552  45.243  18.690  0.00  0.00    -0.644 OA
ENDBRANCH   9  23
BRANCH   8  26
ATOM     26  N13 DBD d           9.206  46.366  20.611  0.00  0.00    -0.311 N 
ATOM     27  C14 DBD d           9.318  47.070  21.737  0.00  0.00     0.323 C 
ATOM     28  O18 DBD d          10.375  47.351  22.323  0.00  0.00    -0.260 OA
ATOM     29  H6  DBD d           8.280  46.129  20.319  0.00  0.00     0.170 HD
BRANCH  27  30
ATOM     30  C15 DBD d           7.975  47.489  22.364  0.00  0.00     0.270 C 
ATOM     31  O16 DBD d           7.777  48.528  22.914  0.00  0.00    -0.640 OA
ATOM     32  O17 DBD d           7.008  46.559  22.413  0.00  0.00    -0.640 OA
ENDBRANCH  27  30
ENDBRANCH   8  26
TORSDOF 6
