REMARK  15 active torsions:
REMARK  status: ('A' for Active; 'I' for Inactive)
REMARK    1  A    between atoms: C22_18  and  C23_1 
REMARK    2  A    between atoms: C32_13  and  C33_7 
REMARK    3  A    between atoms: N24_41  and  C32_13 
REMARK    4  A    between atoms: C4_15  and  C1_38 
REMARK    5  A    between atoms: N24_41  and  C4_15 
REMARK       I    between atoms: N1_17  and  C30_32 
REMARK    6  A    between atoms: C41_35  and  N1_17 
REMARK    7  A    between atoms: C1_38  and  C22_18 
REMARK    8  A    between atoms: C1_38  and  O6_19 
REMARK    9  A    between atoms: C30_32  and  O8_20 
REMARK       I    between atoms: C10_21  and  N12_23 
REMARK   10  A    between atoms: C1_38  and  C10_21 
REMARK   11  A    between atoms: N12_23  and  C51_24 
REMARK   12  A    between atoms: C59_30  and  O60_31 
REMARK   13  A    between atoms: C41_35  and  C42_36 
REMARK   14  A    between atoms: C45_40  and  C41_35 
REMARK       I    between atoms: N47_43  and  C45_40 
REMARK   15  A    between atoms: N24_41  and  N47_43 
ROOT
ATOM      1  C4  MOL d          12.690  22.649   4.639  0.00  0.00     0.310 C 
ENDROOT
BRANCH   1   2
ATOM      2  C1  MOL d          13.990  22.640   5.481  0.00  0.00     0.168 C 
BRANCH   2   3
ATOM      3  C22 MOL d          13.867  22.952   7.024  0.00  0.00     0.088 C 
BRANCH   3   4
ATOM      4  C23 MOL d          14.799  22.114   7.909  0.00  0.00    -0.055 A 
ATOM      5  C24 MOL d          14.284  20.972   8.623  0.00  0.00     0.007 A 
ATOM      6  C25 MOL d          15.158  20.161   9.424  0.00  0.00     0.001 A 
ATOM      7  C26 MOL d          16.557  20.490   9.516  0.00  0.00     0.000 A 
ATOM      8  C27 MOL d          17.077  21.627   8.810  0.00  0.00     0.001 A 
ATOM      9  C28 MOL d          16.208  22.441   8.008  0.00  0.00     0.007 A 
ENDBRANCH   3   4
ENDBRANCH   2   3
BRANCH   2  10
ATOM     10  O6  MOL d          14.936  23.526   4.914  0.00  0.00    -0.378 OA
ATOM     11  H20 MOL d          15.018  23.347   3.985  0.00  0.00     0.211 HD
ENDBRANCH   2  10
BRANCH   2  12
ATOM     12  C10 MOL d          14.426  21.156   5.209  0.00  0.00     0.255 C 
ATOM     13  O11 MOL d          13.545  20.282   5.137  0.00  0.00    -0.270 OA
ATOM     14  N12 MOL d          15.720  20.804   5.114  0.00  0.00    -0.347 N 
ATOM     15  H21 MOL d          16.422  21.514   5.158  0.00  0.00     0.163 HD
BRANCH  14  16
ATOM     16  C51 MOL d          16.128  19.405   4.948  0.00  0.00     0.147 C 
ATOM     17  C52 MOL d          16.105  18.857   3.546  0.00  0.00    -0.027 A 
ATOM     18  C57 MOL d          17.128  17.901   3.423  0.00  0.00    -0.047 A 
ATOM     19  C53 MOL d          15.243  19.178   2.447  0.00  0.00     0.010 A 
ATOM     20  C56 MOL d          17.353  17.211   2.198  0.00  0.00     0.008 A 
ATOM     21  C58 MOL d          17.882  17.764   4.734  0.00  0.00     0.073 C 
ATOM     22  C55 MOL d          16.502  17.521   1.081  0.00  0.00     0.001 A 
ATOM     23  C54 MOL d          15.452  18.497   1.201  0.00  0.00     0.001 A 
ATOM     24  C59 MOL d          17.564  19.104   5.434  0.00  0.00     0.149 C 
BRANCH  24  25
ATOM     25  O60 MOL d          18.493  20.060   4.925  0.00  0.00    -0.393 OA
ATOM     26  H27 MOL d          19.365  19.851   5.239  0.00  0.00     0.210 HD
ENDBRANCH  24  25
ENDBRANCH  14  16
ENDBRANCH   2  12
ENDBRANCH   1   2
BRANCH   1  27
ATOM     27  N24 MOL d          11.775  23.709   4.438  0.00  0.00     0.018 N 
ATOM     28  H38 MOL d          12.227  24.317   3.772  0.00  0.00     0.309 HD
BRANCH  27  29
ATOM     29  C32 MOL d          10.749  22.935   3.671  0.00  0.00     0.301 C 
BRANCH  29  30
ATOM     30  C33 MOL d           9.827  23.791   2.881  0.00  0.00    -0.030 A 
ATOM     31  C34 MOL d          10.345  24.512   1.769  0.00  0.00     0.010 A 
ATOM     32  C35 MOL d           9.482  25.357   1.020  0.00  0.00     0.019 A 
ATOM     33  C36 MOL d           8.105  25.473   1.393  0.00  0.00     0.011 A 
ATOM     34  C37 MOL d           7.587  24.740   2.503  0.00  0.00     0.019 A 
ATOM     35 BR   MOL d           6.972  26.617   0.419  0.00  0.00    -0.051 Br
ATOM     36  C38 MOL d           8.448  23.898   3.248  0.00  0.00     0.010 A 
ENDBRANCH  29  30
ENDBRANCH  27  29
BRANCH  27  37
ATOM     37  N47 MOL d          11.360  24.631   5.395  0.00  0.00    -0.184 N 
ATOM     38  C45 MOL d          10.379  24.488   6.321  0.00  0.00     0.265 C 
ATOM     39  O46 MOL d          10.015  23.391   6.738  0.00  0.00    -0.269 OA
ATOM     40  H39 MOL d          11.844  25.506   5.401  0.00  0.00     0.197 HD
BRANCH  38  41
ATOM     41  C41 MOL d           9.718  25.797   6.850  0.00  0.00     0.188 C 
BRANCH  41  42
ATOM     42  N1  MOL d           8.298  25.779   6.446  0.00  0.00    -0.323 N 
ATOM     43  C30 MOL d           7.658  26.668   5.665  0.00  0.00     0.360 C 
ATOM     44  O3  MOL d           8.266  27.663   5.184  0.00  0.00    -0.239 OA
ATOM     45  H17 MOL d           7.749  25.019   6.793  0.00  0.00     0.165 HD
BRANCH  43  46
ATOM     46  O8  MOL d           6.344  26.427   5.432  0.00  0.00    -0.309 OA
ATOM     47  C7  MOL d           5.546  27.289   4.617  0.00  0.00     0.215 C 
ENDBRANCH  43  46
ENDBRANCH  41  42
BRANCH  41  48
ATOM     48  C42 MOL d           9.800  26.062   8.398  0.00  0.00    -0.022 C 
ATOM     49  C43 MOL d           9.151  27.414   8.814  0.00  0.00     0.017 C 
ATOM     50  C44 MOL d          11.242  26.095   8.925  0.00  0.00     0.017 C 
ATOM     51  C86 MOL d           9.024  24.956   9.137  0.00  0.00     0.017 C 
ENDBRANCH  41  48
ENDBRANCH  38  41
ENDBRANCH  27  37
ENDBRANCH   1  27
TORSDOF 15
