REMARK  14 active torsions:
REMARK  status: ('A' for Active; 'I' for Inactive)
REMARK    1  A    between atoms: N1_1  and  C31_39 
REMARK    2  A    between atoms: C2_3  and  C3_4 
REMARK       I    between atoms: C3_4  and  N2_6 
REMARK    3  A    between atoms: N2_6  and  C4_7 
REMARK    4  A    between atoms: N3_11  and  C10_14 
REMARK    5  A    between atoms: C10_14  and  C11_15 
REMARK    6  A    between atoms: C11_15  and  O2_16 
REMARK    7  A    between atoms: C11_15  and  C12_17 
REMARK    8  A    between atoms: C12_17  and  C13_18 
REMARK    9  A    between atoms: C13_18  and  C14_19 
REMARK   10  A    between atoms: C13_18  and  C21_26 
REMARK   11  A    between atoms: C14_19  and  C15_20 
REMARK       I    between atoms: C21_26  and  N4_28 
REMARK   12  A    between atoms: N4_28  and  C22_29 
REMARK   13  A    between atoms: C23_30  and  O4_31 
REMARK   14  A    between atoms: C31_39  and  C32_40 
ROOT
ATOM      1  C11 MK1 d          20.613  29.912  15.506  0.00  0.00     0.145 C 
ENDROOT
BRANCH   1   2
ATOM      2  C10 MK1 d          20.455  31.121  16.403  0.00  0.00     0.267 C 
BRANCH   2   3
ATOM      3  N3  MK1 d          21.087  32.312  15.858  0.00  0.00    -0.053 N 
ATOM      4  C2  MK1 d          20.295  33.567  16.121  0.00  0.00     0.305 C 
ATOM      5  C1  MK1 d          21.091  34.725  15.575  0.00  0.00     0.278 C 
ATOM      6  N1  MK1 d          22.445  34.844  16.178  0.00  0.00    -0.063 N 
ATOM      7  C9  MK1 d          23.168  33.654  15.872  0.00  0.00     0.263 C 
ATOM      8  H1  MK1 d          22.375  34.963  17.177  0.00  0.00     0.280 HD
ATOM      9  C8  MK1 d          22.450  32.398  16.416  0.00  0.00     0.263 C 
ATOM     10  H15 MK1 d          21.158  32.202  14.858  0.00  0.00     0.281 HD
BRANCH   4  11
ATOM     11  C3  MK1 d          18.955  33.547  15.459  0.00  0.00     0.251 C 
ATOM     12  O1  MK1 d          18.822  33.175  14.284  0.00  0.00    -0.271 OA
ATOM     13  N2  MK1 d          17.976  33.996  16.211  0.00  0.00    -0.351 N 
ATOM     14  H5  MK1 d          18.197  34.293  17.140  0.00  0.00     0.163 HD
BRANCH  13  15
ATOM     15  C4  MK1 d          16.546  34.091  15.764  0.00  0.00     0.022 C 
ATOM     16  C5  MK1 d          15.804  34.679  16.965  0.00  0.00     0.037 C 
ATOM     17  C6  MK1 d          16.025  32.793  15.415  0.00  0.00     0.037 C 
ATOM     18  C7  MK1 d          16.475  35.041  14.625  0.00  0.00     0.037 C 
ENDBRANCH  13  15
ENDBRANCH   4  11
BRANCH   6  19
ATOM     19  C31 MK1 d          23.137  36.006  15.576  0.00  0.00     0.275 C 
BRANCH  19  20
ATOM     20  C32 MK1 d          22.542  37.342  15.996  0.00  0.00    -0.015 A 
ATOM     21  C33 MK1 d          22.443  37.686  17.348  0.00  0.00     0.125 A 
ATOM     22  N5  MK1 d          21.915  38.873  17.798  0.00  0.00    -0.273 NA
ATOM     23  C34 MK1 d          21.513  39.745  16.819  0.00  0.00     0.116 A 
ATOM     24  C35 MK1 d          21.611  39.484  15.454  0.00  0.00     0.020 A 
ATOM     25  C36 MK1 d          22.107  38.247  15.061  0.00  0.00     0.012 A 
ENDBRANCH  19  20
ENDBRANCH   6  19
ENDBRANCH   2   3
ENDBRANCH   1   2
BRANCH   1  26
ATOM     26  O2  MK1 d          20.603  28.712  16.284  0.00  0.00    -0.394 OA
ATOM     27  H23 MK1 d          20.703  27.962  15.709  0.00  0.00     0.210 HD
ENDBRANCH   1  26
BRANCH   1  28
ATOM     28  C12 MK1 d          19.478  29.804  14.482  0.00  0.00     0.047 C 
BRANCH  28  29
ATOM     29  C13 MK1 d          19.558  28.643  13.501  0.00  0.00     0.084 C 
BRANCH  29  30
ATOM     30  C14 MK1 d          18.262  28.526  12.670  0.00  0.00     0.052 C 
BRANCH  30  31
ATOM     31  C15 MK1 d          18.294  27.522  11.590  0.00  0.00    -0.057 A 
ATOM     32  C16 MK1 d          18.421  26.168  11.872  0.00  0.00     0.007 A 
ATOM     33  C17 MK1 d          18.453  25.237  10.845  0.00  0.00     0.001 A 
ATOM     34  C18 MK1 d          18.373  25.642   9.508  0.00  0.00     0.000 A 
ATOM     35  C19 MK1 d          18.245  27.006   9.244  0.00  0.00     0.001 A 
ATOM     36  C20 MK1 d          18.183  27.927  10.250  0.00  0.00     0.007 A 
ENDBRANCH  30  31
ENDBRANCH  29  30
BRANCH  29  37
ATOM     37  C21 MK1 d          20.716  28.770  12.514  0.00  0.00     0.222 C 
ATOM     38  O3  MK1 d          20.986  29.858  11.942  0.00  0.00    -0.273 OA
ATOM     39  N4  MK1 d          21.386  27.666  12.264  0.00  0.00    -0.350 N 
ATOM     40  H34 MK1 d          21.275  26.887  12.881  0.00  0.00     0.163 HD
BRANCH  39  41
ATOM     41  C22 MK1 d          22.274  27.534  11.135  0.00  0.00     0.147 C 
ATOM     42  C23 MK1 d          22.198  26.211  10.413  0.00  0.00     0.149 C 
ATOM     43  C24 MK1 d          23.539  26.109   9.684  0.00  0.00     0.073 C 
ATOM     44  C25 MK1 d          24.540  26.825  10.554  0.00  0.00    -0.047 A 
ATOM     45  C26 MK1 d          25.903  26.817  10.669  0.00  0.00     0.008 A 
ATOM     46  C30 MK1 d          23.759  27.709  11.462  0.00  0.00    -0.027 A 
ATOM     47  C27 MK1 d          26.531  27.594  11.600  0.00  0.00     0.001 A 
ATOM     48  C28 MK1 d          25.822  28.450  12.452  0.00  0.00     0.001 A 
ATOM     49  C29 MK1 d          24.440  28.481  12.362  0.00  0.00     0.010 A 
BRANCH  42  50
ATOM     50  O4  MK1 d          22.116  25.153  11.366  0.00  0.00    -0.393 OA
ATOM     51  H37 MK1 d          22.068  24.321  10.910  0.00  0.00     0.210 HD
ENDBRANCH  42  50
ENDBRANCH  39  41
ENDBRANCH  29  37
ENDBRANCH  28  29
ENDBRANCH   1  28
TORSDOF 14
