REMARK  8 active torsions:
REMARK  status: ('A' for Active; 'I' for Inactive)
REMARK    1  A    between atoms: C1_1  and  O1_2 
REMARK    2  A    between atoms: C1_1  and  C2_3 
REMARK    3  A    between atoms: C2_3  and  O2_4 
REMARK    4  A    between atoms: C2_3  and  C3_5 
REMARK    5  A    between atoms: C3_5  and  O3_6 
REMARK    6  A    between atoms: C3_5  and  C4_7 
REMARK    7  A    between atoms: C4_7  and  O4_8 
REMARK    8  A    between atoms: O4_8  and  P_9 
ROOT
ATOM      1  C3  E4P d           6.730   4.393   0.687  0.00  0.00     0.173 C 
ENDROOT
BRANCH   1   2
ATOM      2  C2  E4P d           7.364   3.711  -0.517  0.00  0.00     0.172 C 
BRANCH   2   3
ATOM      3  C1  E4P d           8.018   2.443  -0.077  0.00  0.00     0.198 C 
BRANCH   3   4
ATOM      4  O1  E4P d           9.193   2.596   0.710  0.00  0.00    -0.398 OA
ATOM      5  H3  E4P d           9.846   3.074   0.213  0.00  0.00     0.209 HD
ENDBRANCH   3   4
ENDBRANCH   2   3
BRANCH   2   6
ATOM      6  O2  E4P d           8.414   4.479  -1.064  0.00  0.00    -0.391 OA
ATOM      7  H5  E4P d           9.073   4.633  -0.397  0.00  0.00     0.210 HD
ENDBRANCH   2   6
ENDBRANCH   1   2
BRANCH   1   8
ATOM      8  O3  E4P d           5.620   3.623   1.118  0.00  0.00    -0.391 OA
ATOM      9  H7  E4P d           4.987   3.560   0.413  0.00  0.00     0.210 HD
ENDBRANCH   1   8
BRANCH   1  10
ATOM     10  C4  E4P d           6.226   5.794   0.330  0.00  0.00     0.217 C 
BRANCH  10  11
ATOM     11  O4  E4P d           5.288   5.722  -0.742  0.00  0.00    -0.280 OA
BRANCH  11  12
ATOM     12  P   E4P d           4.849   7.011  -1.415  0.00  0.00     0.422 P 
ATOM     13  O1P E4P d           4.319   7.947  -0.366  0.00  0.00    -0.617 OA
ATOM     14  O2P E4P d           6.017   7.646  -2.106  0.00  0.00    -0.617 OA
ATOM     15  O3P E4P d           3.750   6.670  -2.385  0.00  0.00    -0.617 OA
ENDBRANCH  11  12
ENDBRANCH  10  11
ENDBRANCH   1  10
TORSDOF 8
