REMARK  20 active torsions:
REMARK  status: ('A' for Active; 'I' for Inactive)
REMARK       I    between atoms: C1_1  and  N2_11 
REMARK    1  A    between atoms: C1_1  and  OA1_3 
REMARK    2  A    between atoms: OA1_3  and  CB1_4 
REMARK    3  A    between atoms: CB1_4  and  CG1_5 
REMARK    4  A    between atoms: N2_11  and  CA2_12 
REMARK    5  A    between atoms: CA2_12  and  C2_16 
REMARK    6  A    between atoms: CA2_12  and  CB2_13 
REMARK       I    between atoms: C2_16  and  N3_18 
REMARK    7  A    between atoms: N3_18  and  CA3_19 
REMARK    8  A    between atoms: CA3_19  and  P3_27 
REMARK    9  A    between atoms: CA3_19  and  CB3_20 
REMARK   10  A    between atoms: CB3_20  and  CG3_21 
REMARK   11  A    between atoms: P3_27  and  CA4_31 
REMARK   12  A    between atoms: CA4_31  and  N4_30 
REMARK       I    between atoms: N4_30  and  C5_44 
REMARK   13  A    between atoms: CA4_31  and  CB4_32 
REMARK   14  A    between atoms: CB4_32  and  CG4_33 
REMARK   15  A    between atoms: CA5_40  and  N5_39 
REMARK       I    between atoms: N5_39  and  C6_54 
REMARK   16  A    between atoms: C5_44  and  CA5_40 
REMARK   17  A    between atoms: CA5_40  and  CB5_41 
REMARK   18  A    between atoms: OA6_53  and  CB6_46 
REMARK   19  A    between atoms: CB6_46  and  CG6_47 
REMARK   20  A    between atoms: C6_54  and  OA6_53 
ROOT
ATOM      1  P3  PHP d         -10.106  17.544  27.607  0.00  0.00     0.153 P 
ATOM      2  O3  PHP d         -10.376  18.524  28.676  0.00  0.00    -0.665 OA
ATOM      3  O3' PHP d         -10.858  18.089  26.448  0.00  0.00    -0.665 OA
ENDROOT
BRANCH   1   4
ATOM      4  CA3 PHP d         -10.650  15.904  28.145  0.00  0.00     0.182 C 
BRANCH   4   5
ATOM      5  N3  PHP d         -10.672  16.066  29.599  0.00  0.00    -0.345 N 
ATOM      6  C2  PHP d          -9.945  15.355  30.459  0.00  0.00     0.241 C 
ATOM      7  O2  PHP d          -9.170  14.463  30.101  0.00  0.00    -0.271 OA
ATOM      8  H17 PHP d         -11.280  16.765  29.976  0.00  0.00     0.163 HD
BRANCH   6   9
ATOM      9  CA2 PHP d         -10.132  15.683  31.937  0.00  0.00     0.182 C 
BRANCH   9  10
ATOM     10  N2  PHP d         -10.632  14.411  32.371  0.00  0.00    -0.323 N 
ATOM     11  C1  PHP d         -11.806  14.281  32.973  0.00  0.00     0.361 C 
ATOM     12  O1  PHP d         -12.537  15.266  33.201  0.00  0.00    -0.238 OA
ATOM     13  H8  PHP d         -10.076  13.595  32.214  0.00  0.00     0.165 HD
BRANCH  11  14
ATOM     14  OA1 PHP d         -12.140  13.031  33.308  0.00  0.00    -0.299 OA
BRANCH  14  15
ATOM     15  CB1 PHP d         -13.545  12.679  33.344  0.00  0.00     0.219 C 
BRANCH  15  16
ATOM     16  CG1 PHP d         -13.690  11.178  33.235  0.00  0.00    -0.034 A 
ATOM     17  C7  PHP d         -14.632  10.543  34.016  0.00  0.00     0.009 A 
ATOM     18  C9  PHP d         -14.766   9.180  33.923  0.00  0.00     0.001 A 
ATOM     19  CZ1 PHP d         -13.967   8.455  33.061  0.00  0.00     0.000 A 
ATOM     20  C8  PHP d         -13.024   9.089  32.279  0.00  0.00     0.001 A 
ATOM     21  C6  PHP d         -12.883  10.457  32.367  0.00  0.00     0.009 A 
ENDBRANCH  15  16
ENDBRANCH  14  15
ENDBRANCH  11  14
ENDBRANCH   9  10
BRANCH   9  22
ATOM     22  CB2 PHP d          -8.819  16.007  32.687  0.00  0.00     0.009 C 
ATOM     23  C15 PHP d          -9.102  16.527  34.100  0.00  0.00     0.012 C 
ATOM     24  C14 PHP d          -8.143  17.184  32.058  0.00  0.00     0.012 C 
ENDBRANCH   9  22
ENDBRANCH   6   9
ENDBRANCH   4   5
BRANCH   4  25
ATOM     25  CB3 PHP d         -12.069  15.635  27.581  0.00  0.00     0.074 C 
BRANCH  25  26
ATOM     26  CG3 PHP d         -12.702  14.435  28.269  0.00  0.00    -0.056 A 
ATOM     27  C23 PHP d         -12.111  13.178  28.165  0.00  0.00     0.007 A 
ATOM     28  C25 PHP d         -12.626  12.110  28.871  0.00  0.00     0.001 A 
ATOM     29  CZ3 PHP d         -13.723  12.304  29.669  0.00  0.00     0.000 A 
ATOM     30  C24 PHP d         -14.312  13.542  29.768  0.00  0.00     0.001 A 
ATOM     31  C22 PHP d         -13.811  14.614  29.070  0.00  0.00     0.007 A 
ENDBRANCH  25  26
ENDBRANCH   4  25
ENDBRANCH   1   4
BRANCH   1  32
ATOM     32  CA4 PHP d          -8.375  17.326  27.150  0.00  0.00     0.182 C 
BRANCH  32  33
ATOM     33  N4  PHP d          -8.391  17.345  25.699  0.00  0.00    -0.345 N 
ATOM     34  C5  PHP d          -7.990  16.332  24.931  0.00  0.00     0.241 C 
ATOM     35  O5  PHP d          -7.558  15.285  25.405  0.00  0.00    -0.271 OA
ATOM     36  H26 PHP d          -8.725  18.172  25.246  0.00  0.00     0.163 HD
BRANCH  34  37
ATOM     37  CA5 PHP d          -8.049  16.487  23.428  0.00  0.00     0.182 C 
BRANCH  37  38
ATOM     38  CB5 PHP d          -8.705  15.237  22.840  0.00  0.00     0.009 C 
ATOM     39  C43 PHP d          -8.505  15.143  21.350  0.00  0.00     0.012 C 
ATOM     40  C42 PHP d         -10.197  15.329  23.123  0.00  0.00     0.012 C 
ENDBRANCH  37  38
BRANCH  37  41
ATOM     41  N5  PHP d          -6.632  16.611  23.142  0.00  0.00    -0.323 N 
ATOM     42  C6  PHP d          -6.134  17.718  22.589  0.00  0.00     0.361 C 
ATOM     43  O6  PHP d          -6.868  18.675  22.298  0.00  0.00    -0.238 OA
ATOM     44  H35 PHP d          -6.018  15.853  23.363  0.00  0.00     0.165 HD
BRANCH  42  45
ATOM     45  OA6 PHP d          -4.825  17.849  22.338  0.00  0.00    -0.299 OA
BRANCH  45  46
ATOM     46  CB6 PHP d          -3.960  16.886  21.655  0.00  0.00     0.219 C 
BRANCH  46  47
ATOM     47  CG6 PHP d          -2.584  16.852  22.345  0.00  0.00    -0.034 A 
ATOM     48  C51 PHP d          -1.882  15.663  22.454  0.00  0.00     0.009 A 
ATOM     49  C50 PHP d          -0.639  15.624  23.059  0.00  0.00     0.001 A 
ATOM     50  CZ6 PHP d          -0.077  16.781  23.564  0.00  0.00     0.000 A 
ATOM     51  C49 PHP d          -0.770  17.966  23.460  0.00  0.00     0.001 A 
ATOM     52  C48 PHP d          -2.015  18.007  22.856  0.00  0.00     0.009 A 
ENDBRANCH  46  47
ENDBRANCH  45  46
ENDBRANCH  42  45
ENDBRANCH  37  41
ENDBRANCH  34  37
ENDBRANCH  32  33
BRANCH  32  53
ATOM     53  CB4 PHP d          -7.511  18.495  27.665  0.00  0.00     0.074 C 
BRANCH  53  54
ATOM     54  CG4 PHP d          -6.063  18.203  27.304  0.00  0.00    -0.056 A 
ATOM     55  C35 PHP d          -5.391  17.184  27.952  0.00  0.00     0.007 A 
ATOM     56  C37 PHP d          -4.132  16.822  27.538  0.00  0.00     0.001 A 
ATOM     57  CZ4 PHP d          -3.541  17.476  26.484  0.00  0.00     0.000 A 
ATOM     58  C36 PHP d          -4.200  18.499  25.848  0.00  0.00     0.001 A 
ATOM     59  C34 PHP d          -5.462  18.873  26.252  0.00  0.00     0.007 A 
ENDBRANCH  53  54
ENDBRANCH  32  53
ENDBRANCH   1  32
TORSDOF 20
