REMARK  3 active torsions:
REMARK  status: ('A' for Active; 'I' for Inactive)
REMARK    1  A    between atoms: C14_7  and  C13_8 
REMARK       I    between atoms: C13_8  and  N12_10 
REMARK    2  A    between atoms: N12_10  and  C10_11 
REMARK    3  A    between atoms: C6_15  and  C4_17 
ROOT
ATOM      1  C10 F13 d          -6.654  54.578  12.643  0.00  0.00     0.035 A 
ATOM      2  C9  F13 d          -7.088  53.818  13.737  0.00  0.00     0.029 A 
ATOM      3  C8  F13 d          -6.189  53.038  14.465  0.00  0.00     0.003 A 
ATOM      4  C7  F13 d          -4.845  52.980  14.112  0.00  0.00     0.015 A 
ATOM      5  C6  F13 d          -4.415  53.727  13.021  0.00  0.00     0.017 A 
ATOM      6  C11 F13 d          -5.304  54.525  12.297  0.00  0.00     0.045 A 
ENDROOT
BRANCH   1   7
ATOM      7  N12 F13 d          -7.494  55.363  11.908  0.00  0.00    -0.323 N 
ATOM      8  C13 F13 d          -8.563  56.008  12.391  0.00  0.00     0.256 C 
ATOM      9  O20 F13 d          -8.942  55.901  13.547  0.00  0.00    -0.267 OA
ATOM     10  H5  F13 d          -7.296  55.464  10.933  0.00  0.00     0.169 HD
BRANCH   8  11
ATOM     11  C14 F13 d          -9.312  56.931  11.467  0.00  0.00     0.035 A 
ATOM     12  C15 F13 d         -10.149  57.909  12.002  0.00  0.00     0.059 A 
ATOM     13  C16 F13 d         -10.824  58.784  11.157  0.00  0.00     0.117 A 
ATOM     14  F21 F13 d         -11.626  59.731  11.693  0.00  0.00    -0.206 F 
ATOM     15  C17 F13 d         -10.674  58.669   9.783  0.00  0.00     0.042 A 
ATOM     16  C18 F13 d          -9.845  57.692   9.236  0.00  0.00     0.004 A 
ATOM     17  C19 F13 d          -9.153  56.825  10.081  0.00  0.00     0.017 A 
ENDBRANCH   8  11
ENDBRANCH   1   7
BRANCH   5  18
ATOM     18  C4  F13 d          -2.989  53.679  12.626  0.00  0.00     0.198 A 
ATOM     19  N5  F13 d          -2.527  53.957  11.393  0.00  0.00    -0.139 NA
ATOM     20  N1  F13 d          -1.149  53.794  11.394  0.00  0.00    -0.200 N 
ATOM     21  N2  F13 d          -0.791  53.398  12.682  0.00  0.00     0.022 NA
ATOM     22  H10 F13 d          -0.513  53.938  10.597  0.00  0.00     0.208 HD
ATOM     23  N3  F13 d          -1.964  53.326  13.429  0.00  0.00    -0.136 NA
ENDBRANCH   5  18
TORSDOF 3
