REMARK  9 active torsions:
REMARK  status: ('A' for Active; 'I' for Inactive)
REMARK    1  A    between atoms: PB_1  and  O3A_5 
REMARK    2  A    between atoms: O3A_5  and  PA_6 
REMARK    3  A    between atoms: PA_6  and  O5'_9 
REMARK    4  A    between atoms: O5'_9  and  C5'_10 
REMARK    5  A    between atoms: C5'_10  and  C4'_11 
REMARK    6  A    between atoms: C3'_13  and  O3'_14 
REMARK    7  A    between atoms: C2'_15  and  O2'_16 
REMARK    8  A    between atoms: C1'_17  and  N9_18 
REMARK    9  A    between atoms: C2_25  and  N2_26 
ROOT
ATOM      1  C4' GDP d           6.477  -4.113  -0.721  0.00  0.00     0.180 C 
ATOM      2  O4' GDP d           6.736  -2.936   0.046  0.00  0.00    -0.353 OA
ATOM      3  C3' GDP d           5.920  -3.646  -2.053  0.00  0.00     0.182 C 
ATOM      4  C2' GDP d           6.249  -2.173  -2.126  0.00  0.00     0.198 C 
ATOM      5  C1' GDP d           6.259  -1.786  -0.660  0.00  0.00     0.262 C 
ENDROOT
BRANCH   5   6
ATOM      6  N9  GDP d           7.146  -0.638  -0.368  0.00  0.00    -0.295 N 
ATOM      7  C8  GDP d           8.430  -0.462  -0.735  0.00  0.00     0.214 A 
ATOM      8  N7  GDP d           8.907   0.711  -0.248  0.00  0.00    -0.234 NA
ATOM      9  C5  GDP d           7.918   1.296   0.458  0.00  0.00     0.171 A 
ATOM     10  C6  GDP d           7.736   2.542   1.240  0.00  0.00     0.292 A 
ATOM     11  C4  GDP d           6.768   0.394   0.378  0.00  0.00     0.161 A 
ATOM     12  O6  GDP d           8.665   3.366   1.360  0.00  0.00    -0.265 OA
ATOM     13  N1  GDP d           6.547   2.761   1.816  0.00  0.00    -0.154 N 
ATOM     14  C2  GDP d           5.527   1.889   1.702  0.00  0.00     0.680 A 
ATOM     15  H10 GDP d           6.412   3.598   2.347  0.00  0.00     0.187 HD
ATOM     16  N3  GDP d           5.622   0.731   1.005  0.00  0.00    -0.174 N 
ATOM     17  H13 GDP d           4.809   0.100   0.953  0.00  0.00     0.186 HD
BRANCH  14  18
ATOM     18  N2  GDP d           4.348   2.168   2.307  0.00  0.00    -0.234 N 
ATOM     19  H11 GDP d           3.560   1.510   2.228  0.00  0.00     0.174 HD
ATOM     20  H12 GDP d           4.239   3.039   2.846  0.00  0.00     0.174 HD
ENDBRANCH  14  18
ENDBRANCH   5   6
BRANCH   4  21
ATOM     21  O2' GDP d           5.232  -1.465  -2.833  0.00  0.00    -0.388 OA
ATOM     22  H7  GDP d           4.402  -1.573  -2.384  0.00  0.00     0.210 HD
ENDBRANCH   4  21
BRANCH   1  23
ATOM     23  C5' GDP d           7.770  -4.890  -0.918  0.00  0.00     0.216 C 
BRANCH  23  24
ATOM     24  O5' GDP d           8.731  -4.025  -1.519  0.00  0.00    -0.287 OA
BRANCH  24  25
ATOM     25  PA  GDP d           9.966  -4.624  -2.340  0.00  0.00     0.418 P 
ATOM     26  O1A GDP d          10.558  -3.537  -3.199  0.00  0.00    -0.624 OA
ATOM     27  O2A GDP d           9.570  -5.820  -3.167  0.00  0.00    -0.624 OA
BRANCH  25  28
ATOM     28  O3A GDP d          10.991  -5.015  -1.159  0.00  0.00    -0.173 OA
BRANCH  28  29
ATOM     29  PB  GDP d          12.129  -6.136  -1.314  0.00  0.00     0.431 P 
ATOM     30  O1B GDP d          11.488  -7.501  -1.333  0.00  0.00    -0.616 OA
ATOM     31  O2B GDP d          12.923  -5.907  -2.575  0.00  0.00    -0.616 OA
ATOM     32  O3B GDP d          13.071  -6.014  -0.142  0.00  0.00    -0.616 OA
ENDBRANCH  28  29
ENDBRANCH  25  28
ENDBRANCH  24  25
ENDBRANCH  23  24
ENDBRANCH   1  23
BRANCH   3  33
ATOM     33  O3' GDP d           4.498  -3.796  -2.009  0.00  0.00    -0.390 OA
ATOM     34  H5  GDP d           4.125  -3.509  -2.834  0.00  0.00     0.210 HD
ENDBRANCH   3  33
TORSDOF 9
