REMARK  21 active torsions:
REMARK  status: ('A' for Active; 'I' for Inactive)
REMARK    1  A    between atoms: N_1  and  CA_2 
REMARK    2  A    between atoms: CA_2  and  C_3 
REMARK    3  A    between atoms: CA_2  and  CB_5 
REMARK       I    between atoms: C_3  and  N_8 
REMARK    4  A    between atoms: N_8  and  CA_9 
REMARK    5  A    between atoms: CA_9  and  C_10 
REMARK    6  A    between atoms: CA_9  and  CB_12 
REMARK       I    between atoms: C_10  and  N_20 
REMARK    7  A    between atoms: CB_12  and  CG_13 
REMARK    8  A    between atoms: CZ_18  and  OH_19 
REMARK    9  A    between atoms: N_20  and  CA_21 
REMARK   10  A    between atoms: CA_21  and  C_22 
REMARK   11  A    between atoms: CA_21  and  CB_24 
REMARK       I    between atoms: C_22  and  N_28 
REMARK   12  A    between atoms: CB_24  and  CG1_25 
REMARK   13  A    between atoms: N_28  and  CA_29 
REMARK   14  A    between atoms: CA_29  and  C_30 
REMARK   15  A    between atoms: CA_29  and  CB_32 
REMARK       I    between atoms: C_30  and  N_38 
REMARK   16  A    between atoms: CB_32  and  CG_33 
REMARK   17  A    between atoms: CA_39  and  C_40 
REMARK       I    between atoms: C_40  and  N_45 
REMARK   18  A    between atoms: N_45  and  CA_46 
REMARK   19  A    between atoms: CA_46  and  C_47 
REMARK   20  A    between atoms: CA_46  and  CB_49 
REMARK   21  A    between atoms: CB_49  and  CG_50 
ROOT
ATOM      1  C   VAL d         103.060  18.725  17.213  0.00  0.00     0.241 C 
ATOM      2  O   VAL d         102.719  19.909  17.219  0.00  0.00    -0.271 OA
ATOM      3  N   VAL d         102.579  17.859  16.320  0.00  0.00    -0.346 N 
ATOM      4  H32 VAL d         102.872  16.903  16.317  0.00  0.00     0.163 HD
ENDROOT
BRANCH   1   5
ATOM      5  CA  VAL d         104.077  18.233  18.252  0.00  0.00     0.180 C 
BRANCH   5   6
ATOM      6  N   VAL d         105.227  19.131  18.196  0.00  0.00    -0.346 N 
ATOM      7  C   VAL d         106.454  18.689  17.976  0.00  0.00     0.241 C 
ATOM      8  O   VAL d         106.747  17.502  17.953  0.00  0.00    -0.271 OA
ATOM      9  H21 VAL d         105.082  20.112  18.328  0.00  0.00     0.163 HD
BRANCH   7  10
ATOM     10  CA  VAL d         107.528  19.756  17.801  0.00  0.00     0.180 C 
BRANCH  10  11
ATOM     11  N   VAL d         108.617  19.405  18.690  0.00  0.00    -0.346 N 
ATOM     12  C   VAL d         108.692  19.936  19.899  0.00  0.00     0.249 C 
ATOM     13  O   VAL d         107.968  20.873  20.282  0.00  0.00    -0.271 OA
ATOM     14  H12 VAL d         109.316  18.757  18.388  0.00  0.00     0.163 HD
BRANCH  12  15
ATOM     15  CA  VAL d         109.691  19.286  20.844  0.00  0.00     0.278 C 
BRANCH  15  16
ATOM     16  N   VAL d         110.109  20.279  21.919  0.00  0.00    -0.066 N 
ATOM     17  H1  VAL d         110.590  21.055  21.491  0.00  0.00     0.275 HD
ATOM     18  H2  VAL d         110.724  19.824  22.576  0.00  0.00     0.275 HD
ATOM     19  H3  VAL d         109.291  20.616  22.402  0.00  0.00     0.275 HD
ENDBRANCH  15  16
BRANCH  15  20
ATOM     20  CB  VAL d         108.926  18.020  21.385  0.00  0.00     0.017 C 
ATOM     21  CG1 VAL d         109.864  16.899  21.791  0.00  0.00     0.012 C 
ATOM     22  CG2 VAL d         107.948  18.369  22.527  0.00  0.00     0.012 C 
ENDBRANCH  15  20
ENDBRANCH  12  15
ENDBRANCH  10  11
BRANCH  10  23
ATOM     23  CB  VAL d         107.963  19.822  16.345  0.00  0.00     0.073 C 
BRANCH  23  24
ATOM     24  CG  VAL d         106.809  20.189  15.444  0.00  0.00    -0.056 A 
ATOM     25  CD1 VAL d         106.555  21.516  15.110  0.00  0.00     0.010 A 
ATOM     26  CE1 VAL d         105.475  21.851  14.301  0.00  0.00     0.037 A 
ATOM     27  CZ  VAL d         104.636  20.844  13.830  0.00  0.00     0.065 A 
ATOM     28  CE2 VAL d         104.848  19.533  14.162  0.00  0.00     0.037 A 
ATOM     29  CD2 VAL d         105.926  19.199  14.960  0.00  0.00     0.010 A 
BRANCH  27  30
ATOM     30  OH  VAL d         103.569  21.145  13.031  0.00  0.00    -0.361 OA
ATOM     31  H20 VAL d         103.541  22.083  12.882  0.00  0.00     0.217 HD
ENDBRANCH  27  30
ENDBRANCH  23  24
ENDBRANCH  10  23
ENDBRANCH   7  10
ENDBRANCH   5   6
BRANCH   5  32
ATOM     32  CB  VAL d         103.479  18.259  19.671  0.00  0.00     0.013 C 
ATOM     33  CG2 VAL d         102.016  17.804  19.677  0.00  0.00     0.012 C 
BRANCH  32  34
ATOM     34  CG1 VAL d         104.331  17.384  20.589  0.00  0.00     0.002 C 
ATOM     35  CD1 VAL d         104.139  17.699  22.051  0.00  0.00     0.005 C 
ENDBRANCH  32  34
ENDBRANCH   5  32
ENDBRANCH   1   5
BRANCH   3  36
ATOM     36  CA  VAL d         101.603  18.359  15.341  0.00  0.00     0.182 C 
BRANCH  36  37
ATOM     37  C   VAL d         100.272  18.692  15.990  0.00  0.00     0.243 C 
ATOM     38  O   VAL d          99.672  17.828  16.638  0.00  0.00    -0.271 OA
ATOM     39  N   VAL d          99.829  19.958  15.826  0.00  0.00    -0.337 N 
ATOM     40  CA  VAL d          98.498  20.422  16.172  0.00  0.00     0.179 C 
ATOM     41  CD  VAL d         100.627  21.055  15.241  0.00  0.00     0.127 C 
ATOM     42  CB  VAL d          98.274  21.549  15.154  0.00  0.00     0.037 C 
ATOM     43  CG  VAL d          99.619  22.158  15.003  0.00  0.00     0.022 C 
BRANCH  40  44
ATOM     44  C   VAL d          97.441  19.324  16.004  0.00  0.00     0.241 C 
ATOM     45  O   VAL d          97.183  18.871  14.888  0.00  0.00    -0.271 OA
ATOM     46  N   VAL d          96.875  18.875  17.120  0.00  0.00    -0.344 N 
ATOM     47  H46 VAL d          97.200  19.212  18.004  0.00  0.00     0.163 HD
BRANCH  46  48
ATOM     48  CA  VAL d          95.792  17.903  17.081  0.00  0.00     0.189 C 
BRANCH  48  49
ATOM     49  C   VAL d          94.459  18.625  16.889  0.00  0.00     0.197 C 
ATOM     50  O   VAL d          94.191  19.661  17.509  0.00  0.00    -0.646 OA
ATOM     51  OXT VAL d          93.626  18.184  16.097  0.00  0.00    -0.646 OA
ENDBRANCH  48  49
BRANCH  48  52
ATOM     52  CB  VAL d          95.776  17.041  18.349  0.00  0.00     0.074 C 
BRANCH  52  53
ATOM     53  CG  VAL d          94.780  15.908  18.306  0.00  0.00    -0.056 A 
ATOM     54  CD1 VAL d          95.016  14.781  17.513  0.00  0.00     0.007 A 
ATOM     55  CE1 VAL d          94.100  13.737  17.472  0.00  0.00     0.001 A 
ATOM     56  CZ  VAL d          92.938  13.807  18.243  0.00  0.00     0.000 A 
ATOM     57  CE2 VAL d          92.696  14.919  19.035  0.00  0.00     0.001 A 
ATOM     58  CD2 VAL d          93.612  15.962  19.064  0.00  0.00     0.007 A 
ENDBRANCH  52  53
ENDBRANCH  48  52
ENDBRANCH  46  48
ENDBRANCH  40  44
ENDBRANCH  36  37
BRANCH  36  59
ATOM     59  CB  VAL d         101.374  17.462  14.121  0.00  0.00     0.095 C 
BRANCH  59  60
ATOM     60  CG  VAL d         100.448  18.085  13.112  0.00  0.00     0.053 A 
ATOM     61  ND1 VAL d         100.786  19.212  12.385  0.00  0.00    -0.247 NA
ATOM     62  CE1 VAL d          99.776  19.552  11.603  0.00  0.00     0.207 A 
ATOM     63  NE2 VAL d          98.786  18.700  11.809  0.00  0.00    -0.359 N 
ATOM     64  CD2 VAL d          99.177  17.778  12.753  0.00  0.00     0.116 A 
ATOM     65  H38 VAL d          97.870  18.723  11.339  0.00  0.00     0.166 HD
ENDBRANCH  59  60
ENDBRANCH  36  59
ENDBRANCH   3  36
TORSDOF 21
