3rdv_ligand

Created by X-TOOL on Fri Sep 26 17:34:51 2014
123125  0  0  0  0  0  0  0  0999 V2000
   16.6690  -21.4050  -14.4150  N 0  3  0  4  0  4
   15.5040  -22.2760  -14.3970  C 0  0  0  2  0  4
   14.2280  -21.5090  -14.7530  C 0  0  0  1  0  3
   14.2420  -20.2840  -14.8420  O 0  0  0  1  0  1
   15.3640  -22.9440  -13.0350  C 0  0  0  3  0  4
   14.3640  -24.0730  -13.0510  C 0  5  0  1  0  3
   14.5520  -25.0160  -13.8470  O 0  0  0  1  0  1
   13.3910  -24.0120  -12.2750  O 0  0  0  1  0  1
   13.1290  -22.2370  -14.9450  N 0  0  0  2  0  3
   11.9010  -21.6630  -15.5040  C 0  0  0  2  0  4
   11.3140  -20.4980  -14.7160  C 0  0  0  1  0  3
   10.7050  -19.6050  -15.2980  O 0  0  0  1  0  1
   10.8320  -22.7380  -15.6990  C 0  0  0  3  0  4
   11.1630  -23.5850  -16.7820  O 0  0  0  2  0  2
   11.4790  -20.5090  -13.3980  N 0  0  0  2  0  3
   10.9360  -19.4330  -12.5710  C 0  0  0  2  0  4
   11.4600  -18.0580  -12.9980  C 0  0  0  1  0  3
   10.8310  -17.0320  -12.7170  O 0  0  0  1  0  1
   11.2200  -19.6860  -11.0860  C 0  0  0  3  0  4
   12.6650  -19.5660  -10.7150  C 0  0  0  1  0  3
   13.6020  -20.5540  -10.7440  C 0  0  0  2  0  3
   13.3370  -18.3870  -10.2490  C 0  0  0  1  0  3
   14.8160  -20.0640  -10.3360  N 0  0  0  2  0  3
   14.6810  -18.7370  -10.0240  C 0  0  0  1  0  3
   12.9330  -17.0690  -10.0040  C 0  0  0  2  0  3
   15.6240  -17.8190   -9.5580  C 0  0  0  2  0  3
   13.8690  -16.1600   -9.5450  C 0  0  0  2  0  3
   15.1990  -16.5380   -9.3300  C 0  0  0  2  0  3
   12.5990  -18.0440  -13.6920  N 0  0  0  2  0  3
   13.2350  -16.7940  -14.1170  C 0  0  0  2  0  4
   12.7830  -16.3330  -15.4940  C 0  0  0  1  0  3
   13.2650  -15.3200  -16.0070  O 0  0  0  1  0  1
   14.7590  -16.9210  -14.0990  C 0  0  0  3  0  4
   15.3440  -17.0740  -12.7180  C 0  0  0  3  0  4
   16.8670  -17.0290  -12.7490  C 0  0  0  3  0  4
   17.4380  -18.1600  -13.5880  C 0  0  0  3  0  4
   18.8870  -18.3680  -13.3120  N 0  3  0  4  0  4
   11.8710  -17.0840  -16.1030  N 0  0  0  2  0  3
   11.2420  -16.6460  -17.3360  C 0  0  0  2  0  4
   10.5200  -15.3270  -17.0950  C 0  0  0  1  0  3
    9.8200  -15.1710  -16.0910  O 0  0  0  1  0  1
   10.2480  -17.7020  -17.8340  C 0  0  0  3  0  4
   10.9350  -18.9460  -18.3460  C 0  5  0  1  0  3
   12.1850  -18.9880  -18.3120  O 0  0  0  1  0  1
   10.2270  -19.8810  -18.7850  O 0  0  0  1  0  1
   10.6980  -14.3740  -18.0070  N 0  0  0  2  0  3
   10.0220  -13.0970  -17.8980  C 0  0  0  3  0  4
   10.6780  -12.1900  -16.8730  C 0  0  0  1  0  3
   10.0970  -11.1870  -16.4760  O 0  0  0  1  0  1
   11.8750  -12.5710  -16.4340  N 0  0  0  2  0  3
   12.6810  -11.7720  -15.5180  C 0  0  0  2  0  4
   13.9300  -11.2920  -16.2220  C 0  0  0  1  0  3
   14.3060  -11.8270  -17.2640  O 0  0  0  1  0  1
   13.1200  -12.6060  -14.3150  C 0  0  0  3  0  4
   11.8040  -13.0130  -13.1850  S 0  0  0  2  0  2
   14.5960  -10.3020  -15.6360  N 0  0  0  2  0  3
   15.8490   -9.8040  -16.1950  C 0  0  0  2  0  4
   16.9500   -9.8460  -15.1500  C 0  5  0  1  0  3
   16.6870  -10.0310  -13.9570  O 0  0  0  1  0  1
   15.6960   -8.3770  -16.7460  C 0  0  0  3  0  4
   14.8230   -8.2970  -17.9790  C 0  0  0  1  0  3
   15.3860   -8.2080  -19.2380  C 0  0  0  2  0  3
   13.4420   -8.3220  -17.8770  C 0  0  0  2  0  3
   14.5950   -8.1490  -20.3680  C 0  0  0  2  0  3
   12.6340   -8.2800  -19.0030  C 0  0  0  2  0  3
   13.2200   -8.1850  -20.2430  C 0  0  0  1  0  3
   12.4360   -8.1230  -21.3650  O 0  0  0  2  0  2
   18.1280   -9.6950  -15.4840  O 0  0  0  1  0  1
   17.4908  -21.9381  -14.1772  H 0  0  0  1  0  1
   16.5442  -20.6630  -13.7443  H 0  0  0  1  0  1
   16.7794  -21.0105  -15.3360  H 0  0  0  1  0  1
   15.6522  -23.0613  -15.1529  H 0  0  0  1  0  1
   15.0354  -22.1908  -12.3037  H 0  0  0  1  0  1
   16.3438  -23.3437  -12.7347  H 0  0  0  1  0  1
   13.1419  -23.2064  -14.6999  H 0  0  0  1  0  1
   12.1641  -21.2725  -16.4981  H 0  0  0  1  0  1
    9.8659  -22.2531  -15.9027  H 0  0  0  1  0  1
   10.7541  -23.3397  -14.7815  H 0  0  0  1  0  1
   10.4867  -24.2442  -16.8852  H 0  0  0  1  0  1
   11.9793  -21.2603  -12.9676  H 0  0  0  1  0  1
    9.8446  -19.4290  -12.7079  H 0  0  0  1  0  1
   10.8821  -20.7028  -10.8372  H 0  0  0  1  0  1
   10.6490  -18.9549  -10.4949  H 0  0  0  1  0  1
   13.4144  -21.5830  -11.0470  H 0  0  0  1  0  1
   15.6893  -20.6067  -10.2741  H 0  0  0  1  0  1
   11.9055  -16.7666  -10.1710  H 0  0  0  1  0  1
   16.6536  -18.1097   -9.3834  H 0  0  0  1  0  1
   13.5672  -15.1376   -9.3485  H 0  0  0  1  0  1
   15.9088  -15.7997   -8.9749  H 0  0  0  1  0  1
   13.0323  -18.9133  -13.9296  H 0  0  0  1  0  1
   12.9481  -16.0168  -13.3934  H 0  0  0  1  0  1
   15.1871  -16.0177  -14.5581  H 0  0  0  1  0  1
   15.0399  -17.8028  -14.6935  H 0  0  0  1  0  1
   15.0233  -18.0391  -12.2988  H 0  0  0  1  0  1
   14.9751  -16.2567  -12.0809  H 0  0  0  1  0  1
   17.2487  -17.1179  -11.7212  H 0  0  0  1  0  1
   17.1881  -16.0682  -13.1776  H 0  0  0  1  0  1
   17.3087  -17.9155  -14.6527  H 0  0  0  1  0  1
   16.8935  -19.0871  -13.3559  H 0  0  0  1  0  1
   19.2329  -19.1230  -13.8834  H 0  0  0  1  0  1
   19.0141  -18.5977  -12.3388  H 0  0  0  1  0  1
   19.3946  -17.5241  -13.5271  H 0  0  0  1  0  1
   11.6140  -17.9649  -15.7055  H 0  0  0  1  0  1
   12.0180  -16.4975  -18.1014  H 0  0  0  1  0  1
    9.6508  -17.2678  -18.6493  H 0  0  0  1  0  1
    9.5846  -17.9821  -17.0025  H 0  0  0  1  0  1
   11.3088  -14.5422  -18.7807  H 0  0  0  1  0  1
    8.9779  -13.2726  -17.5997  H 0  0  0  1  0  1
   10.0444  -12.5988  -18.8785  H 0  0  0  1  0  1
   12.2396  -13.4478  -16.7474  H 0  0  0  1  0  1
   12.0910  -10.9095  -15.1745  H 0  0  0  1  0  1
   13.8845  -12.0392  -13.7635  H 0  0  0  1  0  1
   13.5567  -13.5444  -14.6874  H 0  0  0  1  0  1
   12.1737  -13.5607  -12.4238  H 0  0  0  1  0  1
   14.2330   -9.8921  -14.7992  H 0  0  0  1  0  1
   16.1366  -10.4629  -17.0275  H 0  0  0  1  0  1
   16.6948   -7.9932  -17.0010  H 0  0  0  1  0  1
   15.2502   -7.7470  -15.9622  H 0  0  0  1  0  1
   16.4649   -8.1842  -19.3398  H 0  0  0  1  0  1
   12.9832   -8.3755  -16.8963  H 0  0  0  1  0  1
   15.0509   -8.0748  -21.3487  H 0  0  0  1  0  1
   11.5551   -8.3215  -18.9069  H 0  0  0  1  0  1
   12.9901   -8.0606  -22.1341  H 0  0  0  1  0  1
  1  2  1  0  0  2
  2  3  1  0  0  2
  2  5  1  0  0  2
  3  4  2  0  0  2
  3  9  1  0  0  2
  5  6  1  0  0  2
  6  7  2  0  0  2
  6  8  2  0  0  2
  9 10  1  0  0  2
 10 11  1  0  0  2
 10 13  1  0  0  2
 11 12  2  0  0  2
 11 15  1  0  0  2
 13 14  1  0  0  2
 15 16  1  0  0  2
 16 17  1  0  0  2
 16 19  1  0  0  2
 17 18  2  0  0  2
 17 29  1  0  0  2
 19 20  1  0  0  2
 20 21  2  0  0  1
 20 22  1  0  0  1
 21 23  1  0  0  1
 22 24  4  0  0  1
 22 25  4  0  0  1
 23 24  1  0  0  1
 24 26  4  0  0  1
 25 27  4  0  0  1
 26 28  4  0  0  1
 27 28  4  0  0  1
 29 30  1  0  0  2
 30 31  1  0  0  2
 30 33  1  0  0  2
 31 32  2  0  0  2
 31 38  1  0  0  2
 33 34  1  0  0  2
 34 35  1  0  0  2
 35 36  1  0  0  2
 36 37  1  0  0  2
 38 39  1  0  0  2
 39 40  1  0  0  2
 39 42  1  0  0  2
 40 41  2  0  0  2
 40 46  1  0  0  2
 42 43  1  0  0  2
 43 44  2  0  0  2
 43 45  2  0  0  2
 46 47  1  0  0  2
 47 48  1  0  0  2
 48 49  2  0  0  2
 48 50  1  0  0  2
 50 51  1  0  0  2
 51 52  1  0  0  2
 51 54  1  0  0  2
 52 53  2  0  0  2
 52 56  1  0  0  2
 54 55  1  0  0  2
 56 57  1  0  0  2
 57 58  1  0  0  2
 57 60  1  0  0  2
 58 59  2  0  0  2
 58 68  2  0  0  2
 60 61  1  0  0  2
 61 62  4  0  0  1
 61 63  4  0  0  1
 62 64  4  0  0  1
 63 65  4  0  0  1
 64 66  4  0  0  1
 65 66  4  0  0  1
 66 67  1  0  0  2
  1 69  1  0  0  2
  1 70  1  0  0  2
  1 71  1  0  0  2
  2 72  1  0  0  2
  5 73  1  0  0  2
  5 74  1  0  0  2
  9 75  1  0  0  2
 10 76  1  0  0  2
 13 77  1  0  0  2
 13 78  1  0  0  2
 14 79  1  0  0  2
 15 80  1  0  0  2
 16 81  1  0  0  2
 19 82  1  0  0  2
 19 83  1  0  0  2
 21 84  1  0  0  2
 23 85  1  0  0  2
 25 86  1  0  0  2
 26 87  1  0  0  2
 27 88  1  0  0  2
 28 89  1  0  0  2
 29 90  1  0  0  2
 30 91  1  0  0  2
 33 92  1  0  0  2
 33 93  1  0  0  2
 34 94  1  0  0  2
 34 95  1  0  0  2
 35 96  1  0  0  2
 35 97  1  0  0  2
 36 98  1  0  0  2
 36 99  1  0  0  2
 37100  1  0  0  2
 37101  1  0  0  2
 37102  1  0  0  2
 38103  1  0  0  2
 39104  1  0  0  2
 42105  1  0  0  2
 42106  1  0  0  2
 46107  1  0  0  2
 47108  1  0  0  2
 47109  1  0  0  2
 50110  1  0  0  2
 51111  1  0  0  2
 54112  1  0  0  2
 54113  1  0  0  2
 55114  1  0  0  2
 56115  1  0  0  2
 57116  1  0  0  2
 60117  1  0  0  2
 60118  1  0  0  2
 62119  1  0  0  2
 63120  1  0  0  2
 64121  1  0  0  2
 65122  1  0  0  2
 67123  1  0  0  2
M  END
> <MOLECULAR_FORMULA>
C42H55N10O15S

> <MOLECULAR_WEIGHT>
971.6

> <NUM_HB_ATOMS>
26 

> <NUM_ROTOR>
26 

> <XLOGP2>
-6.24

$$$$
