REMARK  4 active torsions:
REMARK  status: ('A' for Active; 'I' for Inactive)
REMARK    1  A    between atoms: CA_2  and  N_1 
REMARK    2  A    between atoms: CA_2  and  C_3 
REMARK    3  A    between atoms: CA_2  and  CB_5 
REMARK    4  A    between atoms: CB_5  and  CG_6 
ROOT
ATOM      1  CA  HIS d          31.578  28.907  67.633  0.00  0.00     0.289 C 
ENDROOT
BRANCH   1   2
ATOM      2  C   HIS d          31.240  28.064  68.870  0.00  0.00     0.204 C 
ATOM      3  OXT HIS d          31.133  26.867  68.690  0.00  0.00    -0.646 OA
ATOM      4  O   HIS d          31.077  28.593  69.984  0.00  0.00    -0.646 OA
ENDBRANCH   1   2
BRANCH   1   5
ATOM      5  CB  HIS d          32.963  28.556  67.058  0.00  0.00     0.104 C 
BRANCH   5   6
ATOM      6  CG  HIS d          34.246  28.487  67.895  0.00  0.00     0.053 A 
ATOM      7  CD2 HIS d          34.511  29.034  69.113  0.00  0.00     0.116 A 
ATOM      8  NE2 HIS d          35.740  28.709  69.414  0.00  0.00    -0.359 N 
ATOM      9  CE1 HIS d          36.264  28.022  68.464  0.00  0.00     0.207 A 
ATOM     10  H9  HIS d          36.220  28.967  70.288  0.00  0.00     0.166 HD
ATOM     11  ND1 HIS d          35.359  27.866  67.543  0.00  0.00    -0.247 NA
ENDBRANCH   5   6
ENDBRANCH   1   5
BRANCH   1  12
ATOM     12  N   HIS d          31.538  30.234  68.119  0.00  0.00    -0.065 N 
ATOM     13  H1  HIS d          31.750  30.873  67.369  0.00  0.00     0.275 HD
ATOM     14  H2  HIS d          32.218  30.343  68.855  0.00  0.00     0.275 HD
ATOM     15  H3  HIS d          30.618  30.432  68.479  0.00  0.00     0.275 HD
ENDBRANCH   1  12
TORSDOF 4
