REMARK  3 active torsions:
REMARK  status: ('A' for Active; 'I' for Inactive)
REMARK    1  A    between atoms: C1_1  and  S1_12 
REMARK    2  A    between atoms: C2_2  and  N4_8 
REMARK       I    between atoms: N4_8  and  C3_3 
REMARK    3  A    between atoms: S1_12  and  N1_5 
ROOT
ATOM      1  C1  AZM d          -5.457   2.085  15.541  0.00  0.00     0.237 A 
ATOM      2  C2  AZM d          -4.986   3.753  14.058  0.00  0.00     0.197 A 
ATOM      3  N2  AZM d          -4.247   2.752  13.846  0.00  0.00    -0.122 NA
ATOM      4  N3  AZM d          -4.486   1.751  14.764  0.00  0.00    -0.126 NA
ATOM      5  S2  AZM d          -6.128   3.670  15.329  0.00  0.00    -0.015 SA
ENDROOT
BRANCH   1   6
ATOM      6  S1  AZM d          -6.002   0.959  16.813  0.00  0.00     0.282 S 
ATOM      7  O1  AZM d          -5.040   1.001  17.873  0.00  0.00    -0.199 OA
ATOM      8  O2  AZM d          -7.405   1.334  16.954  0.00  0.00    -0.199 OA
BRANCH   6   9
ATOM      9  N1  AZM d          -5.879  -0.459  16.177  0.00  0.00    -0.323 N 
ATOM     10  H4  AZM d          -6.132  -1.268  16.707  0.00  0.00     0.169 HD
ATOM     11  H5  AZM d          -5.547  -0.559  15.239  0.00  0.00     0.169 HD
ENDBRANCH   6   9
ENDBRANCH   1   6
BRANCH   2  12
ATOM     12  N4  AZM d          -4.868   4.879  13.281  0.00  0.00    -0.305 N 
ATOM     13  C3  AZM d          -5.631   5.963  13.422  0.00  0.00     0.219 C 
ATOM     14  O3  AZM d          -6.468   6.005  14.340  0.00  0.00    -0.274 OA
ATOM     15  C4  AZM d          -5.288   7.047  12.433  0.00  0.00     0.117 C 
ATOM     16  H6  AZM d          -4.168   4.886  12.567  0.00  0.00     0.171 HD
ENDBRANCH   2  12
TORSDOF 3
