REMARK  5 active torsions:
REMARK  status: ('A' for Active; 'I' for Inactive)
REMARK    1  A    between atoms: C22_7  and  C17_8 
REMARK    2  A    between atoms: C17_8  and  N13_9 
REMARK    3  A    between atoms: N13_9  and  C16_10 
REMARK    4  A    between atoms: N13_9  and  C1_15 
REMARK    5  A    between atoms: C1_15  and  C2_16 
ROOT
ATOM      1  N13 CBT d           9.041  13.152  29.869  0.00  0.00    -0.205 N 
ENDROOT
BRANCH   1   2
ATOM      2  C17 CBT d           7.891  12.685  29.064  0.00  0.00     0.180 C 
BRANCH   2   3
ATOM      3  C22 CBT d           8.287  11.595  28.049  0.00  0.00    -0.040 A 
ATOM      4  C26 CBT d           9.394  10.735  28.274  0.00  0.00     0.010 A 
ATOM      5  C28 CBT d           9.645   9.652  27.390  0.00  0.00     0.024 A 
ATOM      6  C29 CBT d           8.800   9.470  26.266  0.00  0.00     0.034 A 
ATOM      7 CL3  CBT d           9.135   8.453  25.214  0.00  0.00    -0.084 Cl
ATOM      8  C27 CBT d           7.690  10.312  26.043  0.00  0.00     0.024 A 
ATOM      9  C25 CBT d           7.466  11.369  26.936  0.00  0.00     0.010 A 
ENDBRANCH   2   3
ENDBRANCH   1   2
BRANCH   1  10
ATOM     10  C16 CBT d           9.343  12.581  31.040  0.00  0.00     0.730 A 
ATOM     11  N18 CBT d          10.285  13.025  31.884  0.00  0.00     0.029 NA
ATOM     12  N20 CBT d          10.176  12.296  33.071  0.00  0.00     0.033 NA
ATOM     13  N21 CBT d           9.110  11.392  32.923  0.00  0.00     0.008 NA
ATOM     14  N19 CBT d           8.630  11.616  31.631  0.00  0.00    -0.115 N 
ATOM     15  H7  CBT d           7.843  11.113  31.197  0.00  0.00     0.203 HD
ENDBRANCH   1  10
BRANCH   1  16
ATOM     16  C1  CBT d           9.845  14.285  29.350  0.00  0.00     0.180 C 
BRANCH  16  17
ATOM     17  C2  CBT d           9.072  15.610  29.393  0.00  0.00    -0.040 A 
ATOM     18  C3  CBT d           8.072  15.856  30.355  0.00  0.00     0.010 A 
ATOM     19  C5  CBT d           7.474  17.134  30.405  0.00  0.00     0.024 A 
ATOM     20  C7  CBT d           7.817  18.178  29.527  0.00  0.00     0.034 A 
ATOM     21 CL8  CBT d           7.196  19.565  29.679  0.00  0.00    -0.084 Cl
ATOM     22  C6  CBT d           8.776  17.917  28.548  0.00  0.00     0.024 A 
ATOM     23  C4  CBT d           9.396  16.641  28.497  0.00  0.00     0.010 A 
ENDBRANCH  16  17
ENDBRANCH   1  16
TORSDOF 5
