REMARK  11 active torsions:
REMARK  status: ('A' for Active; 'I' for Inactive)
REMARK    1  A    between atoms: C24_7  and  C22_8 
REMARK    2  A    between atoms: C33_11  and  O34_12 
REMARK    3  A    between atoms: C31_13  and  O32_14 
REMARK    4  A    between atoms: C20_15  and  C18_16 
REMARK       I    between atoms: C18_16  and  N17_18 
REMARK    5  A    between atoms: N17_18  and  C16_19 
REMARK    6  A    between atoms: C16_19  and  C15_20 
REMARK    7  A    between atoms: C14_21  and  C6_22 
REMARK    8  A    between atoms: C4_23  and  O5_24 
REMARK    9  A    between atoms: C2_25  and  O3_26 
REMARK   10  A    between atoms: C1_28  and  N10_29 
REMARK   11  A    between atoms: C35_35  and  N7_38 
ROOT
ATOM      1  C15 MOL d          -2.812  18.232  13.843  0.00  0.00    -0.009 C 
ATOM      2  C14 MOL d          -3.603  19.131  14.394  0.00  0.00     0.005 C 
ENDROOT
BRANCH   1   3
ATOM      3  C16 MOL d          -3.165  16.791  13.732  0.00  0.00     0.150 C 
BRANCH   3   4
ATOM      4  N17 MOL d          -1.944  16.030  13.833  0.00  0.00    -0.353 N 
ATOM      5  C18 MOL d          -1.975  14.704  14.160  0.00  0.00     0.254 C 
ATOM      6  O19 MOL d          -3.045  14.143  14.368  0.00  0.00    -0.268 OA
ATOM      7  H9  MOL d          -1.066  16.477  13.662  0.00  0.00     0.163 HD
BRANCH   5   8
ATOM      8  C20 MOL d          -0.700  14.076  14.356  0.00  0.00     0.068 C 
ATOM      9  C21 MOL d          -0.700  12.817  15.007  0.00  0.00     0.032 C 
ATOM     10  C22 MOL d           0.508  12.147  15.306  0.00  0.00    -0.022 C 
ATOM     11  C23 MOL d           1.741  12.670  14.802  0.00  0.00     0.051 C 
ATOM     12  C33 MOL d           1.747  13.903  14.144  0.00  0.00     0.100 C 
ATOM     13  C31 MOL d           0.542  14.584  13.896  0.00  0.00     0.114 C 
BRANCH  10  14
ATOM     14  C24 MOL d           0.504  10.836  15.969  0.00  0.00    -0.026 A 
ATOM     15  C25 MOL d          -0.421  10.562  16.954  0.00  0.00     0.015 A 
ATOM     16  C26 MOL d          -0.432   9.353  17.626  0.00  0.00     0.043 A 
ATOM     17  C29 MOL d           0.437   8.395  17.225  0.00  0.00     0.116 A 
ATOM     18  F30 MOL d           0.420   7.192  17.897  0.00  0.00    -0.206 F 
ATOM     19  C28 MOL d           1.368   8.556  16.246  0.00  0.00     0.043 A 
ATOM     20  C27 MOL d           1.373   9.815  15.594  0.00  0.00     0.015 A 
ENDBRANCH  10  14
BRANCH  12  21
ATOM     21  O34 MOL d           2.933  14.437  13.673  0.00  0.00    -0.358 OA
ATOM     22  H7  MOL d           2.759  15.272  13.255  0.00  0.00     0.217 HD
ENDBRANCH  12  21
BRANCH  13  23
ATOM     23  O32 MOL d           0.652  15.728  13.147  0.00  0.00    -0.357 OA
ATOM     24  H8  MOL d           1.221  16.344  13.593  0.00  0.00     0.217 HD
ENDBRANCH  13  23
ENDBRANCH   5   8
ENDBRANCH   3   4
ENDBRANCH   1   3
BRANCH   2  25
ATOM     25  C6  MOL d          -3.256  20.567  14.508  0.00  0.00     0.178 C 
ATOM     26  C4  MOL d          -3.883  21.151  15.770  0.00  0.00     0.183 C 
ATOM     27  C2  MOL d          -5.243  21.567  15.212  0.00  0.00     0.199 C 
ATOM     28  C1  MOL d          -4.924  22.133  13.866  0.00  0.00     0.262 C 
ATOM     29  O13 MOL d          -3.773  21.360  13.400  0.00  0.00    -0.352 OA
BRANCH  26  30
ATOM     30  O5  MOL d          -3.128  22.295  16.223  0.00  0.00    -0.390 OA
ATOM     31  H16 MOL d          -3.530  22.647  17.008  0.00  0.00     0.210 HD
ENDBRANCH  26  30
BRANCH  27  32
ATOM     32  O3  MOL d          -5.956  22.537  15.999  0.00  0.00    -0.388 OA
ATOM     33  H18 MOL d          -5.437  23.330  16.069  0.00  0.00     0.210 HD
ENDBRANCH  27  32
BRANCH  28  34
ATOM     34  N10 MOL d          -5.953  21.947  12.843  0.00  0.00    -0.294 N 
ATOM     35  C9  MOL d          -6.573  20.757  12.498  0.00  0.00     0.214 A 
ATOM     36  N8  MOL d          -7.326  20.886  11.440  0.00  0.00    -0.236 NA
ATOM     37  C12 MOL d          -7.225  22.219  11.071  0.00  0.00     0.149 A 
ATOM     38  C11 MOL d          -6.358  22.876  11.914  0.00  0.00     0.167 A 
ATOM     39  C35 MOL d          -7.760  23.015  10.050  0.00  0.00     0.157 A 
ATOM     40  N40 MOL d          -6.004  24.175  11.844  0.00  0.00    -0.222 NA
ATOM     41  C39 MOL d          -6.553  24.807  10.815  0.00  0.00     0.237 A 
ATOM     42  N38 MOL d          -7.413  24.276   9.926  0.00  0.00    -0.222 NA
BRANCH  39  43
ATOM     43  N7  MOL d          -8.653  22.558   9.092  0.00  0.00    -0.377 N 
ATOM     44  C36 MOL d          -9.137  21.181   9.091  0.00  0.00     0.148 C 
ATOM     45  H22 MOL d          -8.983  23.207   8.363  0.00  0.00     0.160 HD
ENDBRANCH  39  43
ENDBRANCH  28  34
ENDBRANCH   2  25
TORSDOF 11
