REMARK  15 active torsions:
REMARK  status: ('A' for Active; 'I' for Inactive)
REMARK    1  A    between atoms: C2_14  and  C3_15 
REMARK    2  A    between atoms: C3_15  and  C4_16 
REMARK    3  A    between atoms: C4_16  and  C5_17 
REMARK    4  A    between atoms: C5_17  and  N2_21 
REMARK       I    between atoms: N2_21  and  C6_18 
REMARK    5  A    between atoms: N2_21  and  O2_23 
REMARK    6  A    between atoms: C2_26  and  C3_27 
REMARK    7  A    between atoms: C3_27  and  C4_28 
REMARK    8  A    between atoms: C4_28  and  C5_29 
REMARK    9  A    between atoms: C5_29  and  N2_33 
REMARK       I    between atoms: N2_33  and  C6_30 
REMARK   10  A    between atoms: N2_33  and  O2_35 
REMARK   11  A    between atoms: C2_38  and  C3_39 
REMARK   12  A    between atoms: C3_39  and  C4_40 
REMARK   13  A    between atoms: C4_40  and  C5_41 
REMARK   14  A    between atoms: C5_41  and  N2_45 
REMARK       I    between atoms: N2_45  and  C6_42 
REMARK   15  A    between atoms: N2_45  and  O2_47 
ROOT
ATOM      1  N   GLY d 806      -0.725  14.620   3.300  0.00  0.00    -0.351 N 
ATOM      2  CA  GLY d 806      -0.600  16.065   3.345  0.00  0.00     0.225 C 
ATOM      3  C   GLY d 806       0.636  16.458   2.552  0.00  0.00     0.235 C 
ATOM      4  O   GLY d 806       1.472  15.602   2.288  0.00  0.00    -0.272 OA
ATOM      5  N   GLY d 806       1.120  17.751   2.214  0.00  0.00    -0.351 N 
ATOM      6  CA  GLY d 806       2.383  17.864   1.486  0.00  0.00     0.225 C 
ATOM      7  C   GLY d 806       3.624  17.492   2.291  0.00  0.00     0.235 C 
ATOM      8  O   GLY d 806       3.618  17.493   3.528  0.00  0.00    -0.272 OA
ATOM      9  N   GLY d 806       4.361  16.605   1.593  0.00  0.00    -0.351 N 
ATOM     10  CA  GLY d 806       5.600  15.944   1.958  0.00  0.00     0.225 C 
ATOM     11  C   GLY d 806       5.353  14.509   2.397  0.00  0.00     0.236 C 
ATOM     12  O   GLY d 806       6.284  13.717   2.549  0.00  0.00    -0.272 OA
ATOM     13  C1  GLY d 806       2.599  12.221   1.897  0.00  0.00     0.241 C 
ATOM     14  C2  GLY d 806       3.753  12.784   2.676  0.00  0.00     0.176 C 
ATOM     15  N1  GLY d 806       3.857  14.179   2.324  0.00  0.00    -0.346 N 
ATOM     16  O1  GLY d 806       2.208  12.807   0.873  0.00  0.00    -0.271 OA
ATOM     17  C1  GLY d 806      -0.563  11.557   1.614  0.00  0.00     0.241 C 
ATOM     18  C2  GLY d 806       0.641  10.674   1.418  0.00  0.00     0.176 C 
ATOM     19  N1  GLY d 806       1.698  11.151   2.294  0.00  0.00    -0.346 N 
ATOM     20  O1  GLY d 806      -1.388  11.721   0.718  0.00  0.00    -0.271 OA
ATOM     21  C1  GLY d 806      -2.083  14.144   3.226  0.00  0.00     0.240 C 
ATOM     22  C2  GLY d 806      -2.183  12.647   3.157  0.00  0.00     0.176 C 
ATOM     23  N1  GLY d 806      -0.891  12.030   2.954  0.00  0.00    -0.346 N 
ATOM     24  O1  GLY d 806      -3.094  14.830   3.388  0.00  0.00    -0.271 OA
ATOM     25  H1  GLY d 806       0.065  14.007   3.319  0.00  0.00     0.163 HD
ATOM     26  H4  GLY d 806       0.606  18.570   2.470  0.00  0.00     0.163 HD
ATOM     27  H7  GLY d 806       4.001  16.368   0.691  0.00  0.00     0.163 HD
ATOM     28  H20 GLY d 806       3.111  14.800   2.083  0.00  0.00     0.163 HD
ATOM     29  H32 GLY d 806       1.809  10.732   3.195  0.00  0.00     0.163 HD
ATOM     30  H44 GLY d 806      -0.243  11.931   3.709  0.00  0.00     0.163 HD
ENDROOT
BRANCH  14  31
ATOM     31  C3  GLY d 806       3.620  12.569   4.161  0.00  0.00     0.037 C 
BRANCH  31  32
ATOM     32  C4  GLY d 806       2.688  13.471   4.934  0.00  0.00     0.025 C 
BRANCH  32  33
ATOM     33  C5  GLY d 806       2.612  13.224   6.414  0.00  0.00     0.159 C 
BRANCH  33  34
ATOM     34  N2  GLY d 806       2.093  11.898   6.659  0.00  0.00    -0.229 N 
ATOM     35  C6  GLY d 806       2.775  10.919   7.440  0.00  0.00     0.239 C 
ATOM     36  C7  GLY d 806       4.084  11.209   8.105  0.00  0.00     0.119 C 
ATOM     37  O3  GLY d 806       2.270   9.820   7.538  0.00  0.00    -0.272 OA
BRANCH  34  38
ATOM     38  O2  GLY d 806       0.952  11.580   6.103  0.00  0.00    -0.285 OA
ATOM     39  H21 GLY d 806       1.083  10.849   5.511  0.00  0.00     0.245 HD
ENDBRANCH  34  38
ENDBRANCH  33  34
ENDBRANCH  32  33
ENDBRANCH  31  32
ENDBRANCH  14  31
BRANCH  18  40
ATOM     40  C3  GLY d 806       0.312   9.241   1.757  0.00  0.00     0.037 C 
BRANCH  40  41
ATOM     41  C4  GLY d 806       1.375   8.194   1.563  0.00  0.00     0.025 C 
BRANCH  41  42
ATOM     42  C5  GLY d 806       2.487   8.032   2.558  0.00  0.00     0.159 C 
BRANCH  42  43
ATOM     43  N2  GLY d 806       2.020   8.220   3.912  0.00  0.00    -0.229 N 
ATOM     44  C6  GLY d 806       1.583   7.145   4.764  0.00  0.00     0.239 C 
ATOM     45  C7  GLY d 806       1.636   5.704   4.324  0.00  0.00     0.119 C 
ATOM     46  O3  GLY d 806       1.184   7.406   5.903  0.00  0.00    -0.272 OA
BRANCH  43  47
ATOM     47  O2  GLY d 806       1.960   9.444   4.354  0.00  0.00    -0.285 OA
ATOM     48  H33 GLY d 806       1.059   9.659   4.565  0.00  0.00     0.245 HD
ENDBRANCH  43  47
ENDBRANCH  42  43
ENDBRANCH  41  42
ENDBRANCH  40  41
ENDBRANCH  18  40
BRANCH  22  49
ATOM     49  C3  GLY d 806      -2.735  12.130   4.453  0.00  0.00     0.037 C 
BRANCH  49  50
ATOM     50  C4  GLY d 806      -3.289  10.745   4.323  0.00  0.00     0.025 C 
BRANCH  50  51
ATOM     51  C5  GLY d 806      -3.271   9.941   5.569  0.00  0.00     0.159 C 
BRANCH  51  52
ATOM     52  N2  GLY d 806      -1.938   9.639   6.013  0.00  0.00    -0.229 N 
ATOM     53  C6  GLY d 806      -1.622   9.512   7.391  0.00  0.00     0.239 C 
ATOM     54  C7  GLY d 806      -2.716   9.637   8.402  0.00  0.00     0.119 C 
ATOM     55  O3  GLY d 806      -0.481   9.246   7.735  0.00  0.00    -0.272 OA
BRANCH  52  56
ATOM     56  O2  GLY d 806      -0.979   9.524   5.144  0.00  0.00    -0.285 OA
ATOM     57  H45 GLY d 806      -0.324  10.193   5.306  0.00  0.00     0.245 HD
ENDBRANCH  52  56
ENDBRANCH  51  52
ENDBRANCH  50  51
ENDBRANCH  49  50
ENDBRANCH  22  49
TORSDOF 15
