REMARK  8 active torsions:
REMARK  status: ('A' for Active; 'I' for Inactive)
REMARK    1  A    between atoms: O9_1  and  C12_2 
REMARK    2  A    between atoms: C12_2  and  C11_3 
REMARK    3  A    between atoms: C10_4  and  O1_5 
REMARK    4  A    between atoms: C9_6  and  O8_7 
REMARK    5  A    between atoms: C8_8  and  O7_9 
REMARK    6  A    between atoms: N1_10  and  C13_12 
REMARK    7  A    between atoms: C13_12  and  C14_13 
REMARK    8  A    between atoms: C14_13  and  C15_14 
ROOT
ATOM      1  C11 NBV d          34.648  32.288   0.320  0.00  0.00     0.242 C 
ATOM      2  C10 NBV d          35.821  32.751   1.191  0.00  0.00     0.182 C 
ATOM      3  C9  NBV d          36.524  31.559   1.867  0.00  0.00     0.179 C 
ATOM      4  C8  NBV d          36.905  30.467   0.850  0.00  0.00     0.175 C 
ATOM      5  N1  NBV d          35.219  31.452  -0.742  0.00  0.00    -0.060 N 
ATOM      6  C7  NBV d          35.812  30.211  -0.182  0.00  0.00     0.269 C 
ATOM      7  H11 NBV d          35.992  31.969  -1.131  0.00  0.00     0.280 HD
ENDROOT
BRANCH   5   8
ATOM      8  C13 NBV d          34.261  31.275  -1.852  0.00  0.00     0.235 C 
BRANCH   8   9
ATOM      9  C14 NBV d          34.806  30.334  -2.939  0.00  0.00     0.027 C 
BRANCH   9  10
ATOM     10  C15 NBV d          34.139  30.673  -4.302  0.00  0.00    -0.003 C 
ATOM     11  C16 NBV d          34.590  29.720  -5.435  0.00  0.00     0.005 C 
ENDBRANCH   9  10
ENDBRANCH   8   9
ENDBRANCH   5   8
BRANCH   1  12
ATOM     12  C12 NBV d          33.839  33.489  -0.268  0.00  0.00     0.200 C 
BRANCH  12  13
ATOM     13  O9  NBV d          34.642  34.276  -1.195  0.00  0.00    -0.399 OA
ATOM     14  H1  NBV d          34.121  34.995  -1.532  0.00  0.00     0.209 HD
ENDBRANCH  12  13
ENDBRANCH   1  12
BRANCH   2  15
ATOM     15  O1  NBV d          35.412  33.746   2.178  0.00  0.00    -0.391 OA
ATOM     16  H6  NBV d          36.165  34.006   2.695  0.00  0.00     0.210 HD
ENDBRANCH   2  15
BRANCH   4  17
ATOM     17  O7  NBV d          37.131  29.271   1.600  0.00  0.00    -0.391 OA
ATOM     18  H10 NBV d          37.835  29.416   2.221  0.00  0.00     0.210 HD
ENDBRANCH   4  17
BRANCH   3  19
ATOM     19  O8  NBV d          37.738  31.971   2.503  0.00  0.00    -0.390 OA
ATOM     20  H8  NBV d          38.151  31.219   2.911  0.00  0.00     0.210 HD
ENDBRANCH   3  19
TORSDOF 8
