REMARK  23 active torsions:
REMARK  status: ('A' for Active; 'I' for Inactive)
REMARK    1  A    between atoms: CA1_2  and  N1_1 
REMARK    2  A    between atoms: CA1_2  and  C1_3 
REMARK    3  A    between atoms: CB1_6  and  CA1_2 
REMARK    4  A    between atoms: CG1_7  and  CB1_6 
REMARK    5  A    between atoms: CD1_8  and  CG1_7 
REMARK       I    between atoms: N2_10  and  CD1_8 
REMARK    6  A    between atoms: CA2_11  and  N2_10 
REMARK    7  A    between atoms: CA2_11  and  C2_12 
REMARK    8  A    between atoms: CB2_14  and  CA2_11 
REMARK       I    between atoms: C2_12  and  N3_16 
REMARK    9  A    between atoms: SG2_15  and  CB2_14 
REMARK   10  A    between atoms: SG5_31  and  SG2_15 
REMARK   11  A    between atoms: N3_16  and  CA3_17 
REMARK   12  A    between atoms: CA3_17  and  C3_18 
REMARK   13  A    between atoms: N4_21  and  CA4_22 
REMARK       I    between atoms: C5_26  and  N4_21 
REMARK   14  A    between atoms: CA4_22  and  C4_23 
REMARK   15  A    between atoms: CA5_28  and  C5_26 
REMARK   16  A    between atoms: N5_29  and  CA5_28 
REMARK   17  A    between atoms: CA5_28  and  CB5_30 
REMARK       I    between atoms: CD6_39  and  N5_29 
REMARK   18  A    between atoms: CB5_30  and  SG5_31 
REMARK   19  A    between atoms: CA6_32  and  C6_33 
REMARK   20  A    between atoms: CA6_32  and  N6_36 
REMARK   21  A    between atoms: CB6_37  and  CA6_32 
REMARK   22  A    between atoms: CG6_38  and  CB6_37 
REMARK   23  A    between atoms: CG6_38  and  CD6_39 
ROOT
ATOM      1  SG2 GDS d          33.442 102.292  30.886  0.00  0.00    -0.095 SA
ENDROOT
BRANCH   1   2
ATOM      2  CB2 GDS d          31.959 103.151  30.179  0.00  0.00     0.120 C 
BRANCH   2   3
ATOM      3  CA2 GDS d          32.145 103.289  28.619  0.00  0.00     0.186 C 
BRANCH   3   4
ATOM      4  N2  GDS d          30.854 103.768  28.099  0.00  0.00    -0.347 N 
ATOM      5  CD1 GDS d          30.699 105.018  27.550  0.00  0.00     0.218 C 
ATOM      6  O1  GDS d          31.654 105.795  27.446  0.00  0.00    -0.274 OA
ATOM      7  H9  GDS d          30.061 103.161  28.147  0.00  0.00     0.163 HD
BRANCH   5   8
ATOM      8  CG1 GDS d          29.289 105.342  27.098  0.00  0.00     0.105 C 
BRANCH   8   9
ATOM      9  CB1 GDS d          29.248 106.730  26.462  0.00  0.00     0.053 C 
BRANCH   9  10
ATOM     10  CA1 GDS d          27.836 106.986  25.868  0.00  0.00     0.283 C 
BRANCH  10  11
ATOM     11  N1  GDS d          27.895 108.190  25.011  0.00  0.00    -0.065 N 
ATOM     12  H1  GDS d          28.580 108.052  24.285  0.00  0.00     0.275 HD
ATOM     13  H2  GDS d          28.154 108.988  25.570  0.00  0.00     0.275 HD
ATOM     14  H3  GDS d          26.991 108.350  24.594  0.00  0.00     0.275 HD
ENDBRANCH  10  11
BRANCH  10  15
ATOM     15  C1  GDS d          26.802 107.164  26.984  0.00  0.00     0.204 C 
ATOM     16  OE1 GDS d          26.745 108.316  27.492  0.00  0.00    -0.646 OA
ATOM     17  OE2 GDS d          26.093 106.213  27.310  0.00  0.00    -0.646 OA
ENDBRANCH  10  15
ENDBRANCH   9  10
ENDBRANCH   8   9
ENDBRANCH   5   8
ENDBRANCH   3   4
BRANCH   3  18
ATOM     18  C2  GDS d          32.472 101.945  28.016  0.00  0.00     0.241 C 
ATOM     19  O2  GDS d          31.614 101.059  27.978  0.00  0.00    -0.271 OA
ATOM     20  N3  GDS d          33.721 101.756  27.557  0.00  0.00    -0.349 N 
ATOM     21  H13 GDS d          34.389 102.501  27.562  0.00  0.00     0.163 HD
BRANCH  20  22
ATOM     22  CA3 GDS d          34.077 100.430  27.049  0.00  0.00     0.235 C 
BRANCH  22  23
ATOM     23  C3  GDS d          34.383 100.337  25.583  0.00  0.00     0.191 C 
ATOM     24  OE3 GDS d          34.353 101.417  24.927  0.00  0.00    -0.647 OA
ATOM     25  OE4 GDS d          34.640  99.224  25.143  0.00  0.00    -0.647 OA
ENDBRANCH  22  23
ENDBRANCH  20  22
ENDBRANCH   3  18
ENDBRANCH   2   3
ENDBRANCH   1   2
BRANCH   1  26
ATOM     26  SG5 GDS d          34.641 103.793  31.635  0.00  0.00    -0.095 SA
BRANCH  26  27
ATOM     27  CB5 GDS d          35.439 104.561  30.172  0.00  0.00     0.120 C 
BRANCH  27  28
ATOM     28  CA5 GDS d          36.282 103.534  29.448  0.00  0.00     0.186 C 
BRANCH  28  29
ATOM     29  C5  GDS d          36.531 104.011  28.005  0.00  0.00     0.241 C 
ATOM     30  N4  GDS d          37.609 104.793  27.719  0.00  0.00    -0.349 N 
ATOM     31  H16 GDS d          38.231 105.074  28.450  0.00  0.00     0.163 HD
ATOM     32  O5  GDS d          35.694 103.699  27.150  0.00  0.00    -0.271 OA
BRANCH  30  33
ATOM     33  CA4 GDS d          37.859 105.226  26.328  0.00  0.00     0.235 C 
BRANCH  33  34
ATOM     34  C4  GDS d          37.088 106.474  25.897  0.00  0.00     0.191 C 
ATOM     35  OE5 GDS d          36.318 107.006  26.748  0.00  0.00    -0.647 OA
ATOM     36  OE6 GDS d          37.271 106.870  24.749  0.00  0.00    -0.647 OA
ENDBRANCH  33  34
ENDBRANCH  30  33
ENDBRANCH  28  29
BRANCH  28  37
ATOM     37  N5  GDS d          37.517 103.224  30.202  0.00  0.00    -0.347 N 
ATOM     38  CD6 GDS d          38.240 102.086  29.868  0.00  0.00     0.218 C 
ATOM     39  O6  GDS d          37.870 101.378  28.930  0.00  0.00    -0.274 OA
ATOM     40  H20 GDS d          37.826 103.824  30.940  0.00  0.00     0.163 HD
BRANCH  38  41
ATOM     41  CG6 GDS d          39.459 101.786  30.689  0.00  0.00     0.105 C 
BRANCH  41  42
ATOM     42  CB6 GDS d          39.207 100.437  31.404  0.00  0.00     0.053 C 
BRANCH  42  43
ATOM     43  CA6 GDS d          40.517 100.015  32.081  0.00  0.00     0.283 C 
BRANCH  43  44
ATOM     44  C6  GDS d          40.187  98.925  33.090  0.00  0.00     0.204 C 
ATOM     45  OE7 GDS d          39.309  99.210  33.951  0.00  0.00    -0.646 OA
ATOM     46  OE8 GDS d          40.794  97.858  33.012  0.00  0.00    -0.646 OA
ENDBRANCH  43  44
BRANCH  43  47
ATOM     47  N6  GDS d          41.497  99.547  31.076  0.00  0.00    -0.065 N 
ATOM     48  H24 GDS d          41.692 100.291  30.425  0.00  0.00     0.275 HD
ATOM     49  H25 GDS d          41.117  98.757  30.578  0.00  0.00     0.275 HD
ATOM     50  H26 GDS d          42.349  99.274  31.540  0.00  0.00     0.275 HD
ENDBRANCH  43  47
ENDBRANCH  42  43
ENDBRANCH  41  42
ENDBRANCH  38  41
ENDBRANCH  28  37
ENDBRANCH  27  28
ENDBRANCH  26  27
ENDBRANCH   1  26
TORSDOF 23
