REMARK  2 active torsions:
REMARK  status: ('A' for Active; 'I' for Inactive)
REMARK    1  A    between atoms: N_15  and  C7_18 
REMARK    2  A    between atoms: C10_21  and  C13_22 
REMARK       I    between atoms: C13_22  and  N1_23 
ROOT
ATOM      1  O1  MOL d           8.676 -12.362 -24.210  0.00  0.00    -0.292 OA
ATOM      2  C18 MOL d           7.505 -12.711 -24.304  0.00  0.00     0.162 C 
ATOM      3  C19 MOL d           7.167 -14.138 -24.677  0.00  0.00     0.093 C 
ATOM      4  C1  MOL d           5.901 -14.315 -25.532  0.00  0.00    -0.036 C 
ATOM      5  C20 MOL d           5.549 -15.797 -25.640  0.00  0.00     0.015 C 
ATOM      6  C   MOL d           6.138 -13.762 -26.942  0.00  0.00     0.015 C 
ATOM      7  C4  MOL d           6.390 -11.762 -24.105  0.00  0.00     0.041 A 
ATOM      8  C5  MOL d           6.296 -10.369 -23.739  0.00  0.00    -0.016 A 
ATOM      9  C16 MOL d           7.431  -9.433 -23.399  0.00  0.00     0.069 C 
ATOM     10  C15 MOL d           6.913  -7.995 -23.439  0.00  0.00     0.239 C 
ATOM     11  N2  MOL d           5.611  -7.811 -22.799  0.00  0.00    -0.069 N 
ATOM     12  C17 MOL d           5.238  -6.389 -22.771  0.00  0.00     0.270 C 
ATOM     13  C14 MOL d           4.580  -8.598 -23.471  0.00  0.00     0.292 C 
ATOM     14  C6  MOL d           4.970 -10.008 -23.788  0.00  0.00     0.050 A 
ATOM     15  N   MOL d           4.239 -11.118 -24.176  0.00  0.00    -0.316 N 
ATOM     16  C3  MOL d           5.102 -12.192 -24.374  0.00  0.00     0.032 A 
ATOM     17  C2  MOL d           4.745 -13.567 -24.855  0.00  0.00     0.067 C 
ATOM     18  H   MOL d           5.682  -8.136 -21.847  0.00  0.00     0.279 HD
ENDROOT
BRANCH  15  19
ATOM     19  C7  MOL d           2.810 -11.125 -24.394  0.00  0.00     0.039 A 
ATOM     20  C12 MOL d           2.228 -10.174 -25.238  0.00  0.00     0.031 A 
ATOM     21  C11 MOL d           0.859 -10.183 -25.452  0.00  0.00     0.019 A 
ATOM     22  C10 MOL d           0.046 -11.146 -24.849  0.00  0.00     0.032 A 
ATOM     23  C9  MOL d           0.633 -12.095 -24.008  0.00  0.00     0.019 A 
ATOM     24  C8  MOL d           2.002 -12.086 -23.772  0.00  0.00     0.031 A 
BRANCH  22  25
ATOM     25  C13 MOL d          -1.430 -11.155 -25.155  0.00  0.00     0.249 C 
ATOM     26  N1  MOL d          -2.248 -11.724 -24.276  0.00  0.00    -0.366 N 
ATOM     27  H   MOL d          -3.232 -11.746 -24.451  0.00  0.00     0.159 HD
ATOM     28  H   MOL d          -1.879 -12.130 -23.440  0.00  0.00     0.159 HD
ATOM     29  O   MOL d          -1.832 -10.650 -26.205  0.00  0.00    -0.268 OA
ENDBRANCH  22  25
ENDBRANCH  15  19
TORSDOF 2
