REMARK  13 active torsions:
REMARK  status: ('A' for Active; 'I' for Inactive)
REMARK    1  A    between atoms: CA_2  and  N_1 
REMARK    2  A    between atoms: P_3  and  CA_2 
REMARK    3  A    between atoms: CA_2  and  CB_6 
REMARK    4  A    between atoms: CM_13  and  P_3 
REMARK    5  A    between atoms: CB_6  and  CG_7 
REMARK    6  A    between atoms: CA_14  and  CM_13 
REMARK    7  A    between atoms: CA_14  and  CB_15 
REMARK    8  A    between atoms: C_22  and  CA_14 
REMARK    9  A    between atoms: CB_15  and  CG_16 
REMARK       I    between atoms: C_22  and  N_24 
REMARK   10  A    between atoms: N_24  and  CA_25 
REMARK   11  A    between atoms: CA_25  and  CB_28 
REMARK   12  A    between atoms: CA_25  and  C_26 
REMARK   13  A    between atoms: CB_28  and  CG_29 
ROOT
ATOM      1  CA  MOL d          36.600  41.958  -3.796  0.00  0.00     0.092 C 
ENDROOT
BRANCH   1   2
ATOM      2  CM  MOL d          35.586  41.313  -4.761  0.00  0.00     0.120 C 
BRANCH   2   3
ATOM      3  P   MOL d          35.270  42.192  -6.252  0.00  0.00     0.138 P 
ATOM      4  O1P MOL d          36.549  42.712  -6.837  0.00  0.00    -0.666 OA
ATOM      5  O2P MOL d          34.389  43.358  -6.040  0.00  0.00    -0.666 OA
BRANCH   3   6
ATOM      6  CA  MOL d          34.446  40.952  -7.110  0.00  0.00     0.278 C 
BRANCH   6   7
ATOM      7  N   MOL d          34.112  41.411  -8.477  0.00  0.00    -0.065 N 
ATOM      8  H1  MOL d          33.630  40.676  -8.970  0.00  0.00     0.275 HD
ATOM      9  H2  MOL d          34.960  41.645  -8.969  0.00  0.00     0.275 HD
ATOM     10  H3  MOL d          33.519  42.224  -8.423  0.00  0.00     0.275 HD
ENDBRANCH   6   7
BRANCH   6  11
ATOM     11  CB  MOL d          34.963  39.603  -7.390  0.00  0.00     0.082 C 
BRANCH  11  12
ATOM     12  CG  MOL d          33.901  38.647  -7.923  0.00  0.00    -0.056 A 
ATOM     13  CD1 MOL d          32.869  38.259  -7.056  0.00  0.00     0.007 A 
ATOM     14  CE1 MOL d          31.928  37.371  -7.586  0.00  0.00     0.001 A 
ATOM     15  CZ  MOL d          31.982  36.909  -8.893  0.00  0.00     0.000 A 
ATOM     16  CE2 MOL d          33.031  37.334  -9.682  0.00  0.00     0.001 A 
ATOM     17  CD2 MOL d          33.971  38.145  -9.205  0.00  0.00     0.007 A 
ENDBRANCH  11  12
ENDBRANCH   6  11
ENDBRANCH   3   6
ENDBRANCH   2   3
ENDBRANCH   1   2
BRANCH   1  18
ATOM     18  CB  MOL d          35.920  42.214  -2.440  0.00  0.00     0.053 C 
BRANCH  18  19
ATOM     19  CG  MOL d          36.760  42.929  -1.405  0.00  0.00    -0.057 A 
ATOM     20  CD1 MOL d          37.096  44.266  -1.552  0.00  0.00     0.007 A 
ATOM     21  CE1 MOL d          37.869  44.920  -0.613  0.00  0.00     0.001 A 
ATOM     22  CZ  MOL d          38.304  44.221   0.497  0.00  0.00     0.000 A 
ATOM     23  CE2 MOL d          37.977  42.884   0.655  0.00  0.00     0.001 A 
ATOM     24  CD2 MOL d          37.180  42.247  -0.275  0.00  0.00     0.007 A 
ENDBRANCH  18  19
ENDBRANCH   1  18
BRANCH   1  25
ATOM     25  C   MOL d          37.917  41.192  -3.618  0.00  0.00     0.223 C 
ATOM     26  O   MOL d          39.020  41.729  -3.660  0.00  0.00    -0.273 OA
ATOM     27  N   MOL d          37.772  39.908  -3.391  0.00  0.00    -0.346 N 
ATOM     28  H22 MOL d          36.815  39.626  -3.328  0.00  0.00     0.163 HD
BRANCH  27  29
ATOM     29  CA  MOL d          38.700  38.811  -3.212  0.00  0.00     0.189 C 
BRANCH  29  30
ATOM     30  CB  MOL d          38.170  37.951  -2.099  0.00  0.00     0.074 C 
BRANCH  30  31
ATOM     31  CG  MOL d          38.797  36.697  -1.586  0.00  0.00    -0.056 A 
ATOM     32  CD1 MOL d          40.065  36.693  -1.041  0.00  0.00     0.007 A 
ATOM     33  CE1 MOL d          40.657  35.548  -0.538  0.00  0.00     0.001 A 
ATOM     34  CZ  MOL d          39.947  34.361  -0.588  0.00  0.00     0.000 A 
ATOM     35  CE2 MOL d          38.674  34.340  -1.136  0.00  0.00     0.001 A 
ATOM     36  CD2 MOL d          38.099  35.496  -1.628  0.00  0.00     0.007 A 
ENDBRANCH  30  31
ENDBRANCH  29  30
BRANCH  29  37
ATOM     37  C   MOL d          38.780  38.054  -4.540  0.00  0.00     0.197 C 
ATOM     38  O   MOL d          37.713  37.766  -5.113  0.00  0.00    -0.646 OA
ATOM     39  OXT MOL d          39.887  37.769  -4.990  0.00  0.00    -0.646 OA
ENDBRANCH  29  37
ENDBRANCH  27  29
ENDBRANCH   1  25
TORSDOF 13
