REMARK  4 active torsions:
REMARK  status: ('A' for Active; 'I' for Inactive)
REMARK    1  A    between atoms: O4_1  and  C4_2 
REMARK    2  A    between atoms: C3_3  and  O3_5 
REMARK    3  A    between atoms: C5_4  and  C6_13 
REMARK    4  A    between atoms: C6_13  and  O6_14 
ROOT
ATOM      1  C4  NGW d         -32.690 -22.550 -52.967  0.00  0.00     0.180 C 
ATOM      2  C3  NGW d         -31.736 -22.296 -54.122  0.00  0.00     0.183 C 
ATOM      3  C5  NGW d         -33.140 -24.003 -52.978  0.00  0.00     0.178 C 
ATOM      4  C2  NGW d         -32.410 -22.643 -55.480  0.00  0.00     0.257 C 
ATOM      5  N2  NGW d         -31.429 -22.680 -56.589  0.00  0.00    -0.052 N 
ATOM      6  C1  NGW d         -33.072 -24.047 -55.460  0.00  0.00     0.218 C 
ATOM      7  C7  NGW d         -30.510 -23.816 -56.348  0.00  0.00     0.246 C 
ATOM      8  C8  NGW d         -29.736 -24.180 -57.623  0.00  0.00     0.052 C 
ATOM      9  S1  NGW d         -31.627 -25.138 -55.786  0.00  0.00    -0.102 SA
ATOM     10  O5  NGW d         -33.814 -24.372 -54.212  0.00  0.00    -0.363 OA
ATOM     11  H7  NGW d         -30.908 -21.818 -56.614  0.00  0.00     0.279 HD
ATOM     12  H8  NGW d         -31.909 -22.808 -57.466  0.00  0.00     0.279 HD
ENDROOT
BRANCH   3  13
ATOM     13  C6  NGW d         -34.153 -24.297 -51.856  0.00  0.00     0.198 C 
BRANCH  13  14
ATOM     14  O6  NGW d         -35.300 -23.460 -51.999  0.00  0.00    -0.398 OA
ATOM     15  H16 NGW d         -35.709 -23.626 -52.840  0.00  0.00     0.209 HD
ENDBRANCH  13  14
ENDBRANCH   3  13
BRANCH   1  16
ATOM     16  O4  NGW d         -31.998 -22.253 -51.756  0.00  0.00    -0.390 OA
ATOM     17  H1  NGW d         -31.724 -21.343 -51.764  0.00  0.00     0.210 HD
ENDBRANCH   1  16
BRANCH   2  18
ATOM     18  O3  NGW d         -31.280 -20.930 -54.071  0.00  0.00    -0.391 OA
ATOM     19  H5  NGW d         -30.831 -20.778 -53.248  0.00  0.00     0.210 HD
ENDBRANCH   2  18
TORSDOF 4
