REMARK  5 active torsions:
REMARK  status: ('A' for Active; 'I' for Inactive)
REMARK    1  A    between atoms: C1_2  and  C2_4 
REMARK    2  A    between atoms: C2_4  and  O3_5 
REMARK    3  A    between atoms: C2_4  and  C3_6 
REMARK    4  A    between atoms: C3_6  and  C6_9 
REMARK    5  A    between atoms: C6_9  and  O4_10 
ROOT
ATOM      1  C2  PAF d          11.063 -11.932  -1.996  0.00  0.00     0.228 C 
ENDROOT
BRANCH   1   2
ATOM      2  C1  PAF d          10.221 -11.900  -0.723  0.00  0.00     0.203 C 
ATOM      3  O1  PAF d          10.797 -12.262   0.324  0.00  0.00    -0.646 OA
ATOM      4  O2  PAF d           9.058 -11.429  -0.809  0.00  0.00    -0.646 OA
ENDBRANCH   1   2
BRANCH   1   5
ATOM      5  O3  PAF d          10.893 -10.678  -2.685  0.00  0.00    -0.384 OA
ATOM      6  H2  PAF d           9.976 -10.560  -2.904  0.00  0.00     0.210 HD
ENDBRANCH   1   5
BRANCH   1   7
ATOM      7  C3  PAF d          10.781 -13.124  -2.929  0.00  0.00     0.009 C 
ATOM      8  C4  PAF d          11.014 -14.447  -2.154  0.00  0.00     0.020 C 
ATOM      9  C5  PAF d           9.314 -13.057  -3.509  0.00  0.00     0.020 C 
BRANCH   7  10
ATOM     10  C6  PAF d          11.724 -13.027  -4.161  0.00  0.00     0.176 C 
BRANCH  10  11
ATOM     11  O4  PAF d          13.143 -12.954  -3.801  0.00  0.00    -0.400 OA
ATOM     12  H11 PAF d          13.667 -12.897  -4.592  0.00  0.00     0.209 HD
ENDBRANCH  10  11
ENDBRANCH   7  10
ENDBRANCH   1   7
TORSDOF 5
