REMARK  9 active torsions:
REMARK  status: ('A' for Active; 'I' for Inactive)
REMARK    1  A    between atoms: CAE_7  and  OAH_8 
REMARK    2  A    between atoms: OAH_8  and  CAI_9 
REMARK    3  A    between atoms: CAL_14  and  OAO_15 
REMARK    4  A    between atoms: OAO_15  and  CAP_16 
REMARK    5  A    between atoms: CAP_16  and  CAQ_17 
REMARK    6  A    between atoms: NAU_21  and  CAV_22 
REMARK    7  A    between atoms: CAV_22  and  CAW_23 
REMARK    8  A    between atoms: CAW_23  and  CAX_24 
REMARK    9  A    between atoms: CAX_24  and  CAY_25 
ROOT
ATOM      1  CAI MOL d          26.583  86.935  -0.225  0.00  0.00     0.076 A 
ATOM      2  CAN MOL d          27.731  86.939  -1.030  0.00  0.00     0.040 A 
ATOM      3  CAM MOL d          28.966  86.583  -0.451  0.00  0.00     0.039 A 
ATOM      4  CAJ MOL d          26.665  86.609   1.121  0.00  0.00     0.040 A 
ATOM      5  CAK MOL d          27.889  86.266   1.701  0.00  0.00     0.039 A 
ATOM      6  CAL MOL d          29.044  86.241   0.907  0.00  0.00     0.069 A 
ENDROOT
BRANCH   6   7
ATOM      7  OAO MOL d          30.215  85.898   1.510  0.00  0.00    -0.349 OA
BRANCH   7   8
ATOM      8  CAP MOL d          31.199  85.334   0.658  0.00  0.00     0.208 C 
BRANCH   8   9
ATOM      9  CAQ MOL d          32.080  84.714   1.738  0.00  0.00     0.212 C 
ATOM     10  CAR MOL d          32.738  85.780   2.602  0.00  0.00     0.037 C 
ATOM     11  CAS MOL d          34.070  85.158   2.939  0.00  0.00     0.030 C 
ATOM     12  CAT MOL d          34.449  84.473   1.647  0.00  0.00     0.235 C 
ATOM     13  NAU MOL d          33.183  83.861   1.213  0.00  0.00    -0.065 N 
ATOM     14  H18 MOL d          33.102  82.951   1.639  0.00  0.00     0.280 HD
BRANCH  13  15
ATOM     15  CAV MOL d          33.161  83.665  -0.232  0.00  0.00     0.236 C 
BRANCH  15  16
ATOM     16  CAW MOL d          33.816  82.329  -0.497  0.00  0.00     0.038 C 
BRANCH  16  17
ATOM     17  CAX MOL d          35.217  82.570  -1.057  0.00  0.00     0.115 C 
BRANCH  17  18
ATOM     18  CAY MOL d          35.182  83.063  -2.490  0.00  0.00     0.172 C 
ATOM     19  OBA MOL d          34.168  82.777  -3.180  0.00  0.00    -0.648 OA
ATOM     20  OAZ MOL d          36.198  83.655  -2.883  0.00  0.00    -0.648 OA
ENDBRANCH  17  18
ENDBRANCH  16  17
ENDBRANCH  15  16
ENDBRANCH  13  15
ENDBRANCH   8   9
ENDBRANCH   7   8
ENDBRANCH   6   7
BRANCH   1  21
ATOM     21  OAH MOL d          25.373  87.303  -0.706  0.00  0.00    -0.311 OA
BRANCH  21  22
ATOM     22  CAE MOL d          24.844  86.623  -1.737  0.00  0.00     0.076 A 
ATOM     23  CAD MOL d          24.586  87.333  -2.899  0.00  0.00     0.039 A 
ATOM     24  CAC MOL d          24.021  86.665  -3.977  0.00  0.00     0.026 A 
ATOM     25  CAB MOL d          23.739  85.313  -3.861  0.00  0.00     0.034 A 
ATOM     26 CLAG MOL d          23.074  84.520  -5.214  0.00  0.00    -0.084 Cl
ATOM     27  CAA MOL d          23.991  84.589  -2.702  0.00  0.00     0.026 A 
ATOM     28  CAF MOL d          24.547  85.256  -1.618  0.00  0.00     0.039 A 
ENDBRANCH  21  22
ENDBRANCH   1  21
TORSDOF 9
