REMARK  2 active torsions:
REMARK  status: ('A' for Active; 'I' for Inactive)
REMARK    1  A    between atoms: C8_6  and  N5_18 
REMARK    2  A    between atoms: C17_11  and  C12_7 
ROOT
ATOM      1  C8  MOL d         219.089   3.268  26.814  0.00  0.00     0.032 A 
ATOM      2  C12 MOL d         216.912   3.786  22.921  0.00  0.00     0.147 A 
ATOM      3  N13 MOL d         217.725   4.811  23.245  0.00  0.00    -0.228 NA
ATOM      4  C15 MOL d         219.181   5.131  25.266  0.00  0.00     0.036 A 
ATOM      5  C16 MOL d         219.580   4.519  26.451  0.00  0.00     0.032 A 
ATOM      6  C9  MOL d         218.182   2.583  26.006  0.00  0.00     0.061 A 
ATOM      7  C10 MOL d         217.753   3.150  24.801  0.00  0.00     0.065 A 
ATOM      8  N11 MOL d         216.925   2.766  23.811  0.00  0.00    -0.338 N 
ATOM      9  C14 MOL d         218.284   4.483  24.426  0.00  0.00     0.086 A 
ATOM     10  H18 MOL d         216.407   1.878  23.744  0.00  0.00     0.167 HD
ENDROOT
BRANCH   2  11
ATOM     11  C17 MOL d         216.074   3.623  21.703  0.00  0.00     0.105 A 
ATOM     12  C18 MOL d         216.191   4.636  20.623  0.00  0.00     0.061 A 
ATOM     13  N19 MOL d         217.049   5.669  20.756  0.00  0.00    -0.397 N 
ATOM     14  C20 MOL d         215.358   4.443  19.402  0.00  0.00     0.057 A 
ATOM     15  H19 MOL d         217.607   5.767  21.616  0.00  0.00     0.156 HD
ATOM     16  H20 MOL d         217.146   6.359  19.997  0.00  0.00     0.156 HD
ATOM     17  C21 MOL d         215.396   5.359  18.237  0.00  0.00     0.131 A 
ATOM     18  C26 MOL d         214.437   3.282  19.352  0.00  0.00     0.050 A 
ATOM     19  C23 MOL d         214.577   5.089  17.133  0.00  0.00     0.043 A 
ATOM     20  F22 MOL d         216.212   6.434  18.260  0.00  0.00    -0.205 F 
ATOM     21  C24 MOL d         213.721   3.983  17.136  0.00  0.00     0.005 A 
ATOM     22  C25 MOL d         213.650   3.091  18.212  0.00  0.00     0.030 A 
ATOM     23  N27 MOL d         214.393   2.414  20.375  0.00  0.00    -0.322 N 
ATOM     24  C28 MOL d         215.103   2.520  21.518  0.00  0.00     0.262 A 
ATOM     25  H22 MOL d         213.785   1.625  20.283  0.00  0.00     0.169 HD
ATOM     26  O29 MOL d         214.960   1.650  22.411  0.00  0.00    -0.267 OA
ENDBRANCH   2  11
BRANCH   1  27
ATOM     27  N5  MOL d         219.522   2.694  28.015  0.00  0.00    -0.378 N 
ATOM     28  C4  MOL d         220.923   2.301  28.123  0.00  0.00     0.150 C 
ATOM     29  C3  MOL d         221.413   2.758  29.491  0.00  0.00     0.254 C 
ATOM     30  N2  MOL d         220.535   2.203  30.529  0.00  0.00    -0.072 N 
ATOM     31  C1  MOL d         221.120   2.458  31.853  0.00  0.00     0.269 C 
ATOM     32  C7  MOL d         219.226   2.859  30.415  0.00  0.00     0.254 C 
ATOM     33  H16 MOL d         220.430   1.210  30.394  0.00  0.00     0.279 HD
ATOM     34  C6  MOL d         218.562   2.475  29.097  0.00  0.00     0.150 C 
ENDBRANCH   1  27
TORSDOF 2
