REMARK  2 active torsions:
REMARK  status: ('A' for Active; 'I' for Inactive)
REMARK    1  A    between atoms: C5_7  and  S1_12 
REMARK    2  A    between atoms: S1_12  and  N2_15 
ROOT
ATOM      1  O1  HFS d           3.214  10.101   5.001  0.00  0.00    -0.267 OA
ATOM      2  C1  HFS d           3.929  10.053   4.008  0.00  0.00     0.256 A 
ATOM      3  N1  HFS d           3.418   9.896   2.691  0.00  0.00    -0.333 N 
ATOM      4  C2  HFS d           4.171   9.723   1.513  0.00  0.00     0.092 A 
ATOM      5  C3  HFS d           5.628   9.686   1.610  0.00  0.00     0.031 A 
ATOM      6  C4  HFS d           6.270   9.829   2.930  0.00  0.00     0.004 A 
ATOM      7  C5  HFS d           7.784   9.751   3.120  0.00  0.00     0.090 A 
ATOM      8  C6  HFS d           8.348   9.882   4.476  0.00  0.00     0.026 A 
ATOM      9  C7  HFS d           7.488  10.090   5.635  0.00  0.00     0.003 A 
ATOM     10  C8  HFS d           6.026  10.162   5.488  0.00  0.00     0.018 A 
ATOM     11  C9  HFS d           5.405  10.029   4.180  0.00  0.00     0.044 A 
ATOM     12  H1  HFS d           2.423   9.910   2.590  0.00  0.00     0.168 HD
ENDROOT
BRANCH   7  13
ATOM     13  S1  HFS d           8.984   9.480   1.798  0.00  0.00     0.261 S 
ATOM     14  O2  HFS d           8.693   8.259   1.089  0.00  0.00    -0.200 OA
ATOM     15  O3  HFS d           9.052  10.684   1.004  0.00  0.00    -0.200 OA
BRANCH  13  16
ATOM     16  N2  HFS d          10.627   9.153   2.463  0.00  0.00    -0.305 N 
ATOM     17  C10 HFS d          11.500  10.178   3.111  0.00  0.00     0.137 C 
ATOM     18  C11 HFS d          12.705  10.475   2.223  0.00  0.00     0.048 C 
ATOM     19  C12 HFS d          13.705   9.315   2.228  0.00  0.00     0.234 C 
ATOM     20  N3  HFS d          13.175   8.111   1.549  0.00  0.00    -0.074 N 
ATOM     21  C13 HFS d          12.406   7.295   2.517  0.00  0.00     0.252 C 
ATOM     22  H13 HFS d          13.941   7.566   1.185  0.00  0.00     0.277 HD
ATOM     23  H14 HFS d          12.572   8.391   0.792  0.00  0.00     0.277 HD
ATOM     24  C14 HFS d          10.979   7.752   2.826  0.00  0.00     0.163 C 
ENDBRANCH  13  16
ENDBRANCH   7  13
TORSDOF 2
