REMARK  7 active torsions:
REMARK  status: ('A' for Active; 'I' for Inactive)
REMARK    1  A    between atoms: C2_2  and  C3_3 
REMARK    2  A    between atoms: C3_3  and  C4_4 
REMARK    3  A    between atoms: C3_3  and  O3_7 
REMARK    4  A    between atoms: C4_4  and  C5_5 
REMARK    5  A    between atoms: C4_4  and  O4_8 
REMARK    6  A    between atoms: C5_5  and  O5_9 
REMARK    7  A    between atoms: O5_9  and  P_10 
ROOT
ATOM      1  C4  DXP d          30.712   2.956  35.727  0.00  0.00     0.178 C 
ENDROOT
BRANCH   1   2
ATOM      2  C3  DXP d          30.126   2.034  34.909  0.00  0.00     0.217 C 
BRANCH   2   3
ATOM      3  C2  DXP d          29.349   0.864  35.091  0.00  0.00     0.154 C 
ATOM      4  C1  DXP d          28.428   0.880  36.334  0.00  0.00     0.093 C 
ATOM      5  O2  DXP d          29.382  -0.077  34.310  0.00  0.00    -0.295 OA
ENDBRANCH   2   3
BRANCH   2   6
ATOM      6  O3  DXP d          29.447   2.724  34.076  0.00  0.00    -0.385 OA
ATOM      7  H8  DXP d          30.029   3.302  33.597  0.00  0.00     0.210 HD
ENDBRANCH   2   6
ENDBRANCH   1   2
BRANCH   1   8
ATOM      8  C5  DXP d          32.143   2.518  35.832  0.00  0.00     0.217 C 
BRANCH   8   9
ATOM      9  O5  DXP d          33.162   3.464  36.113  0.00  0.00    -0.280 OA
BRANCH   9  10
ATOM     10  P   DXP d          34.606   3.198  36.256  0.00  0.00     0.422 P 
ATOM     11  O2P DXP d          35.257   4.579  36.573  0.00  0.00    -0.617 OA
ATOM     12  O1P DXP d          35.011   2.526  34.863  0.00  0.00    -0.617 OA
ATOM     13  O3P DXP d          34.621   2.185  37.515  0.00  0.00    -0.617 OA
ENDBRANCH   9  10
ENDBRANCH   8   9
ENDBRANCH   1   8
BRANCH   1  14
ATOM     14  O4  DXP d          30.849   4.352  35.348  0.00  0.00    -0.390 OA
ATOM     15  H9  DXP d          31.332   4.816  36.022  0.00  0.00     0.210 HD
ENDBRANCH   1  14
TORSDOF 7
