REMARK  10 active torsions:
REMARK  status: ('A' for Active; 'I' for Inactive)
REMARK    1  A    between atoms: C6_5  and  C7_6 
REMARK       I    between atoms: N_21  and  C6_5 
REMARK    2  A    between atoms: C16_30  and  O5_9 
REMARK    3  A    between atoms: C10_10  and  C13_14 
REMARK    4  A    between atoms: C17_29  and  O6_11 
REMARK    5  A    between atoms: C18_28  and  O7_15 
REMARK    6  A    between atoms: C14_16  and  O_27 
REMARK    7  A    between atoms: C19_31  and  O8_17 
REMARK    8  A    between atoms: C15_18  and  C19_31 
REMARK    9  A    between atoms: C3_22  and  N_21 
REMARK   10  A    between atoms: O_27  and  C_26 
ROOT
ATOM      1  C4  MOL d          -6.708  46.712 -11.104  0.00  0.00     0.056 A 
ATOM      2  C5  MOL d          -5.424  46.483 -10.646  0.00  0.00     0.069 A 
ATOM      3  C3  MOL d          -7.042  47.979 -11.617  0.00  0.00     0.036 A 
ATOM      4  C2  MOL d          -6.073  48.956 -11.647  0.00  0.00     0.032 A 
ATOM      5  C1  MOL d          -4.813  48.712 -11.186  0.00  0.00     0.041 A 
ATOM      6 CL   MOL d          -5.009  44.922 -10.083  0.00  0.00    -0.081 Cl
ATOM      7  C   MOL d          -4.470  47.470 -10.673  0.00  0.00     0.094 A 
ENDROOT
BRANCH   7   8
ATOM      8  O   MOL d          -3.213  47.126 -10.217  0.00  0.00    -0.316 OA
BRANCH   8   9
ATOM      9  C14 MOL d          -2.284  48.109  -9.956  0.00  0.00     0.298 C 
ATOM     10  O4  MOL d          -2.729  49.084  -9.067  0.00  0.00    -0.348 OA
ATOM     11  C15 MOL d          -3.061  48.535  -7.787  0.00  0.00     0.179 C 
ATOM     12  C16 MOL d          -1.869  47.832  -7.181  0.00  0.00     0.180 C 
ATOM     13  C17 MOL d          -1.239  46.846  -8.113  0.00  0.00     0.183 C 
ATOM     14  C18 MOL d          -1.044  47.450  -9.452  0.00  0.00     0.205 C 
BRANCH  11  15
ATOM     15  C19 MOL d          -3.619  49.671  -6.964  0.00  0.00     0.198 C 
BRANCH  15  16
ATOM     16  O8  MOL d          -2.656  50.708  -6.817  0.00  0.00    -0.398 OA
ATOM     17  H10 MOL d          -3.027  51.411  -6.297  0.00  0.00     0.209 HD
ENDBRANCH  15  16
ENDBRANCH  11  15
BRANCH  12  18
ATOM     18  O5  MOL d          -2.181  47.259  -5.955  0.00  0.00    -0.390 OA
ATOM     19  H4  MOL d          -2.467  47.937  -5.354  0.00  0.00     0.210 HD
ENDBRANCH  12  18
BRANCH  13  20
ATOM     20  O6  MOL d          -0.090  46.264  -7.579  0.00  0.00    -0.390 OA
ATOM     21  H5  MOL d           0.212  45.573  -8.157  0.00  0.00     0.210 HD
ENDBRANCH  13  20
BRANCH  14  22
ATOM     22  O7  MOL d          -0.002  48.396  -9.424  0.00  0.00    -0.388 OA
ATOM     23  H8  MOL d           0.791  47.983  -9.104  0.00  0.00     0.210 HD
ENDBRANCH  14  22
ENDBRANCH   8   9
ENDBRANCH   7   8
BRANCH   3  24
ATOM     24  N   MOL d          -8.350  48.298 -12.030  0.00  0.00    -0.323 N 
ATOM     25  C6  MOL d          -9.477  47.490 -12.161  0.00  0.00     0.256 C 
ATOM     26  O1  MOL d          -9.390  46.347 -11.976  0.00  0.00    -0.267 OA
ATOM     27  H12 MOL d          -8.493  49.259 -12.267  0.00  0.00     0.169 HD
BRANCH  25  28
ATOM     28  C7  MOL d         -10.738  48.114 -12.607  0.00  0.00     0.032 A 
ATOM     29  C8  MOL d         -11.435  47.451 -13.633  0.00  0.00     0.018 A 
ATOM     30  C9  MOL d         -12.687  47.893 -14.033  0.00  0.00     0.019 A 
ATOM     31  C10 MOL d         -13.255  48.994 -13.424  0.00  0.00     0.040 A 
ATOM     32  C11 MOL d         -12.557  49.666 -12.406  0.00  0.00     0.019 A 
ATOM     33  C12 MOL d         -11.297  49.238 -12.007  0.00  0.00     0.018 A 
BRANCH  31  34
ATOM     34  C13 MOL d         -14.637  49.483 -13.897  0.00  0.00     0.209 C 
ATOM     35  O3  MOL d         -15.118  50.497 -13.342  0.00  0.00    -0.644 OA
ATOM     36  O2  MOL d         -15.177  48.832 -14.821  0.00  0.00    -0.644 OA
ENDBRANCH  31  34
ENDBRANCH  25  28
ENDBRANCH   3  24
TORSDOF 10
