REMARK  8 active torsions:
REMARK  status: ('A' for Active; 'I' for Inactive)
REMARK    1  A    between atoms: C1'_11  and  N1_1 
REMARK    2  A    between atoms: C3'_26  and  O1_2 
REMARK    3  A    between atoms: N2_4  and  C17_12 
REMARK    4  A    between atoms: C5'_35  and  N2_4 
REMARK    5  A    between atoms: C17_12  and  C18_13 
REMARK    6  A    between atoms: C17_12  and  C24_20 
REMARK    7  A    between atoms: C17_12  and  C30_27 
REMARK    8  A    between atoms: C4'_33  and  C5'_35 
ROOT
ATOM      1  N2  DUA d          -9.246  26.977  -3.914  0.00  0.00    -0.051 N 
ATOM      2  H2  DUA d          -9.020  25.999  -3.819  0.00  0.00     0.279 HD
ATOM      3  H3  DUA d         -10.247  27.089  -3.953  0.00  0.00     0.279 HD
ENDROOT
BRANCH   1   4
ATOM      4  C17 DUA d          -8.714  27.421  -5.176  0.00  0.00     0.207 C 
BRANCH   4   5
ATOM      5  C18 DUA d          -9.534  26.438  -6.087  0.00  0.00    -0.013 A 
ATOM      6  C19 DUA d         -10.833  26.001  -5.715  0.00  0.00     0.010 A 
ATOM      7  C20 DUA d         -11.609  25.137  -6.542  0.00  0.00     0.001 A 
ATOM      8  C21 DUA d         -11.141  24.646  -7.760  0.00  0.00     0.000 A 
ATOM      9  C22 DUA d          -9.859  25.072  -8.151  0.00  0.00     0.001 A 
ATOM     10  C23 DUA d          -9.112  25.946  -7.337  0.00  0.00     0.010 A 
ENDBRANCH   4   5
BRANCH   4  11
ATOM     11  C24 DUA d          -7.260  27.237  -5.373  0.00  0.00    -0.013 A 
ATOM     12  C25 DUA d          -6.292  28.218  -5.675  0.00  0.00     0.010 A 
ATOM     13  C26 DUA d          -4.929  27.920  -5.698  0.00  0.00     0.001 A 
ATOM     14  C27 DUA d          -4.507  26.634  -5.430  0.00  0.00     0.000 A 
ATOM     15  C28 DUA d          -5.438  25.650  -5.113  0.00  0.00     0.001 A 
ATOM     16  C29 DUA d          -6.798  25.940  -5.060  0.00  0.00     0.010 A 
ENDBRANCH   4  11
BRANCH   4  17
ATOM     17  C30 DUA d          -9.199  28.766  -5.710  0.00  0.00    -0.013 A 
ATOM     18  C31 DUA d          -9.386  29.814  -4.800  0.00  0.00     0.010 A 
ATOM     19  C32 DUA d          -9.845  31.078  -5.194  0.00  0.00     0.001 A 
ATOM     20  C33 DUA d         -10.115  31.364  -6.539  0.00  0.00     0.000 A 
ATOM     21  C34 DUA d          -9.917  30.379  -7.498  0.00  0.00     0.001 A 
ATOM     22  C35 DUA d          -9.434  29.121  -7.062  0.00  0.00     0.010 A 
ENDBRANCH   4  17
ENDBRANCH   1   4
BRANCH   1  23
ATOM     23  C5' DUA d          -8.767  27.668  -2.681  0.00  0.00     0.268 C 
BRANCH  23  24
ATOM     24  C4' DUA d          -8.812  26.891  -1.345  0.00  0.00     0.178 C 
ATOM     25  C3' DUA d          -8.115  27.572  -0.151  0.00  0.00     0.153 C 
ATOM     26  C2' DUA d          -7.403  26.502   0.723  0.00  0.00     0.088 C 
ATOM     27  C1' DUA d          -6.996  25.797  -0.518  0.00  0.00     0.235 C 
ATOM     28  O4' DUA d          -8.078  25.684  -1.446  0.00  0.00    -0.357 OA
BRANCH  25  29
ATOM     29  O1  DUA d          -9.041  28.375   0.565  0.00  0.00    -0.393 OA
ATOM     30  H1  DUA d          -9.437  29.004  -0.027  0.00  0.00     0.210 HD
ENDBRANCH  25  29
BRANCH  27  31
ATOM     31  N1  DUA d          -5.652  25.722  -1.016  0.00  0.00    -0.282 N 
ATOM     32  C2  DUA d          -5.156  24.572  -1.628  0.00  0.00     0.331 A 
ATOM     33  O2  DUA d          -5.861  23.575  -1.630  0.00  0.00    -0.246 OA
ATOM     34  N3  DUA d          -3.933  24.557  -2.175  0.00  0.00    -0.275 N 
ATOM     35  C4  DUA d          -3.182  25.663  -2.141  0.00  0.00     0.250 A 
ATOM     36  H4  DUA d          -3.584  23.725  -2.606  0.00  0.00     0.173 HD
ATOM     37  O4  DUA d          -2.068  25.652  -2.666  0.00  0.00    -0.268 OA
ATOM     38  C5  DUA d          -3.651  26.856  -1.558  0.00  0.00     0.092 A 
ATOM     39  C6  DUA d          -4.926  26.874  -0.996  0.00  0.00     0.104 A 
ENDBRANCH  27  31
ENDBRANCH  23  24
ENDBRANCH   1  23
TORSDOF 8
