REMARK  7 active torsions:
REMARK  status: ('A' for Active; 'I' for Inactive)
REMARK    1  A    between atoms: N10_13  and  C11_3 
REMARK    2  A    between atoms: C7_4  and  N14_14 
REMARK    3  A    between atoms: N14_14  and  C15_15 
REMARK    4  A    between atoms: C19_19  and  O21_21 
REMARK    5  A    between atoms: O21_21  and  C22_22 
REMARK    6  A    between atoms: C22_22  and  C23_23 
REMARK    7  A    between atoms: C23_23  and  S26_26 
ROOT
ATOM      1  C15 MOL d         -56.160   1.208 -25.797  0.00  0.00     0.134 A 
ATOM      2  C16 MOL d         -57.213   1.160 -26.744  0.00  0.00     0.070 A 
ATOM      3  C17 MOL d         -57.107   0.209 -27.775  0.00  0.00     0.125 A 
ATOM      4  N18 MOL d         -56.025  -0.606 -27.856  0.00  0.00    -0.219 NA
ATOM      5  C19 MOL d         -55.079  -0.533 -26.917  0.00  0.00     0.270 A 
ATOM      6  N20 MOL d         -55.137   0.375 -25.949  0.00  0.00    -0.189 NA
ENDROOT
BRANCH   1   7
ATOM      7  N14 MOL d         -56.143   2.063 -24.705  0.00  0.00    -0.325 N 
ATOM      8  H13 MOL d         -56.648   2.957 -24.791  0.00  0.00     0.169 HD
BRANCH   7   9
ATOM      9  C7  MOL d         -55.483   1.798 -23.480  0.00  0.00     0.131 A 
ATOM     10  C8  MOL d         -54.494   0.809 -23.350  0.00  0.00     0.082 A 
ATOM     11  C9  MOL d         -53.887   0.584 -22.108  0.00  0.00     0.070 A 
ATOM     12  C4  MOL d         -54.269   1.393 -21.015  0.00  0.00     0.103 A 
ATOM     13  N10 MOL d         -52.932  -0.292 -21.626  0.00  0.00    -0.329 N 
ATOM     14  C5  MOL d         -55.237   2.387 -21.228  0.00  0.00     0.153 A 
ATOM     15  N3  MOL d         -53.540   0.972 -19.947  0.00  0.00    -0.232 NA
ATOM     16  N6  MOL d         -55.798   2.548 -22.419  0.00  0.00    -0.241 NA
ATOM     17  C2  MOL d         -52.750  -0.006 -20.289  0.00  0.00     0.103 A 
ATOM     18  C1  MOL d         -51.803  -0.669 -19.307  0.00  0.00     0.091 C 
BRANCH  13  19
ATOM     19  C11 MOL d         -52.258  -1.276 -22.491  0.00  0.00     0.083 C 
ATOM     20  C12 MOL d         -52.697  -2.729 -22.360  0.00  0.00     0.032 C 
ATOM     21  C13 MOL d         -50.816  -0.972 -22.906  0.00  0.00     0.032 C 
ENDBRANCH  13  19
ENDBRANCH   7   9
ENDBRANCH   1   7
BRANCH   5  22
ATOM     22  O21 MOL d         -53.914  -1.209 -26.940  0.00  0.00    -0.317 OA
BRANCH  22  23
ATOM     23  C22 MOL d         -53.785  -2.597 -27.158  0.00  0.00     0.203 C 
BRANCH  23  24
ATOM     24  C23 MOL d         -52.344  -2.872 -27.579  0.00  0.00     0.078 C 
ATOM     25  C24 MOL d         -51.379  -2.798 -26.389  0.00  0.00     0.034 C 
ATOM     26  C25 MOL d         -52.407  -4.334 -28.024  0.00  0.00     0.034 C 
BRANCH  24  27
ATOM     27  S26 MOL d         -51.784  -1.755 -28.928  0.00  0.00     0.150 S 
ATOM     28  O27 MOL d         -52.829  -1.552 -29.871  0.00  0.00    -0.227 OA
ATOM     29  O28 MOL d         -50.555  -2.250 -29.416  0.00  0.00    -0.227 OA
ATOM     30  C29 MOL d         -51.492  -0.130 -28.222  0.00  0.00     0.162 C 
ENDBRANCH  24  27
ENDBRANCH  23  24
ENDBRANCH  22  23
ENDBRANCH   5  22
TORSDOF 7
