REMARK  9 active torsions:
REMARK  status: ('A' for Active; 'I' for Inactive)
REMARK    1  A    between atoms: C3_3  and  C7_7 
REMARK    2  A    between atoms: C8_8  and  C5_5 
REMARK    3  A    between atoms: C17_17  and  C8_8 
REMARK    4  A    between atoms: C18_18  and  C17_17 
REMARK    5  A    between atoms: C17_17  and  C19_19 
REMARK       I    between atoms: N25_25  and  C18_18 
REMARK    6  A    between atoms: C19_19  and  C20_20 
REMARK       I    between atoms: C20_20  and  N22_22 
REMARK    7  A    between atoms: N22_22  and  O23_23 
REMARK    8  A    between atoms: C26_26  and  N25_25 
REMARK    9  A    between atoms: C28_28  and  O29_29 
ROOT
ATOM      1  C17 LA3 d          73.720  85.951  48.838  0.00  0.00     0.091 C 
ENDROOT
BRANCH   1   2
ATOM      2  C8  LA3 d          72.681  87.045  48.657  0.00  0.00     0.053 C 
BRANCH   2   3
ATOM      3  C5  LA3 d          73.031  88.138  47.683  0.00  0.00    -0.057 A 
ATOM      4  C2  LA3 d          72.424  89.365  47.826  0.00  0.00     0.008 A 
ATOM      5  C6  LA3 d          72.696  90.393  46.952  0.00  0.00     0.013 A 
ATOM      6  C3  LA3 d          73.583  90.230  45.904  0.00  0.00    -0.026 A 
ATOM      7  C1  LA3 d          74.193  89.003  45.766  0.00  0.00     0.013 A 
ATOM      8  C4  LA3 d          73.922  87.970  46.635  0.00  0.00     0.008 A 
BRANCH   6   9
ATOM      9  C7  LA3 d          73.871  91.311  44.974  0.00  0.00    -0.023 A 
ATOM     10  C10 LA3 d          73.275  92.554  45.101  0.00  0.00     0.052 A 
ATOM     11  C13 LA3 d          73.613  93.537  44.197  0.00  0.00     0.105 A 
ATOM     12  C9  LA3 d          74.510  93.318  43.193  0.00  0.00     0.105 A 
ATOM     13  O14 LA3 d          73.117  94.818  44.180  0.00  0.00    -0.323 OA
ATOM     14  C12 LA3 d          75.114  92.100  43.032  0.00  0.00     0.040 A 
ATOM     15  O15 LA3 d          74.710  94.418  42.401  0.00  0.00    -0.323 OA
ATOM     16  C11 LA3 d          74.778  91.114  43.942  0.00  0.00     0.015 A 
ATOM     17  C16 LA3 d          73.840  95.367  43.052  0.00  0.00     0.352 A 
ENDBRANCH   6   9
ENDBRANCH   2   3
ENDBRANCH   1   2
BRANCH   1  18
ATOM     18  C18 LA3 d          74.631  86.316  49.967  0.00  0.00     0.223 C 
ATOM     19  O24 LA3 d          74.227  86.408  51.119  0.00  0.00    -0.273 OA
ATOM     20  N25 LA3 d          75.924  86.523  49.553  0.00  0.00    -0.350 N 
ATOM     21  H17 LA3 d          76.124  86.715  48.592  0.00  0.00     0.163 HD
BRANCH  20  22
ATOM     22  C26 LA3 d          76.997  86.460  50.530  0.00  0.00     0.147 C 
ATOM     23  C27 LA3 d          78.280  85.854  50.069  0.00  0.00    -0.027 A 
ATOM     24  C32 LA3 d          78.464  84.793  49.206  0.00  0.00     0.010 A 
ATOM     25  C33 LA3 d          79.344  86.498  50.639  0.00  0.00    -0.047 A 
ATOM     26  C35 LA3 d          79.762  84.401  48.936  0.00  0.00     0.001 A 
ATOM     27  C31 LA3 d          80.839  85.052  49.510  0.00  0.00     0.001 A 
ATOM     28  C34 LA3 d          80.641  86.117  50.370  0.00  0.00     0.008 A 
ATOM     29  C30 LA3 d          78.907  87.600  51.530  0.00  0.00     0.073 C 
ATOM     30  C28 LA3 d          77.503  87.807  51.009  0.00  0.00     0.149 C 
BRANCH  30  31
ATOM     31  O29 LA3 d          77.677  88.633  49.877  0.00  0.00    -0.393 OA
ATOM     32  H20 LA3 d          77.994  89.485  50.154  0.00  0.00     0.210 HD
ENDBRANCH  30  31
ENDBRANCH  20  22
ENDBRANCH   1  18
BRANCH   1  33
ATOM     33  C19 LA3 d          73.058  84.656  49.265  0.00  0.00     0.119 C 
BRANCH  33  34
ATOM     34  C20 LA3 d          72.388  84.050  48.084  0.00  0.00     0.241 C 
ATOM     35  O21 LA3 d          72.999  83.744  47.076  0.00  0.00    -0.271 OA
ATOM     36  N22 LA3 d          71.036  83.894  48.276  0.00  0.00    -0.237 N 
ATOM     37  H15 LA3 d          70.610  83.652  49.148  0.00  0.00     0.197 HD
BRANCH  36  38
ATOM     38  O23 LA3 d          70.329  84.123  47.071  0.00  0.00    -0.287 OA
ATOM     39  H16 LA3 d          70.619  83.503  46.412  0.00  0.00     0.244 HD
ENDBRANCH  36  38
ENDBRANCH  33  34
ENDBRANCH   1  33
TORSDOF 9
