REMARK  13 active torsions:
REMARK  status: ('A' for Active; 'I' for Inactive)
REMARK    1  A    between atoms: S_14  and  C1_1 
REMARK    2  A    between atoms: C5_6  and  N_11 
REMARK    3  A    between atoms: N_17  and  S_14 
REMARK    4  A    between atoms: CA_18  and  N_17 
REMARK    5  A    between atoms: C_19  and  CA_18 
REMARK    6  A    between atoms: CA_18  and  CB_21 
REMARK       I    between atoms: N1_28  and  C_19 
REMARK    7  A    between atoms: CB_21  and  CG_22 
REMARK    8  A    between atoms: CG_22  and  CD_23 
REMARK    9  A    between atoms: CD_23  and  NE_24 
REMARK       I    between atoms: NE_24  and  CZ_25 
REMARK       I    between atoms: CZ_25  and  NH1_26 
REMARK   10  A    between atoms: C1'_34  and  C2_29 
REMARK   11  A    between atoms: C2'_35  and  C1'_34 
REMARK   12  A    between atoms: C2'_40  and  C2'_35 
REMARK   13  A    between atoms: C2'_40  and  C2_39 
ROOT
ATOM      1  CA  MOL d          15.193 -15.114  21.296  0.00  0.00     0.185 C 
ENDROOT
BRANCH   1   2
ATOM      2  C   MOL d          16.307 -14.167  21.752  0.00  0.00     0.243 C 
ATOM      3  O   MOL d          16.212 -13.781  22.914  0.00  0.00    -0.271 OA
ATOM      4  N1  MOL d          17.280 -13.692  20.830  0.00  0.00    -0.346 N 
ATOM      5  C6  MOL d          18.351 -12.680  21.310  0.00  0.00     0.126 C 
ATOM      6  C2  MOL d          17.043 -14.033  19.327  0.00  0.00     0.087 C 
ATOM      7  C5  MOL d          19.696 -13.083  20.765  0.00  0.00     0.020 C 
ATOM      8  C4  MOL d          19.610 -13.417  19.194  0.00  0.00     0.004 C 
ATOM      9  C3  MOL d          18.421 -14.472  18.809  0.00  0.00     0.025 C 
BRANCH   6  10
ATOM     10  C1' MOL d          16.593 -13.014  18.550  0.00  0.00     0.033 C 
BRANCH  10  11
ATOM     11  C2' MOL d          15.941 -13.425  17.179  0.00  0.00     0.088 C 
BRANCH  11  12
ATOM     12  C2' MOL d          16.825 -12.903  16.107  0.00  0.00     0.184 C 
ATOM     13  O2  MOL d          17.488 -11.922  16.287  0.00  0.00    -0.290 OA
BRANCH  12  14
ATOM     14  C2  MOL d          16.864 -13.556  14.739  0.00  0.00     0.142 A 
ATOM     15  S1  MOL d          15.783 -14.904  14.458  0.00  0.00    -0.077 SA
ATOM     16  C5  MOL d          17.059 -15.583  13.508  0.00  0.00     0.071 A 
ATOM     17  C4  MOL d          18.146 -14.734  13.451  0.00  0.00     0.125 A 
ATOM     18  N3  MOL d          18.049 -13.554  14.106  0.00  0.00    -0.249 NA
ENDBRANCH  12  14
ENDBRANCH  11  12
ENDBRANCH  10  11
ENDBRANCH   6  10
ENDBRANCH   1   2
BRANCH   1  19
ATOM     19  CB  MOL d          13.942 -14.354  20.879  0.00  0.00     0.037 C 
BRANCH  19  20
ATOM     20  CG  MOL d          13.232 -13.686  22.058  0.00  0.00     0.023 C 
BRANCH  20  21
ATOM     21  CD  MOL d          11.892 -13.133  21.595  0.00  0.00     0.138 C 
BRANCH  21  22
ATOM     22  NE  MOL d          11.218 -12.647  22.780  0.00  0.00    -0.227 N 
ATOM     23  CZ  MOL d          11.457 -11.554  23.483  0.00  0.00     0.665 C 
ATOM     24  NH1 MOL d          12.359 -10.674  23.045  0.00  0.00    -0.235 N 
ATOM     25  NH2 MOL d          10.723 -11.336  24.566  0.00  0.00    -0.235 N 
ATOM     26  H22 MOL d          12.551  -9.820  23.587  0.00  0.00     0.174 HD
ATOM     27  H23 MOL d          12.864 -10.849  22.164  0.00  0.00     0.174 HD
ATOM     28  H24 MOL d          10.036 -12.040  24.873  0.00  0.00     0.174 HD
ATOM     29  H25 MOL d          10.840 -10.463  25.100  0.00  0.00     0.174 HD
ATOM     30  H21 MOL d          10.445 -13.235  23.123  0.00  0.00     0.177 HD
ENDBRANCH  21  22
ENDBRANCH  20  21
ENDBRANCH  19  20
ENDBRANCH   1  19
BRANCH   1  31
ATOM     31  N   MOL d          14.893 -15.970  22.485  0.00  0.00    -0.302 N 
ATOM     32  H13 MOL d          14.250 -15.731  23.213  0.00  0.00     0.173 HD
BRANCH  31  33
ATOM     33  S   MOL d          15.909 -17.581  22.417  0.00  0.00     0.260 S 
ATOM     34  O2S MOL d          14.998 -18.191  23.402  0.00  0.00    -0.200 OA
ATOM     35  O1S MOL d          15.988 -18.013  21.010  0.00  0.00    -0.200 OA
BRANCH  33  36
ATOM     36  C1  MOL d          17.735 -17.178  22.612  0.00  0.00     0.090 A 
ATOM     37  C8A MOL d          18.205 -16.689  23.809  0.00  0.00    -0.000 A 
ATOM     38  C4A MOL d          19.613 -16.358  23.893  0.00  0.00     0.002 A 
ATOM     39  C8  MOL d          17.370 -16.510  24.879  0.00  0.00     0.014 A 
ATOM     40  C4  MOL d          20.401 -16.566  22.766  0.00  0.00     0.014 A 
ATOM     41  C5  MOL d          20.084 -15.791  25.046  0.00  0.00     0.040 A 
ATOM     42  C3  MOL d          19.877 -17.046  21.558  0.00  0.00     0.003 A 
ATOM     43  C2  MOL d          18.543 -17.350  21.462  0.00  0.00     0.026 A 
ATOM     44  C6  MOL d          19.241 -15.568  26.114  0.00  0.00     0.030 A 
ATOM     45  C7  MOL d          17.893 -15.971  26.028  0.00  0.00     0.003 A 
BRANCH  41  46
ATOM     46  N   MOL d          21.383 -15.285  25.104  0.00  0.00    -0.389 N 
ATOM     47  CM2 MOL d          22.635 -16.213  25.496  0.00  0.00     0.149 C 
ATOM     48  CM1 MOL d          21.898 -14.217  24.214  0.00  0.00     0.149 C 
ENDBRANCH  41  46
ENDBRANCH  33  36
ENDBRANCH  31  33
ENDBRANCH   1  31
TORSDOF 13
