REMARK  5 active torsions:
REMARK  status: ('A' for Active; 'I' for Inactive)
REMARK    1  A    between atoms: C2_2  and  O2_3 
REMARK    2  A    between atoms: C3_4  and  O3_5 
REMARK    3  A    between atoms: C4_6  and  O4_7 
REMARK    4  A    between atoms: C5_8  and  C6_10 
REMARK    5  A    between atoms: C6_10  and  O6_11 
ROOT
ATOM      1  C1  NOJ d           5.973   3.502   3.076  0.00  0.00     0.267 C 
ATOM      2  C2  NOJ d           4.644   4.330   2.952  0.00  0.00     0.175 C 
ATOM      3  C3  NOJ d           4.966   5.716   2.355  0.00  0.00     0.179 C 
ATOM      4  C4  NOJ d           5.957   6.447   3.300  0.00  0.00     0.182 C 
ATOM      5  C5  NOJ d           7.240   5.564   3.476  0.00  0.00     0.240 C 
ATOM      6  N5  NOJ d           6.921   4.225   3.946  0.00  0.00    -0.064 N 
ATOM      7  H10 NOJ d           7.776   3.693   3.997  0.00  0.00     0.277 HD
ATOM      8  H11 NOJ d           6.516   4.299   4.866  0.00  0.00     0.277 HD
ENDROOT
BRANCH   5   9
ATOM      9  C6  NOJ d           8.199   6.192   4.504  0.00  0.00     0.199 C 
BRANCH   9  10
ATOM     10  O6  NOJ d           7.464   6.138   5.772  0.00  0.00    -0.399 OA
ATOM     11  H14 NOJ d           7.998   6.512   6.463  0.00  0.00     0.209 HD
ENDBRANCH   9  10
ENDBRANCH   5   9
BRANCH   4  12
ATOM     12  O4  NOJ d           6.286   7.757   2.758  0.00  0.00    -0.391 OA
ATOM     13  H8  NOJ d           5.493   8.273   2.676  0.00  0.00     0.210 HD
ENDBRANCH   4  12
BRANCH   3  14
ATOM     14  O3  NOJ d           3.790   6.523   2.209  0.00  0.00    -0.390 OA
ATOM     15  H6  NOJ d           4.029   7.365   1.840  0.00  0.00     0.210 HD
ENDBRANCH   3  14
BRANCH   2  16
ATOM     16  O2  NOJ d           3.718   3.646   2.137  0.00  0.00    -0.391 OA
ATOM     17  H4  NOJ d           2.920   4.156   2.070  0.00  0.00     0.210 HD
ENDBRANCH   2  16
TORSDOF 5
