REMARK  7 active torsions:
REMARK  status: ('A' for Active; 'I' for Inactive)
REMARK    1  A    between atoms: C1_1  and  C2_4 
REMARK    2  A    between atoms: C2_4  and  C3_5 
REMARK    3  A    between atoms: C4_6  and  C5_7 
REMARK    4  A    between atoms: C5_7  and  C6_8 
REMARK    5  A    between atoms: C6_8  and  C7_9 
REMARK    6  A    between atoms: C7_9  and  C8_10 
REMARK    7  A    between atoms: C8_10  and  C9_11 
ROOT
ATOM      1  C5  OLA d         -25.723   7.338 -18.030  0.00  0.00     0.027 C 
ENDROOT
BRANCH   1   2
ATOM      2  C4  OLA d         -25.312   8.189 -19.179  0.00  0.00    -0.030 C 
ATOM      3  C3  OLA d         -26.142   8.330 -20.255  0.00  0.00    -0.020 C 
BRANCH   3   4
ATOM      4  C2  OLA d         -25.767   9.327 -21.296  0.00  0.00     0.140 C 
BRANCH   4   5
ATOM      5  C1  OLA d         -26.748   9.661 -22.367  0.00  0.00     0.176 C 
ATOM      6  O1  OLA d         -27.880   9.105 -22.422  0.00  0.00    -0.648 OA
ATOM      7  O2  OLA d         -26.439  10.529 -23.214  0.00  0.00    -0.648 OA
ENDBRANCH   4   5
ENDBRANCH   3   4
ENDBRANCH   1   2
BRANCH   1   8
ATOM      8  C6  OLA d         -25.963   5.898 -18.303  0.00  0.00     0.004 C 
BRANCH   8   9
ATOM      9  C7  OLA d         -25.566   4.943 -17.230  0.00  0.00     0.004 C 
BRANCH   9  10
ATOM     10  C8  OLA d         -26.027   5.250 -15.849  0.00  0.00     0.027 C 
BRANCH  10  11
ATOM     11  C9  OLA d         -27.494   5.411 -15.627  0.00  0.00    -0.031 C 
ATOM     12  C10 OLA d         -27.939   6.415 -14.813  0.00  0.00    -0.035 C 
ATOM     13  C11 OLA d         -29.398   6.584 -14.552  0.00  0.00     0.036 C 
ENDBRANCH  10  11
ENDBRANCH   9  10
ENDBRANCH   8   9
ENDBRANCH   1   8
TORSDOF 7
