1gj7_ligand

Created by X-TOOL on Fri Sep 26 17:34:20 2014
 43 46  0  0  0  0  0  0  0  0999 V2000
    8.5780    0.4240   24.9970  C 0  0  0  1  0  3
    8.7520    0.4970   23.5850  C 0  0  0  1  0  3
    9.1610    1.6830   22.9660  C 0  0  0  2  0  3
    9.3540    2.8100   23.7440  C 0  0  0  1  0  3
    9.2490    2.7450   25.0950  C 0  0  0  1  0  3
    8.8640    1.5830   25.7580  C 0  0  0  2  0  3
    8.2280   -0.7940   25.6410  C 0  3  0  1  0  3
    7.5210   -0.7780   26.7490  N 0  0  0  3  0  3
    8.6130   -1.9210   25.1090  N 0  0  0  3  0  3
    9.7930    4.0110   23.4250  N 0  0  0  2  0  3
    9.5550    3.9940   25.5940  C 0  0  0  2  0  3
    9.8640    4.7960   24.4820  C 0  0  0  1  0  3
   10.2150    6.1850   24.4680  C 0  0  0  1  0  3
   10.0220    6.9650   25.6260  C 0  0  0  2  0  3
   10.3310    8.3320   25.6420  C 0  0  0  2  0  3
   10.8230    8.9520   24.5110  C 0  0  0  2  0  3
   11.0270    8.2220   23.3300  C 0  0  0  1  0  3
   10.7080    6.8370   23.3020  C 0  0  0  1  0  3
   10.8780    6.1340   22.1250  O 0  0  0  2  0  2
   11.6130    8.9280   22.2610  C 0  0  0  1  0  3
   12.7720    8.4350   21.6570  C 0  0  0  2  0  3
   13.4070    9.1420   20.6540  C 0  0  0  2  0  3
   12.8960   10.3610   20.2340  C 0  0  0  2  0  3
   11.7400   10.8600   20.8060  C 0  0  0  2  0  3
   11.0980   10.1470   21.8220  C 0  0  0  2  0  3
    8.3610   -0.8350   22.4740 Cl 0  0  0  1  0  1
    9.3239    1.7180   21.8949  H 0  0  0  1  0  1
    8.7845    1.5659   26.8390  H 0  0  0  1  0  1
    7.2696   -1.6629   27.2123  H 0  0  0  1  0  1
    7.2184    0.1194   27.1539  H 0  0  0  1  0  1
    9.1666   -1.9179   24.2404  H 0  0  0  1  0  1
    8.3634   -2.8140   25.5575  H 0  0  0  1  0  1
   10.0485    4.3001   22.4700  H 0  0  0  1  0  1
    9.5568    4.2977   26.6398  H 0  0  0  1  0  1
    9.6270    6.4987   26.5213  H 0  0  0  1  0  1
   10.1826    8.9066   26.5491  H 0  0  0  1  0  1
   11.0535   10.0109   24.5353  H 0  0  0  1  0  1
   11.2119    6.7179   21.4541  H 0  0  0  1  0  1
   13.1792    7.4837   21.9799  H 0  0  0  1  0  1
   14.3048    8.7438   20.1953  H 0  0  0  1  0  1
   13.4027   10.9226   19.4575  H 0  0  0  1  0  1
   11.3316   11.8048   20.4660  H 0  0  0  1  0  1
   10.1948   10.5438   22.2712  H 0  0  0  1  0  1
  7  1  1  0  0  2
  1  6  4  0  0  1
  1  2  4  0  0  1
  2  3  4  0  0  1
  2 26  1  0  0  2
  3  4  4  0  0  1
  4 10  1  0  0  1
  4  5  4  0  0  1
  5 11  1  0  0  1
  6  5  4  0  0  1
 11 12  2  0  0  1
 12 13  1  0  0  2
 10 12  1  0  0  1
 13 18  4  0  0  1
 13 14  4  0  0  1
 18 19  1  0  0  2
 18 17  4  0  0  1
 17 20  1  0  0  2
 17 16  4  0  0  1
 16 15  4  0  0  1
 20 25  4  0  0  1
 20 21  4  0  0  1
 21 22  4  0  0  1
 22 23  4  0  0  1
 23 24  4  0  0  1
 25 24  4  0  0  1
  7  9  2  0  0  2
  7  8  2  0  0  2
 14 15  4  0  0  1
  3 27  1  0  0  2
  6 28  1  0  0  2
  8 29  1  0  0  2
  8 30  1  0  0  2
  9 31  1  0  0  2
  9 32  1  0  0  2
 10 33  1  0  0  2
 11 34  1  0  0  2
 14 35  1  0  0  2
 15 36  1  0  0  2
 16 37  1  0  0  2
 19 38  1  0  0  2
 21 39  1  0  0  2
 22 40  1  0  0  2
 23 41  1  0  0  2
 24 42  1  0  0  2
 25 43  1  0  0  2
M  END
> <MOLECULAR_FORMULA>
C21H17N3OCl

> <MOLECULAR_WEIGHT>
362.7

> <NUM_HB_ATOMS>
4  

> <NUM_ROTOR>
0  

> <XLOGP2>
4.90 

$$$$
