REMARK  10 active torsions:
REMARK  status: ('A' for Active; 'I' for Inactive)
REMARK    1  A    between atoms: C_3  and  CA_2 
REMARK       I    between atoms: N_9  and  C_3 
REMARK    2  A    between atoms: CA_10  and  N_9 
REMARK    3  A    between atoms: C_11  and  CA_10 
REMARK    4  A    between atoms: CA_10  and  CB_13 
REMARK       I    between atoms: C_11  and  N_18 
REMARK    5  A    between atoms: CB_13  and  CG_14 
REMARK    6  A    between atoms: CG_14  and  CD_15 
REMARK       I    between atoms: CD_15  and  NE2_17 
REMARK    7  A    between atoms: N_18  and  CA_19 
REMARK    8  A    between atoms: CA_19  and  C_20 
REMARK    9  A    between atoms: CA_19  and  CB_22 
REMARK   10  A    between atoms: CB_22  and  CG_23 
ROOT
ATOM      1  CA  MOL d          10.810   8.119   6.421  0.00  0.00     0.177 C 
ENDROOT
BRANCH   1   2
ATOM      2  C   MOL d          10.523   8.776   7.765  0.00  0.00     0.241 C 
ATOM      3  O   MOL d          11.256   8.570   8.734  0.00  0.00    -0.271 OA
ATOM      4  N   MOL d           9.456   9.566   7.814  0.00  0.00    -0.344 N 
ATOM      5  H15 MOL d           8.901   9.685   6.991  0.00  0.00     0.163 HD
BRANCH   4   6
ATOM      6  CA  MOL d           9.072  10.264   9.033  0.00  0.00     0.190 C 
BRANCH   6   7
ATOM      7  C   MOL d           7.575  10.515   9.031  0.00  0.00     0.197 C 
ATOM      8  OXT MOL d           6.993  10.519   7.930  0.00  0.00    -0.646 OA
ATOM      9  O   MOL d           7.006  10.711  10.120  0.00  0.00    -0.646 OA
ENDBRANCH   6   7
BRANCH   6  10
ATOM     10  CB  MOL d           9.845  11.589   9.147  0.00  0.00     0.077 C 
BRANCH  10  11
ATOM     11  CG  MOL d           9.478  12.659   8.143  0.00  0.00    -0.028 A 
ATOM     12  CD2 MOL d           9.807  14.052   8.222  0.00  0.00    -0.002 A 
ATOM     13  CE2 MOL d           9.316  14.668   7.049  0.00  0.00     0.042 A 
ATOM     14  CE3 MOL d          10.473  14.839   9.170  0.00  0.00     0.014 A 
ATOM     15  NE1 MOL d           8.714  13.695   6.295  0.00  0.00    -0.365 N 
ATOM     16  CZ2 MOL d           9.470  16.038   6.800  0.00  0.00     0.030 A 
ATOM     17  CD1 MOL d           8.815  12.494   6.957  0.00  0.00     0.096 A 
ATOM     18  H20 MOL d           8.260  13.840   5.382  0.00  0.00     0.165 HD
ATOM     19  CH2 MOL d          10.127  16.784   7.744  0.00  0.00     0.002 A 
ATOM     20  CZ3 MOL d          10.627  16.201   8.920  0.00  0.00     0.001 A 
ENDBRANCH  10  11
ENDBRANCH   6  10
ENDBRANCH   4   6
ENDBRANCH   1   2
BRANCH   1  21
ATOM     21  CB  MOL d          10.401   6.644   6.468  0.00  0.00     0.044 C 
BRANCH  21  22
ATOM     22  CG  MOL d          10.181   6.025   5.092  0.00  0.00     0.105 C 
BRANCH  22  23
ATOM     23  CD  MOL d           9.838   4.547   5.158  0.00  0.00     0.215 C 
ATOM     24  OE1 MOL d           9.198   4.087   6.097  0.00  0.00    -0.274 OA
ATOM     25  NE2 MOL d          10.254   3.801   4.151  0.00  0.00    -0.370 N 
ATOM     26  H13 MOL d          10.057   2.821   4.140  0.00  0.00     0.159 HD
ATOM     27  H14 MOL d          10.766   4.216   3.399  0.00  0.00     0.159 HD
ENDBRANCH  22  23
ENDBRANCH  21  22
ENDBRANCH   1  21
BRANCH   1  28
ATOM     28  N   MOL d          12.223   8.240   6.076  0.00  0.00    -0.346 N 
ATOM     29  C   MOL d          12.646   9.043   5.103  0.00  0.00     0.241 C 
ATOM     30  O   MOL d          11.880   9.736   4.428  0.00  0.00    -0.271 OA
ATOM     31  H7  MOL d          12.894   7.703   6.587  0.00  0.00     0.163 HD
BRANCH  29  32
ATOM     32  CA  MOL d          14.152   9.060   4.842  0.00  0.00     0.177 C 
ATOM     33  CB  MOL d          14.759  10.402   5.255  0.00  0.00     0.044 C 
ATOM     34  CG  MOL d          15.142  11.044   3.991  0.00  0.00     0.105 C 
ATOM     35  CD  MOL d          14.833  10.034   2.923  0.00  0.00     0.218 C 
ATOM     36  OE1 MOL d          14.936  10.291   1.725  0.00  0.00    -0.274 OA
ATOM     37  N   MOL d          14.419   8.856   3.402  0.00  0.00    -0.348 N 
ATOM     38  H1  MOL d          14.311   8.005   2.888  0.00  0.00     0.163 HD
ENDBRANCH  29  32
ENDBRANCH   1  28
TORSDOF 10
