REMARK  2 active torsions:
REMARK  status: ('A' for Active; 'I' for Inactive)
REMARK    1  A    between atoms: N_15  and  C1_1 
REMARK    2  A    between atoms: C8_18  and  N2_19 
ROOT
ATOM      1  C2  MOL d          11.025  45.984  46.037  0.00  0.00     0.064 A 
ATOM      2  C3  MOL d          10.511  45.803  47.327  0.00  0.00     0.035 A 
ATOM      3  C11 MOL d          10.739  50.136  43.424  0.00  0.00     0.035 A 
ATOM      4  C12 MOL d          11.168  50.380  44.708  0.00  0.00     0.026 A 
ATOM      5  C13 MOL d          11.634  49.326  45.476  0.00  0.00     0.032 A 
ATOM      6  C14 MOL d          11.678  48.027  44.960  0.00  0.00     0.049 A 
ATOM      7 CL   MOL d           9.998  51.415  42.516  0.00  0.00    -0.084 Cl
ATOM      8  C10 MOL d          10.798  48.877  42.869  0.00  0.00     0.041 A 
ATOM      9  N   MOL d          12.071  46.936  45.799  0.00  0.00    -0.344 N 
ATOM     10  C9  MOL d          11.261  47.805  43.633  0.00  0.00     0.038 A 
ATOM     11  C8  MOL d          11.247  46.446  43.029  0.00  0.00     0.139 C 
ATOM     12  N1  MOL d          10.894  45.358  43.620  0.00  0.00    -0.228 NA
ATOM     13  C7  MOL d          10.441  45.289  44.955  0.00  0.00     0.089 A 
ATOM     14  C6  MOL d           9.359  44.433  45.192  0.00  0.00     0.076 A 
ATOM     15  C5  MOL d           8.910  44.279  46.481  0.00  0.00     0.118 A 
ATOM     16  F   MOL d           7.907  43.390  46.704  0.00  0.00    -0.206 F 
ATOM     17  C4  MOL d           9.452  44.941  47.554  0.00  0.00     0.044 A 
ENDROOT
BRANCH  11  18
ATOM     18  N2  MOL d          11.656  46.376  41.680  0.00  0.00    -0.362 N 
ATOM     19  C15 MOL d          12.900  47.045  41.276  0.00  0.00     0.152 C 
ATOM     20  C16 MOL d          14.083  46.138  41.555  0.00  0.00     0.254 C 
ATOM     21  N3  MOL d          13.952  44.874  40.832  0.00  0.00    -0.072 N 
ATOM     22  C17 MOL d          15.106  44.001  41.096  0.00  0.00     0.269 C 
ATOM     23  C18 MOL d          12.704  44.212  41.209  0.00  0.00     0.254 C 
ATOM     24  H21 MOL d          13.923  45.072  39.844  0.00  0.00     0.279 HD
ATOM     25  C19 MOL d          11.507  45.112  40.940  0.00  0.00     0.152 C 
ENDBRANCH  11  18
BRANCH   9  26
ATOM     26  C1  MOL d          13.036  47.214  46.881  0.00  0.00     0.125 C 
ATOM     27  C   MOL d          13.917  46.004  47.268  0.00  0.00     0.027 C 
ENDBRANCH   9  26
TORSDOF 2
