REMARK  9 active torsions:
REMARK  status: ('A' for Active; 'I' for Inactive)
REMARK    1  A    between atoms: C4_2  and  N3_1 
REMARK    2  A    between atoms: N3_1  and  O3_10 
REMARK       I    between atoms: N3_1  and  C2_11 
REMARK    3  A    between atoms: C5_3  and  C4_2 
REMARK    4  A    between atoms: C6_4  and  C5_3 
REMARK    5  A    between atoms: O6_9  and  C6_4 
REMARK    6  A    between atoms: P6_6  and  O6_9 
REMARK    7  A    between atoms: C2_11  and  C1_13 
REMARK    8  A    between atoms: C1_13  and  O1_14 
REMARK    9  A    between atoms: O1_14  and  P1_15 
ROOT
ATOM      1  N3  PH4 d          -3.426  -4.514  -5.594  0.00  0.00    -0.227 N 
ATOM      2  C2  PH4 d          -2.612  -3.317  -5.807  0.00  0.00     0.267 C 
ATOM      3  O2  PH4 d          -2.158  -2.733  -4.876  0.00  0.00    -0.269 OA
ENDROOT
BRANCH   1   4
ATOM      4  C4  PH4 d          -3.985  -5.234  -6.738  0.00  0.00     0.161 C 
BRANCH   4   5
ATOM      5  C5  PH4 d          -5.523  -5.293  -6.613  0.00  0.00     0.049 C 
BRANCH   5   6
ATOM      6  C6  PH4 d          -6.102  -6.165  -7.743  0.00  0.00     0.184 C 
BRANCH   6   7
ATOM      7  O6  PH4 d          -7.134  -5.465  -8.385  0.00  0.00    -0.283 OA
BRANCH   7   8
ATOM      8  P6  PH4 d          -8.055  -6.230  -9.515  0.00  0.00     0.422 P 
ATOM      9  O62 PH4 d          -7.411  -7.714  -9.834  0.00  0.00    -0.617 OA
ATOM     10  O63 PH4 d          -8.084  -5.335 -10.897  0.00  0.00    -0.617 OA
ATOM     11  O61 PH4 d          -9.415  -6.388  -9.010  0.00  0.00    -0.617 OA
ENDBRANCH   7   8
ENDBRANCH   6   7
ENDBRANCH   5   6
ENDBRANCH   4   5
ENDBRANCH   1   4
BRANCH   1  12
ATOM     12  O3  PH4 d          -3.669  -4.973  -4.288  0.00  0.00    -0.285 OA
ATOM     13  H7  PH4 d          -3.239  -4.398  -3.666  0.00  0.00     0.245 HD
ENDBRANCH   1  12
BRANCH   2  14
ATOM     14  C1  PH4 d          -2.344  -2.813  -7.235  0.00  0.00     0.287 C 
BRANCH  14  15
ATOM     15  O1  PH4 d          -1.384  -1.792  -7.197  0.00  0.00    -0.273 OA
BRANCH  15  16
ATOM     16  P1  PH4 d          -0.859  -1.112  -8.611  0.00  0.00     0.422 P 
ATOM     17  O12 PH4 d          -2.154  -0.784  -9.577  0.00  0.00    -0.617 OA
ATOM     18  O13 PH4 d           0.153  -2.161  -9.383  0.00  0.00    -0.617 OA
ATOM     19  O11 PH4 d          -0.145   0.126  -8.322  0.00  0.00    -0.617 OA
ENDBRANCH  15  16
ENDBRANCH  14  15
ENDBRANCH   2  14
TORSDOF 9
