3s9t_ligand

Created by X-TOOL on Fri Sep 26 17:34:53 2014
 37 38  0  0  0  0  0  0  0  0999 V2000
   -0.7740    4.7670   10.2150  N 0  0  0  1  0  2
   -1.5170    4.1500   11.1130  C 0  0  0  1  0  3
   -1.8890    4.7280   12.2580  N 0  0  0  1  0  2
   -1.6290    6.0190   12.5240  C 0  0  0  1  0  3
   -0.8950    6.7040   11.5700  C 0  0  0  2  0  3
   -0.4370    6.0630   10.4120  C 0  0  0  1  0  3
   -1.9310    2.5010   10.7070  S 0  0  0  1  0  2
   -3.0800    1.9640   12.0540  C 0  0  0  3  0  4
   -4.2280    2.9630   12.2230  C 0  0  0  1  0  3
   -4.6780    3.6070   11.2120  O 0  0  0  1  0  1
   -2.1700    6.7310   13.7960  C 0  0  0  4  0  4
    0.4060    6.7420    9.4440  C 0  0  0  4  0  4
   -4.8440    3.1210   13.5860  C 0  0  0  1  0  3
   -5.0590    2.0850   14.4560  C 0  0  0  2  0  3
   -5.6360    2.2760   15.6370  C 0  0  0  1  0  3
   -6.1970    3.4920   15.9250  C 0  0  0  1  0  3
   -5.9330    4.6360   15.1350  C 0  0  0  2  0  3
   -5.4280    4.3590   13.9570  C 0  0  0  2  0  3
   -5.9540    0.8350   16.6890  S 0  0  0  1  0  4
   -7.4580    0.7840   16.7220  O 0  0  0  1  0  1
   -5.3560    1.0460   17.9540  O 0  0  0  1  0  1
   -5.2970   -0.5060   16.0580  N 0  0  0  3  0  3
   -6.8490    3.8180   17.4580 Cl 0  0  0  1  0  1
   -0.6713    7.7537   11.7221  H 0  0  0  1  0  1
   -2.5205    1.8951   12.9986  H 0  0  0  1  0  1
   -3.4954    0.9774   11.8011  H 0  0  0  1  0  1
   -1.8318    7.7777   13.8021  H 0  0  0  1  0  1
   -1.7913    6.2181   14.6924  H 0  0  0  1  0  1
   -3.2696    6.7010   13.7933  H 0  0  0  1  0  1
    0.5729    7.7800    9.7674  H 0  0  0  1  0  1
   -0.0884    6.7391    8.4614  H 0  0  0  1  0  1
    1.3721    6.2213    9.3700  H 0  0  0  1  0  1
   -4.7507    1.0848   14.1737  H 0  0  0  1  0  1
   -6.1299    5.6472   15.4723  H 0  0  0  1  0  1
   -5.4595    5.1397   13.2057  H 0  0  0  1  0  1
   -5.3930   -1.3809   16.5327  H 0  0  0  1  0  1
   -4.7957   -0.4583   15.1940  H 0  0  0  1  0  1
  1  2  4  0  0  1
  1  6  4  0  0  1
  2  3  4  0  0  1
  2  7  1  0  0  2
  3  4  4  0  0  1
  4  5  4  0  0  1
  4 11  1  0  0  2
  5  6  4  0  0  1
  6 12  1  0  0  2
  7  8  1  0  0  2
  8  9  1  0  0  2
  9 10  2  0  0  2
  9 13  1  0  0  2
 13 14  4  0  0  1
 13 18  4  0  0  1
 14 15  4  0  0  1
 15 16  4  0  0  1
 15 19  1  0  0  2
 16 17  4  0  0  1
 16 23  1  0  0  2
 17 18  4  0  0  1
 19 20  2  0  0  2
 19 21  2  0  0  2
 19 22  1  0  0  2
  5 24  1  0  0  2
  8 25  1  0  0  2
  8 26  1  0  0  2
 11 27  1  0  0  2
 11 28  1  0  0  2
 11 29  1  0  0  2
 12 30  1  0  0  2
 12 31  1  0  0  2
 12 32  1  0  0  2
 14 33  1  0  0  2
 17 34  1  0  0  2
 18 35  1  0  0  2
 22 36  1  0  0  2
 22 37  1  0  0  2
M  END
> <MOLECULAR_FORMULA>
C14H14N3O3S2Cl

> <MOLECULAR_WEIGHT>
371.8

> <NUM_HB_ATOMS>
7  

> <NUM_ROTOR>
4  

> <XLOGP2>
2.33 

$$$$
