REMARK  8 active torsions:
REMARK  status: ('A' for Active; 'I' for Inactive)
REMARK       I    between atoms: N1_1  and  C14_19 
REMARK    1  A    between atoms: C1_2  and  C7_3 
REMARK       I    between atoms: C7_3  and  N23_5 
REMARK    2  A    between atoms: N23_5  and  C24_6 
REMARK    3  A    between atoms: C24_6  and  C25_7 
REMARK    4  A    between atoms: C28_10  and  C21_11 
REMARK    5  A    between atoms: C21_11  and  N46_12 
REMARK    6  A    between atoms: C14_19  and  C5_20 
REMARK    7  A    between atoms: C5_20  and  N13_21 
REMARK    8  A    between atoms: C5_20  and  C33_22 
ROOT
ATOM      1  C7  MOL d          17.018 -11.911  20.272  0.00  0.00     0.240 C 
ATOM      2  O22 MOL d          16.634 -12.875  19.644  0.00  0.00    -0.271 OA
ATOM      3  N23 MOL d          16.371 -10.724  20.337  0.00  0.00    -0.355 N 
ATOM      4  H2  MOL d          16.761  -9.942  20.823  0.00  0.00     0.162 HD
ENDROOT
BRANCH   1   5
ATOM      5  C1  MOL d          18.327 -12.022  21.017  0.00  0.00     0.179 C 
ATOM      6  N1  MOL d          18.413 -13.330  21.644  0.00  0.00    -0.337 N 
ATOM      7  C4  MOL d          19.528 -14.168  21.192  0.00  0.00     0.127 C 
ATOM      8  C14 MOL d          17.436 -13.749  22.488  0.00  0.00     0.251 C 
ATOM      9  C3  MOL d          20.471 -13.042  20.698  0.00  0.00     0.022 C 
ATOM     10  C2  MOL d          19.493 -12.077  19.982  0.00  0.00     0.037 C 
ATOM     11  O32 MOL d          16.468 -13.033  22.769  0.00  0.00    -0.271 OA
BRANCH   8  12
ATOM     12  C5  MOL d          17.422 -15.103  23.179  0.00  0.00     0.274 C 
BRANCH  12  13
ATOM     13  N13 MOL d          16.093 -15.744  23.079  0.00  0.00    -0.067 N 
ATOM     14  H20 MOL d          16.115 -16.637  23.545  0.00  0.00     0.275 HD
ATOM     15  H21 MOL d          15.856 -15.877  22.108  0.00  0.00     0.275 HD
ATOM     16  H22 MOL d          15.402 -15.154  23.515  0.00  0.00     0.275 HD
ENDBRANCH  12  13
BRANCH  12  17
ATOM     17  C33 MOL d          17.635 -14.879  24.711  0.00  0.00     0.038 C 
ATOM     18  C48 MOL d          18.973 -14.449  25.343  0.00  0.00     0.007 C 
ENDBRANCH  12  17
ENDBRANCH   8  12
ENDBRANCH   1   5
BRANCH   3  19
ATOM     19  C24 MOL d          15.079 -10.637  19.665  0.00  0.00     0.161 C 
BRANCH  19  20
ATOM     20  C25 MOL d          13.992 -10.639  20.758  0.00  0.00    -0.040 A 
ATOM     21  C26 MOL d          13.404  -9.443  21.160  0.00  0.00     0.010 A 
ATOM     22  C27 MOL d          12.421  -9.450  22.148  0.00  0.00     0.016 A 
ATOM     23  C28 MOL d          12.012 -10.650  22.748  0.00  0.00     0.007 A 
ATOM     24  C29 MOL d          12.606 -11.845  22.340  0.00  0.00     0.016 A 
ATOM     25  C30 MOL d          13.586 -11.830  21.354  0.00  0.00     0.010 A 
BRANCH  23  26
ATOM     26  C21 MOL d          10.881 -10.645  23.879  0.00  0.00     0.102 C 
ATOM     27  N47 MOL d          10.648  -9.550  24.556  0.00  0.00    -0.385 N 
ATOM     28  H9  MOL d          11.192  -8.697  24.359  0.00  0.00     0.157 HD
ATOM     29  H10 MOL d           9.921  -9.540  25.286  0.00  0.00     0.157 HD
BRANCH  26  30
ATOM     30  N46 MOL d          10.206 -11.763  24.099  0.00  0.00    -0.385 N 
ATOM     31  H7  MOL d           9.472 -11.788  24.821  0.00  0.00     0.157 HD
ATOM     32  H8  MOL d          10.415 -12.608  23.548  0.00  0.00     0.157 HD
ENDBRANCH  26  30
ENDBRANCH  23  26
ENDBRANCH  19  20
ENDBRANCH   3  19
TORSDOF 8
