REMARK  3 active torsions:
REMARK  status: ('A' for Active; 'I' for Inactive)
REMARK    1  A    between atoms: OAD_1  and  CAG_2 
REMARK    2  A    between atoms: CAA_3  and  OAC_4 
REMARK    3  A    between atoms: CAE_8  and  CAP_9 
ROOT
ATOM      1  CAG EAT d         -15.196  10.963  31.521  0.00  0.00     0.187 C 
ATOM      2  CAA EAT d         -15.241   9.485  31.122  0.00  0.00     0.179 C 
ATOM      3  CAF EAT d         -16.311   8.967  32.081  0.00  0.00     0.214 C 
ATOM      4  CAB EAT d         -16.655   7.521  31.774  0.00  0.00     0.043 C 
ATOM      5  NAH EAT d         -17.364   9.975  31.912  0.00  0.00    -0.055 N 
ATOM      6  CAE EAT d         -16.647  11.290  31.434  0.00  0.00     0.286 C 
ATOM      7  H9  EAT d         -17.837  10.135  32.787  0.00  0.00     0.278 HD
ATOM      8  H10 EAT d         -18.031   9.670  31.220  0.00  0.00     0.278 HD
ENDROOT
BRANCH   6   9
ATOM      9  CAP EAT d         -17.072  12.484  32.337  0.00  0.00     0.139 A 
ATOM     10  NAQ EAT d         -17.701  13.612  31.981  0.00  0.00    -0.341 N 
ATOM     11  CAM EAT d         -17.944  14.298  33.121  0.00  0.00     0.062 A 
ATOM     12  H12 EAT d         -17.951  13.901  31.024  0.00  0.00     0.167 HD
ATOM     13  CAN EAT d         -18.523  15.500  33.373  0.00  0.00     0.032 A 
ATOM     14  CAL EAT d         -17.440  13.590  34.140  0.00  0.00     0.085 A 
ATOM     15  CAI EAT d         -18.634  15.998  34.685  0.00  0.00     0.002 A 
ATOM     16  CAJ EAT d         -18.133  15.233  35.731  0.00  0.00     0.002 A 
ATOM     17  CAK EAT d         -17.530  14.014  35.414  0.00  0.00     0.034 A 
ATOM     18  NAO EAT d         -16.918  12.473  33.641  0.00  0.00    -0.231 NA
ENDBRANCH   6   9
BRANCH   1  19
ATOM     19  OAD EAT d         -14.398  11.829  30.667  0.00  0.00    -0.390 OA
ATOM     20  H1  EAT d         -14.435  12.719  30.997  0.00  0.00     0.210 HD
ENDBRANCH   1  19
BRANCH   2  21
ATOM     21  OAC EAT d         -15.613   9.315  29.782  0.00  0.00    -0.391 OA
ATOM     22  H4  EAT d         -14.985   9.755  29.222  0.00  0.00     0.210 HD
ENDBRANCH   2  21
TORSDOF 3
