REMARK  4 active torsions:
REMARK  status: ('A' for Active; 'I' for Inactive)
REMARK    1  A    between atoms: CA_5  and  C_11 
REMARK    2  A    between atoms: CB_6  and  CB1_7 
REMARK    3  A    between atoms: CB1_7  and  CG1_9 
REMARK    4  A    between atoms: CG_8  and  CG2_10 
ROOT
ATOM      1  N   KAI d          44.212  34.767  16.968  0.00  0.00    -0.060 N 
ATOM      2  CD  KAI d          45.587  35.275  17.084  0.00  0.00     0.242 C 
ATOM      3  CA  KAI d          43.747  34.530  18.320  0.00  0.00     0.291 C 
ATOM      4  CB  KAI d          44.936  34.698  19.212  0.00  0.00     0.046 C 
ATOM      5  CG  KAI d          45.689  35.751  18.496  0.00  0.00     0.046 C 
ATOM      6  H1  KAI d          44.201  33.908  16.440  0.00  0.00     0.278 HD
ATOM      7  H2  KAI d          43.626  35.449  16.512  0.00  0.00     0.278 HD
ENDROOT
BRANCH   4   8
ATOM      8  CB1 KAI d          45.758  33.438  19.381  0.00  0.00     0.121 C 
BRANCH   8   9
ATOM      9  CG1 KAI d          45.200  32.308  20.268  0.00  0.00     0.172 C 
ATOM     10  OD1 KAI d          44.254  32.548  21.077  0.00  0.00    -0.648 OA
ATOM     11  OD2 KAI d          45.697  31.125  20.191  0.00  0.00    -0.648 OA
ENDBRANCH   8   9
ENDBRANCH   4   8
BRANCH   3  12
ATOM     12  C   KAI d          42.650  35.485  18.696  0.00  0.00     0.205 C 
ATOM     13  O   KAI d          42.132  36.183  17.791  0.00  0.00    -0.646 OA
ATOM     14  OXT KAI d          42.235  35.578  19.892  0.00  0.00    -0.646 OA
ENDBRANCH   3  12
BRANCH   5  15
ATOM     15  CG2 KAI d          47.141  35.975  19.054  0.00  0.00    -0.087 C 
ATOM     16  CD1 KAI d          47.311  36.115  20.466  0.00  0.00     0.014 C 
ATOM     17  CD2 KAI d          48.281  35.945  18.180  0.00  0.00     0.043 C 
ENDBRANCH   5  15
TORSDOF 4
