REMARK  8 active torsions:
REMARK  status: ('A' for Active; 'I' for Inactive)
REMARK    1  A    between atoms: N1_1  and  C1_9 
REMARK    2  A    between atoms: C2_10  and  O2_11 
REMARK    3  A    between atoms: C3_12  and  O3_15 
REMARK    4  A    between atoms: C4_13  and  C5_16 
REMARK    5  A    between atoms: C5_16  and  O5_17 
REMARK    6  A    between atoms: O5_17  and  PA_18 
REMARK    7  A    between atoms: PA_18  and  O3A_21 
REMARK    8  A    between atoms: O3A_21  and  PB_22 
ROOT
ATOM      1  C1  UDP d           3.203  10.864  42.929  0.00  0.00     0.263 C 
ATOM      2  C2  UDP d           4.711  10.650  42.734  0.00  0.00     0.198 C 
ATOM      3  C3  UDP d           5.159  10.329  44.157  0.00  0.00     0.182 C 
ATOM      4  C4  UDP d           4.031   9.406  44.643  0.00  0.00     0.180 C 
ATOM      5  O4  UDP d           2.834   9.972  44.003  0.00  0.00    -0.353 OA
ENDROOT
BRANCH   4   6
ATOM      6  C5  UDP d           3.795   9.411  46.183  0.00  0.00     0.216 C 
BRANCH   6   7
ATOM      7  O5  UDP d           4.251  10.657  46.687  0.00  0.00    -0.287 OA
BRANCH   7   8
ATOM      8  PA  UDP d           5.537  11.088  47.482  0.00  0.00     0.418 P 
ATOM      9  O1A UDP d           6.713  10.541  46.757  0.00  0.00    -0.624 OA
ATOM     10  O2A UDP d           5.453  12.581  47.660  0.00  0.00    -0.624 OA
BRANCH   8  11
ATOM     11  O3A UDP d           5.335  10.288  48.826  0.00  0.00    -0.173 OA
BRANCH  11  12
ATOM     12  PB  UDP d           6.390  10.076  50.005  0.00  0.00     0.431 P 
ATOM     13  O1B UDP d           7.357   8.912  49.460  0.00  0.00    -0.616 OA
ATOM     14  O2B UDP d           5.532   9.640  51.132  0.00  0.00    -0.616 OA
ATOM     15  O3B UDP d           7.298  11.236  50.161  0.00  0.00    -0.616 OA
ENDBRANCH  11  12
ENDBRANCH   8  11
ENDBRANCH   7   8
ENDBRANCH   6   7
ENDBRANCH   4   6
BRANCH   3  16
ATOM     16  O3  UDP d           6.416   9.642  44.079  0.00  0.00    -0.390 OA
ATOM     17  H9  UDP d           6.650   9.313  44.939  0.00  0.00     0.210 HD
ENDBRANCH   3  16
BRANCH   2  18
ATOM     18  O2  UDP d           4.965   9.607  41.806  0.00  0.00    -0.388 OA
ATOM     19  H6  UDP d           5.903   9.496  41.705  0.00  0.00     0.210 HD
ENDBRANCH   2  18
BRANCH   1  20
ATOM     20  N1  UDP d           2.798  12.276  43.260  0.00  0.00    -0.280 N 
ATOM     21  C2  UDP d           2.858  13.249  42.255  0.00  0.00     0.331 A 
ATOM     22  N3  UDP d           2.469  14.529  42.623  0.00  0.00    -0.275 N 
ATOM     23  O2  UDP d           3.234  12.996  41.104  0.00  0.00    -0.246 OA
ATOM     24  C4  UDP d           2.022  14.936  43.906  0.00  0.00     0.250 A 
ATOM     25  H1  UDP d           2.508  15.233  41.914  0.00  0.00     0.173 HD
ATOM     26  C5  UDP d           1.980  13.895  44.904  0.00  0.00     0.092 A 
ATOM     27  O4  UDP d           1.716  16.116  44.059  0.00  0.00    -0.268 OA
ATOM     28  C6  UDP d           2.356  12.640  44.561  0.00  0.00     0.104 A 
ENDBRANCH   1  20
TORSDOF 8
