REMARK  5 active torsions:
REMARK  status: ('A' for Active; 'I' for Inactive)
REMARK    1  A    between atoms: C2_2  and  O4_3 
REMARK    2  A    between atoms: C2_2  and  C5_4 
REMARK    3  A    between atoms: N6_5  and  C18_16 
REMARK    4  A    between atoms: C22_19  and  C26_22 
REMARK    5  A    between atoms: C26_22  and  C27_23 
ROOT
ATOM      1  C27 15T d           4.119  51.824   2.381  0.00  0.00     0.124 C 
ATOM      2  C28 15T d           3.799  51.315   1.039  0.00  0.00     0.059 C 
ATOM      3  N29 15T d           3.601  51.002  -0.039  0.00  0.00    -0.197 NA
ENDROOT
BRANCH   1   4
ATOM      4  C26 15T d           5.542  52.403   2.422  0.00  0.00     0.018 C 
BRANCH   4   5
ATOM      5  C22 15T d           5.648  53.837   1.867  0.00  0.00    -0.014 C 
ATOM      6  C21 15T d           6.802  54.518   2.631  0.00  0.00     0.007 C 
ATOM      7  C20 15T d           7.090  55.939   2.110  0.00  0.00     0.026 C 
ATOM      8  C18 15T d           7.353  55.894   0.597  0.00  0.00     0.091 C 
ATOM      9  C25 15T d           6.165  55.266  -0.152  0.00  0.00     0.026 C 
ATOM     10  C24 15T d           5.920  53.837   0.351  0.00  0.00     0.007 C 
BRANCH   8  11
ATOM     11  N6  15T d           7.675  57.244   0.090  0.00  0.00    -0.325 N 
ATOM     12  C5  15T d           8.845  57.549  -0.542  0.00  0.00     0.136 A 
ATOM     13  N9  15T d           8.866  58.791  -0.872  0.00  0.00    -0.229 NA
ATOM     14  C8  15T d           7.724  59.394  -0.485  0.00  0.00     0.104 A 
ATOM     15  C7  15T d           6.930  58.418   0.148  0.00  0.00     0.081 A 
ATOM     16  C10 15T d           7.264  60.706  -0.608  0.00  0.00     0.153 A 
ATOM     17  C13 15T d           5.668  58.847   0.628  0.00  0.00     0.041 A 
ATOM     18  C12 15T d           5.282  60.198   0.453  0.00  0.00     0.139 A 
ATOM     19  C14 15T d           4.547  58.209   1.305  0.00  0.00     0.034 A 
ATOM     20  N11 15T d           6.089  61.069  -0.147  0.00  0.00    -0.240 NA
ATOM     21  N16 15T d           4.040  60.341   0.986  0.00  0.00    -0.350 N 
ATOM     22  C15 15T d           3.595  59.141   1.486  0.00  0.00     0.091 A 
ATOM     23  H9  15T d           3.508  61.223   1.012  0.00  0.00     0.166 HD
BRANCH  12  24
ATOM     24  C2  15T d           9.970  56.584  -0.815  0.00  0.00     0.183 C 
ATOM     25  C1  15T d          10.936  57.174  -1.844  0.00  0.00     0.047 C 
BRANCH  24  26
ATOM     26  O4  15T d          10.613  56.293   0.445  0.00  0.00    -0.388 OA
ATOM     27  H5  15T d           9.975  55.930   1.048  0.00  0.00     0.210 HD
ENDBRANCH  24  26
ENDBRANCH  12  24
ENDBRANCH   8  11
ENDBRANCH   4   5
ENDBRANCH   1   4
TORSDOF 5
