REMARK  1 active torsions:
REMARK  status: ('A' for Active; 'I' for Inactive)
REMARK    1  A    between atoms: C17_18  and  C20_21 
ROOT
ATOM      1  C1  STR d          21.206   9.935  63.081  0.00  0.00     0.022 C 
ATOM      2  C2  STR d          21.241   9.446  64.551  0.00  0.00     0.084 C 
ATOM      3  C3  STR d          22.000   8.125  64.630  0.00  0.00     0.149 C 
ATOM      4  O3  STR d          21.701   7.301  65.512  0.00  0.00    -0.293 OA
ATOM      5  C4  STR d          23.118   7.872  63.734  0.00  0.00     0.053 C 
ATOM      6  C5  STR d          23.453   8.727  62.785  0.00  0.00    -0.068 C 
ATOM      7  C6  STR d          24.697   8.443  61.951  0.00  0.00     0.035 C 
ATOM      8  C7  STR d          24.449   8.637  60.443  0.00  0.00     0.010 C 
ATOM      9  C8  STR d          23.789   9.997  60.098  0.00  0.00    -0.004 C 
ATOM     10  C9  STR d          22.434  10.095  60.872  0.00  0.00     0.002 C 
ATOM     11  C10 STR d          22.614  10.023  62.434  0.00  0.00    -0.016 C 
ATOM     12  C11 STR d          21.633  11.354  60.450  0.00  0.00     0.007 C 
ATOM     13  C12 STR d          21.432  11.434  58.911  0.00  0.00     0.011 C 
ATOM     14  C13 STR d          22.786  11.404  58.169  0.00  0.00    -0.030 C 
ATOM     15  C14 STR d          23.483  10.060  58.598  0.00  0.00    -0.001 C 
ATOM     16  C15 STR d          24.674   9.918  57.618  0.00  0.00     0.006 C 
ATOM     17  C16 STR d          24.072  10.450  56.267  0.00  0.00     0.013 C 
ATOM     18  C17 STR d          22.714  11.149  56.627  0.00  0.00     0.063 C 
ATOM     19  C18 STR d          23.659  12.677  58.454  0.00  0.00     0.016 C 
ATOM     20  C19 STR d          23.427  11.246  63.007  0.00  0.00     0.020 C 
ENDROOT
BRANCH  18  21
ATOM     21  C20 STR d          22.375  12.388  55.781  0.00  0.00     0.128 C 
ATOM     22  O20 STR d          23.212  12.876  55.052  0.00  0.00    -0.298 OA
ATOM     23  C21 STR d          21.009  12.976  55.857  0.00  0.00     0.091 C 
ENDBRANCH  18  21
TORSDOF 1
