REMARK  3 active torsions:
REMARK  status: ('A' for Active; 'I' for Inactive)
REMARK    1  A    between atoms: C1_1  and  C7_7 
REMARK    2  A    between atoms: C7_7  and  N1_8 
REMARK    3  A    between atoms: C8_12  and  C1'_13 
ROOT
ATOM      1  C1  MOL d          11.816 -11.788  22.929  0.00  0.00     0.009 A 
ATOM      2  C2  MOL d          12.338 -10.514  22.597  0.00  0.00     0.017 A 
ATOM      3  C3  MOL d          13.245 -10.369  21.559  0.00  0.00     0.033 A 
ATOM      4  C4  MOL d          13.595 -11.502  20.890  0.00  0.00     0.062 A 
ATOM      5  C5  MOL d          13.127 -12.740  21.168  0.00  0.00     0.086 A 
ATOM      6  C6  MOL d          12.221 -12.928  22.196  0.00  0.00     0.049 A 
ATOM      7  N3  MOL d          14.394 -11.654  19.923  0.00  0.00    -0.338 N 
ATOM      8  N4  MOL d          13.619 -13.665  20.381  0.00  0.00    -0.228 NA
ATOM      9  C8  MOL d          14.407 -12.920  19.615  0.00  0.00     0.144 A 
ATOM     10  H8  MOL d          14.937 -10.911  19.461  0.00  0.00     0.167 HD
ENDROOT
BRANCH   9  11
ATOM     11  C1' MOL d          15.152 -13.417  18.552  0.00  0.00     0.078 A 
ATOM     12  C6' MOL d          16.113 -12.625  17.857  0.00  0.00     0.259 A 
ATOM     13  N5' MOL d          16.780 -13.155  16.855  0.00  0.00    -0.333 N 
ATOM     14  O6' MOL d          16.328 -11.469  18.179  0.00  0.00    -0.267 OA
ATOM     15  C4' MOL d          16.596 -14.401  16.462  0.00  0.00     0.091 A 
ATOM     16  H12 MOL d          17.452 -12.592  16.373  0.00  0.00     0.168 HD
ATOM     17  C3' MOL d          15.675 -15.234  17.095  0.00  0.00     0.018 A 
ATOM     18  C2' MOL d          14.944 -14.736  18.151  0.00  0.00     0.022 A 
ENDBRANCH   9  11
BRANCH   1  19
ATOM     19  C7  MOL d          10.922 -11.914  23.973  0.00  0.00     0.102 C 
ATOM     20  N2  MOL d          10.771 -10.913  24.817  0.00  0.00    -0.385 N 
ATOM     21  H6  MOL d          11.312 -10.046  24.690  0.00  0.00     0.157 HD
ATOM     22  H7  MOL d          10.112 -10.998  25.604  0.00  0.00     0.157 HD
BRANCH  19  23
ATOM     23  N1  MOL d          10.260 -13.030  24.092  0.00  0.00    -0.385 N 
ATOM     24  H4  MOL d           9.587 -13.150  24.862  0.00  0.00     0.157 HD
ATOM     25  H5  MOL d          10.410 -13.792  23.416  0.00  0.00     0.157 HD
ENDBRANCH  19  23
ENDBRANCH   1  19
TORSDOF 3
