REMARK  7 active torsions:
REMARK  status: ('A' for Active; 'I' for Inactive)
REMARK    1  A    between atoms: CAX_2  and  CAV_3 
REMARK    2  A    between atoms: CAV_3  and  CAU_4 
REMARK    3  A    between atoms: CAU_4  and  NAQ_5 
REMARK    4  A    between atoms: CAR_6  and  NAS_7 
REMARK    5  A    between atoms: CAI_13  and  NAJ_14 
REMARK    6  A    between atoms: NAJ_14  and  SAK_16 
REMARK    7  A    between atoms: SAK_16  and  CAL_19 
ROOT
ATOM      1  NAQ HNR d          38.067   3.698  10.009  0.00  0.00    -0.285 N 
ATOM      2  CAR HNR d          37.095   3.444   9.019  0.00  0.00     0.135 A 
ATOM      3  CAP HNR d          38.321   2.772  11.027  0.00  0.00     0.330 A 
ATOM      4  OAO HNR d          39.173   2.996  11.885  0.00  0.00    -0.246 OA
ATOM      5  NAG HNR d          37.604   1.606  11.074  0.00  0.00    -0.277 N 
ATOM      6  CAH HNR d          36.629   1.341  10.123  0.00  0.00     0.256 A 
ATOM      7  OAA HNR d          36.024   0.275  10.244  0.00  0.00    -0.270 OA
ATOM      8  CAI HNR d          36.355   2.253   9.080  0.00  0.00     0.256 A 
ATOM      9  H11 HNR d          37.784   0.941  11.799  0.00  0.00     0.173 HD
ENDROOT
BRANCH   8  10
ATOM     10  NAJ HNR d          35.423   1.955   8.169  0.00  0.00    -0.290 N 
ATOM     11  CAB HNR d          35.747   0.915   7.167  0.00  0.00     0.164 C 
BRANCH  10  12
ATOM     12  SAK HNR d          33.899   2.579   8.259  0.00  0.00     0.261 S 
ATOM     13  OAT HNR d          33.942   4.002   8.439  0.00  0.00    -0.200 OA
ATOM     14  OAC HNR d          33.065   2.220   7.075  0.00  0.00    -0.200 OA
BRANCH  12  15
ATOM     15  CAL HNR d          33.157   1.850   9.677  0.00  0.00     0.079 A 
ATOM     16  CAM HNR d          33.452   2.314  10.940  0.00  0.00     0.025 A 
ATOM     17  CAN HNR d          32.843   1.732  12.049  0.00  0.00     0.002 A 
ATOM     18  CAF HNR d          31.949   0.678  11.907  0.00  0.00     0.000 A 
ATOM     19  CAE HNR d          31.680   0.212  10.640  0.00  0.00     0.002 A 
ATOM     20  CAD HNR d          32.268   0.799   9.534  0.00  0.00     0.025 A 
ENDBRANCH  12  15
ENDBRANCH  10  12
ENDBRANCH   8  10
BRANCH   2  21
ATOM     21  NAS HNR d          36.889   4.358   8.069  0.00  0.00    -0.285 NA
ATOM     22  H10 HNR d          36.199   4.194   7.353  0.00  0.00     0.188 HD
ENDBRANCH   2  21
BRANCH   1  23
ATOM     23  CAU HNR d          38.828   4.944   9.988  0.00  0.00     0.135 C 
BRANCH  23  24
ATOM     24  CAV HNR d          37.953   6.019  10.622  0.00  0.00     0.020 C 
BRANCH  24  25
ATOM     25  CAX HNR d          38.600   6.656  11.840  0.00  0.00    -0.003 C 
ATOM     26  CAW HNR d          37.778   7.844  12.390  0.00  0.00     0.005 C 
ENDBRANCH  24  25
ENDBRANCH  23  24
ENDBRANCH   1  23
TORSDOF 7
