REMARK  25 active torsions:
REMARK  status: ('A' for Active; 'I' for Inactive)
REMARK    1  A    between atoms: N_1  and  CA_2 
REMARK    2  A    between atoms: CA_2  and  C_3 
REMARK    3  A    between atoms: CA_2  and  CB_5 
REMARK       I    between atoms: C_3  and  N_12 
REMARK    4  A    between atoms: CB_5  and  CG_6 
REMARK    5  A    between atoms: N_12  and  CA_13 
REMARK    6  A    between atoms: CA_13  and  C_14 
REMARK       I    between atoms: C_14  and  N_17 
REMARK    7  A    between atoms: CA_18  and  C_19 
REMARK       I    between atoms: C_19  and  N_24 
REMARK    8  A    between atoms: N_24  and  CA_25 
REMARK    9  A    between atoms: CA_25  and  C_26 
REMARK       I    between atoms: C_26  and  N_28 
REMARK   10  A    between atoms: N_28  and  CA_29 
REMARK   11  A    between atoms: CA_29  and  C_30 
REMARK   12  A    between atoms: CA_29  and  CB_32 
REMARK       I    between atoms: C_30  and  N_36 
REMARK   13  A    between atoms: CB_32  and  CG_33 
REMARK       I    between atoms: CG_33  and  ND2_35 
REMARK   14  A    between atoms: N_36  and  CA_37 
REMARK   15  A    between atoms: CA_37  and  C_38 
REMARK   16  A    between atoms: CA_37  and  CB_40 
REMARK       I    between atoms: C_38  and  N_48 
REMARK   17  A    between atoms: CB_40  and  CG_41 
REMARK   18  A    between atoms: CZ_46  and  OH_47 
REMARK   19  A    between atoms: CA_49  and  C_50 
REMARK       I    between atoms: C_50  and  N_55 
REMARK   20  A    between atoms: N_55  and  CA_56 
REMARK   21  A    between atoms: CA_56  and  C_57 
REMARK       I    between atoms: C_57  and  N_60 
REMARK   22  A    between atoms: N_60  and  CA_61 
REMARK   23  A    between atoms: CA_61  and  C_62 
REMARK   24  A    between atoms: CA_61  and  CB_64 
REMARK   25  A    between atoms: CB_64  and  CG_65 
ROOT
ATOM      1  CA  PHE d          61.360  25.922  -4.748  0.00  0.00     0.185 C 
ENDROOT
BRANCH   1   2
ATOM      2  N   PHE d          61.162  25.197  -3.502  0.00  0.00    -0.346 N 
ATOM      3  C   PHE d          61.562  25.695  -2.338  0.00  0.00     0.236 C 
ATOM      4  O   PHE d          62.143  26.774  -2.236  0.00  0.00    -0.272 OA
ATOM      5  H27 PHE d          60.714  24.303  -3.523  0.00  0.00     0.163 HD
BRANCH   3   6
ATOM      6  CA  PHE d          61.272  24.873  -1.103  0.00  0.00     0.225 C 
BRANCH   6   7
ATOM      7  N   PHE d          60.509  23.646  -1.345  0.00  0.00    -0.351 N 
ATOM      8  C   PHE d          59.187  23.587  -1.209  0.00  0.00     0.241 C 
ATOM      9  O   PHE d          58.489  24.544  -0.859  0.00  0.00    -0.271 OA
ATOM     10  H24 PHE d          61.001  22.821  -1.623  0.00  0.00     0.163 HD
BRANCH   8  11
ATOM     11  CA  PHE d          58.531  22.237  -1.488  0.00  0.00     0.179 C 
ATOM     12  N   PHE d          57.575  21.911  -0.431  0.00  0.00    -0.337 N 
ATOM     13  C   PHE d          57.990  21.821   0.843  0.00  0.00     0.243 C 
ATOM     14  CD  PHE d          56.215  21.698  -0.955  0.00  0.00     0.127 C 
ATOM     15  O   PHE d          59.179  21.792   1.152  0.00  0.00    -0.271 OA
ATOM     16  CG  PHE d          56.428  21.558  -2.428  0.00  0.00     0.022 A 
ATOM     17  CB  PHE d          57.663  22.327  -2.745  0.00  0.00     0.037 C 
BRANCH  13  18
ATOM     18  CA  PHE d          56.912  21.742   1.915  0.00  0.00     0.172 C 
ATOM     19  CB  PHE d          56.378  23.136   2.211  0.00  0.00     0.042 C 
BRANCH  18  20
ATOM     20  N   PHE d          57.400  21.130   3.142  0.00  0.00    -0.346 N 
ATOM     21  C   PHE d          57.692  19.837   3.222  0.00  0.00     0.249 C 
ATOM     22  O   PHE d          57.735  19.088   2.242  0.00  0.00    -0.271 OA
ATOM     23  H12 PHE d          57.520  21.703   3.953  0.00  0.00     0.163 HD
BRANCH  21  24
ATOM     24  CA  PHE d          57.961  19.312   4.629  0.00  0.00     0.278 C 
BRANCH  24  25
ATOM     25  N   PHE d          56.766  18.539   5.082  0.00  0.00    -0.066 N 
ATOM     26  H1  PHE d          56.928  18.185   6.012  0.00  0.00     0.275 HD
ATOM     27  H2  PHE d          56.605  17.769   4.452  0.00  0.00     0.275 HD
ATOM     28  H3  PHE d          55.958  19.142   5.088  0.00  0.00     0.275 HD
ENDBRANCH  24  25
BRANCH  24  29
ATOM     29  CB  PHE d          59.202  18.422   4.676  0.00  0.00     0.081 C 
BRANCH  29  30
ATOM     30  CG  PHE d          60.513  19.158   4.558  0.00  0.00    -0.056 A 
ATOM     31  CD1 PHE d          61.167  19.633   5.691  0.00  0.00     0.007 A 
ATOM     32  CE1 PHE d          62.394  20.280   5.592  0.00  0.00     0.001 A 
ATOM     33  CZ  PHE d          62.988  20.449   4.354  0.00  0.00     0.000 A 
ATOM     34  CE2 PHE d          62.359  19.968   3.216  0.00  0.00     0.001 A 
ATOM     35  CD2 PHE d          61.130  19.321   3.321  0.00  0.00     0.007 A 
ENDBRANCH  29  30
ENDBRANCH  24  29
ENDBRANCH  21  24
ENDBRANCH  18  20
ENDBRANCH  13  18
ENDBRANCH   8  11
ENDBRANCH   6   7
ENDBRANCH   3   6
ENDBRANCH   1   2
BRANCH   1  36
ATOM     36  C   PHE d          60.228  25.642  -5.730  0.00  0.00     0.241 C 
ATOM     37  O   PHE d          59.977  24.491  -6.090  0.00  0.00    -0.271 OA
ATOM     38  N   PHE d          59.532  26.703  -6.127  0.00  0.00    -0.346 N 
ATOM     39  H33 PHE d          59.622  27.558  -5.617  0.00  0.00     0.163 HD
BRANCH  38  40
ATOM     40  CA  PHE d          58.646  26.663  -7.275  0.00  0.00     0.181 C 
BRANCH  40  41
ATOM     41  C   PHE d          59.306  27.516  -8.348  0.00  0.00     0.243 C 
ATOM     42  O   PHE d          59.281  28.742  -8.258  0.00  0.00    -0.271 OA
ATOM     43  N   PHE d          59.924  26.875  -9.358  0.00  0.00    -0.337 N 
ATOM     44  CA  PHE d          60.585  27.669 -10.399  0.00  0.00     0.179 C 
ATOM     45  CD  PHE d          60.051  25.426  -9.602  0.00  0.00     0.127 C 
ATOM     46  CB  PHE d          61.086  26.614 -11.397  0.00  0.00     0.037 C 
ATOM     47  CG  PHE d          60.354  25.356 -11.063  0.00  0.00     0.022 A 
BRANCH  44  48
ATOM     48  C   PHE d          59.625  28.641 -11.074  0.00  0.00     0.241 C 
ATOM     49  O   PHE d          58.421  28.402 -11.099  0.00  0.00    -0.271 OA
ATOM     50  N   PHE d          60.165  29.726 -11.614  0.00  0.00    -0.346 N 
ATOM     51  H49 PHE d          61.160  29.823 -11.614  0.00  0.00     0.163 HD
BRANCH  50  52
ATOM     52  CA  PHE d          59.353  30.779 -12.207  0.00  0.00     0.172 C 
ATOM     53  CB  PHE d          60.209  32.004 -12.492  0.00  0.00     0.042 C 
BRANCH  52  54
ATOM     54  C   PHE d          58.677  30.303 -13.485  0.00  0.00     0.240 C 
ATOM     55  O   PHE d          59.249  29.524 -14.245  0.00  0.00    -0.271 OA
ATOM     56  N   PHE d          57.459  30.786 -13.716  0.00  0.00    -0.345 N 
ATOM     57  H54 PHE d          57.043  31.398 -13.043  0.00  0.00     0.163 HD
BRANCH  56  58
ATOM     58  CA  PHE d          56.713  30.447 -14.926  0.00  0.00     0.185 C 
BRANCH  58  59
ATOM     59  C   PHE d          57.307  31.139 -16.148  0.00  0.00     0.196 C 
ATOM     60  O   PHE d          58.017  32.146 -16.036  0.00  0.00    -0.646 OA
ATOM     61  OXT PHE d          57.078  30.694 -17.275  0.00  0.00    -0.646 OA
ENDBRANCH  58  59
BRANCH  58  62
ATOM     62  CB  PHE d          55.236  30.834 -14.787  0.00  0.00     0.040 C 
BRANCH  62  63
ATOM     63  CG  PHE d          54.464  30.234 -13.605  0.00  0.00    -0.020 A 
ATOM     64  CD1 PHE d          53.027  30.730 -13.591  0.00  0.00     0.009 A 
ATOM     65  CD2 PHE d          54.500  28.718 -13.622  0.00  0.00     0.009 A 
ENDBRANCH  62  63
ENDBRANCH  58  62
ENDBRANCH  56  58
ENDBRANCH  52  54
ENDBRANCH  50  52
ENDBRANCH  44  48
ENDBRANCH  40  41
BRANCH  40  66
ATOM     66  CB  PHE d          57.273  27.235  -6.942  0.00  0.00     0.073 C 
BRANCH  66  67
ATOM     67  CG  PHE d          56.503  26.452  -5.910  0.00  0.00    -0.056 A 
ATOM     68  CD1 PHE d          56.541  26.816  -4.572  0.00  0.00     0.010 A 
ATOM     69  CE1 PHE d          55.833  26.109  -3.616  0.00  0.00     0.037 A 
ATOM     70  CZ  PHE d          55.072  25.027  -3.995  0.00  0.00     0.065 A 
ATOM     71  CE2 PHE d          55.009  24.644  -5.319  0.00  0.00     0.037 A 
ATOM     72  CD2 PHE d          55.723  25.357  -6.269  0.00  0.00     0.010 A 
BRANCH  70  73
ATOM     73  OH  PHE d          54.369  24.336  -3.041  0.00  0.00    -0.361 OA
ATOM     74  H41 PHE d          54.523  24.729  -2.190  0.00  0.00     0.217 HD
ENDBRANCH  70  73
ENDBRANCH  66  67
ENDBRANCH  40  66
ENDBRANCH  38  40
ENDBRANCH   1  36
BRANCH   1  75
ATOM     75  CB  PHE d          62.704  25.546  -5.384  0.00  0.00     0.137 C 
BRANCH  75  76
ATOM     76  CG  PHE d          62.933  26.230  -6.726  0.00  0.00     0.217 A 
ATOM     77  OD1 PHE d          62.354  27.277  -7.013  0.00  0.00    -0.274 OA
ATOM     78  ND2 PHE d          63.781  25.636  -7.557  0.00  0.00    -0.370 N 
ATOM     79  H31 PHE d          63.970  26.040  -8.452  0.00  0.00     0.159 HD
ATOM     80  H32 PHE d          64.231  24.784  -7.288  0.00  0.00     0.159 HD
ENDBRANCH  75  76
ENDBRANCH   1  75
TORSDOF 25
