REMARK  14 active torsions:
REMARK  status: ('A' for Active; 'I' for Inactive)
REMARK    1  A    between atoms: C1_2  and  C3_3 
REMARK    2  A    between atoms: C3_3  and  C5_4 
REMARK    3  A    between atoms: C5_4  and  C7_5 
REMARK    4  A    between atoms: C6_6  and  C9_8 
REMARK    5  A    between atoms: C9_8  and  O8_9 
REMARK    6  A    between atoms: O8_9  and  C11_10 
REMARK    7  A    between atoms: C11_10  and  C17_11 
REMARK    8  A    between atoms: C14_15  and  C15_17 
REMARK    9  A    between atoms: C15_17  and  C19_19 
REMARK   10  A    between atoms: C2_25  and  C10_26 
REMARK   11  A    between atoms: C10_26  and  O3_27 
REMARK   12  A    between atoms: O3_27  and  P2_28 
REMARK   13  A    between atoms: P2_28  and  O2_31 
REMARK   14  A    between atoms: O2_31  and  P1_32 
ROOT
ATOM      1  C7  MOL d         189.786 121.316  31.551  0.00  0.00    -0.022 C 
ATOM      2  C6  MOL d         188.792 121.327  32.469  0.00  0.00    -0.064 C 
ATOM      3  C8  MOL d         188.885 122.183  33.704  0.00  0.00     0.045 C 
ENDROOT
BRANCH   2   4
ATOM      4  C9  MOL d         187.548 120.476  32.290  0.00  0.00     0.201 C 
BRANCH   4   5
ATOM      5  O8  MOL d         186.407 121.114  32.882  0.00  0.00    -0.383 OA
BRANCH   5   6
ATOM      6  C11 MOL d         185.159 120.465  32.534  0.00  0.00     0.206 C 
BRANCH   6   7
ATOM      7  C17 MOL d         184.497 121.198  31.386  0.00  0.00    -0.034 A 
ATOM      8  C18 MOL d         183.347 120.693  30.756  0.00  0.00     0.009 A 
ATOM      9  C12 MOL d         182.781 121.417  29.693  0.00  0.00     0.002 A 
ATOM     10  C13 MOL d         183.359 122.639  29.264  0.00  0.00     0.015 A 
ATOM     11  C14 MOL d         184.510 123.141  29.903  0.00  0.00     0.015 A 
ATOM     12  C16 MOL d         185.054 122.407  30.959  0.00  0.00     0.024 A 
BRANCH  11  13
ATOM     13  C15 MOL d         185.207 124.414  29.555  0.00  0.00     0.192 C 
ATOM     14  O9  MOL d         186.114 124.831  30.282  0.00  0.00    -0.287 OA
BRANCH  13  15
ATOM     15  C19 MOL d         184.834 125.175  28.345  0.00  0.00     0.015 A 
ATOM     16  C24 MOL d         184.036 124.638  27.323  0.00  0.00     0.015 A 
ATOM     17  C23 MOL d         183.830 125.360  26.138  0.00  0.00     0.001 A 
ATOM     18  C22 MOL d         184.405 126.627  25.973  0.00  0.00     0.000 A 
ATOM     19  C21 MOL d         185.150 127.197  27.014  0.00  0.00     0.001 A 
ATOM     20  C20 MOL d         185.356 126.475  28.197  0.00  0.00     0.015 A 
ENDBRANCH  13  15
ENDBRANCH  11  13
ENDBRANCH   6   7
ENDBRANCH   5   6
ENDBRANCH   4   5
ENDBRANCH   2   4
BRANCH   1  21
ATOM     21  C5  MOL d         191.054 122.160  31.691  0.00  0.00     0.031 C 
BRANCH  21  22
ATOM     22  C3  MOL d         191.845 122.107  30.357  0.00  0.00     0.037 C 
BRANCH  22  23
ATOM     23  C1  MOL d         193.176 122.900  30.381  0.00  0.00    -0.085 C 
ATOM     24  C4  MOL d         193.647 123.491  29.052  0.00  0.00     0.043 C 
ATOM     25  C2  MOL d         193.918 123.078  31.504  0.00  0.00     0.002 C 
BRANCH  25  26
ATOM     26  C10 MOL d         195.230 123.854  31.514  0.00  0.00     0.209 C 
BRANCH  26  27
ATOM     27  O3  MOL d         195.114 125.098  32.278  0.00  0.00    -0.286 OA
BRANCH  27  28
ATOM     28  P2  MOL d         196.348 125.595  33.119  0.00  0.00     0.418 P 
ATOM     29  O7  MOL d         196.104 127.100  33.353  0.00  0.00    -0.624 OA
ATOM     30  O1  MOL d         197.672 125.339  32.464  0.00  0.00    -0.624 OA
BRANCH  28  31
ATOM     31  O2  MOL d         196.241 124.947  34.531  0.00  0.00    -0.173 OA
BRANCH  31  32
ATOM     32  P1  MOL d         197.075 123.860  35.278  0.00  0.00     0.431 P 
ATOM     33  O4  MOL d         196.278 123.614  36.586  0.00  0.00    -0.616 OA
ATOM     34  O5  MOL d         196.984 122.604  34.384  0.00  0.00    -0.616 OA
ATOM     35  O6  MOL d         198.478 124.291  35.532  0.00  0.00    -0.616 OA
ENDBRANCH  31  32
ENDBRANCH  28  31
ENDBRANCH  27  28
ENDBRANCH  26  27
ENDBRANCH  25  26
ENDBRANCH  22  23
ENDBRANCH  21  22
ENDBRANCH   1  21
TORSDOF 14
