REMARK  8 active torsions:
REMARK  status: ('A' for Active; 'I' for Inactive)
REMARK    1  A    between atoms: C5_5  and  N6_6 
REMARK    2  A    between atoms: N6_6  and  C7_7 
REMARK    3  A    between atoms: C14_14  and  C15_15 
REMARK    4  A    between atoms: C19_18  and  C21_20 
REMARK       I    between atoms: C21_20  and  N23_22 
REMARK    5  A    between atoms: N23_22  and  C24_23 
REMARK    6  A    between atoms: C24_23  and  C26_24 
REMARK    7  A    between atoms: C24_23  and  C28_26 
REMARK    8  A    between atoms: C26_24  and  O27_25 
ROOT
ATOM      1  C15 Z48 d          37.890  35.151  54.288  0.00  0.00     0.012 A 
ATOM      2  C16 Z48 d          37.465  36.235  54.950  0.00  0.00     0.102 A 
ATOM      3  N17 Z48 d          36.676  35.823  55.902  0.00  0.00    -0.361 N 
ATOM      4  C19 Z48 d          36.547  34.477  55.899  0.00  0.00     0.101 A 
ATOM      5  C20 Z48 d          37.298  34.035  54.875  0.00  0.00     0.050 A 
ATOM      6  H12 Z48 d          36.208  36.447  56.575  0.00  0.00     0.165 HD
ENDROOT
BRANCH   1   7
ATOM      7  C14 Z48 d          38.744  35.302  53.121  0.00  0.00     0.095 A 
ATOM      8  C2  Z48 d          38.958  34.378  52.094  0.00  0.00    -0.013 A 
ATOM      9  C1  Z48 d          38.400  33.003  52.049  0.00  0.00     0.052 C 
ATOM     10  C3  Z48 d          39.746  34.777  51.068  0.00  0.00     0.145 A 
ATOM     11  N4  Z48 d          40.229  35.972  51.076  0.00  0.00    -0.074 NA
ATOM     12  C5  Z48 d          40.002  36.811  52.032  0.00  0.00     0.727 A 
ATOM     13  N13 Z48 d          39.265  36.481  53.039  0.00  0.00    -0.061 NA
BRANCH  12  14
ATOM     14  N6  Z48 d          40.606  38.022  51.894  0.00  0.00    -0.188 N 
ATOM     15  H5  Z48 d          41.074  38.145  50.985  0.00  0.00     0.184 HD
BRANCH  14  16
ATOM     16  C7  Z48 d          40.721  39.125  52.726  0.00  0.00     0.049 A 
ATOM     17  C8  Z48 d          41.195  40.283  52.149  0.00  0.00     0.030 A 
ATOM     18  C9  Z48 d          41.360  41.422  52.879  0.00  0.00     0.002 A 
ATOM     19  C10 Z48 d          41.054  41.416  54.208  0.00  0.00     0.000 A 
ATOM     20  C11 Z48 d          40.580  40.271  54.796  0.00  0.00     0.002 A 
ATOM     21  C12 Z48 d          40.416  39.132  54.064  0.00  0.00     0.030 A 
ENDBRANCH  14  16
ENDBRANCH  12  14
ENDBRANCH   1   7
BRANCH   4  22
ATOM     22  C21 Z48 d          35.741  33.705  56.863  0.00  0.00     0.268 C 
ATOM     23  O22 Z48 d          35.291  32.646  56.618  0.00  0.00    -0.266 OA
ATOM     24  N23 Z48 d          35.518  34.226  58.059  0.00  0.00    -0.345 N 
ATOM     25  H14 Z48 d          35.936  35.118  58.232  0.00  0.00     0.163 HD
BRANCH  24  26
ATOM     26  C24 Z48 d          34.749  33.671  59.142  0.00  0.00     0.141 C 
BRANCH  26  27
ATOM     27  C26 Z48 d          34.346  34.870  59.952  0.00  0.00     0.194 C 
BRANCH  27  28
ATOM     28  O27 Z48 d          33.418  35.559  59.198  0.00  0.00    -0.399 OA
ATOM     29  H18 Z48 d          33.134  36.330  59.675  0.00  0.00     0.209 HD
ENDBRANCH  27  28
ENDBRANCH  26  27
BRANCH  26  30
ATOM     30  C28 Z48 d          35.500  32.784  60.065  0.00  0.00    -0.033 A 
ATOM     31  C29 Z48 d          34.795  31.922  60.843  0.00  0.00     0.009 A 
ATOM     32  C30 Z48 d          35.421  31.105  61.708  0.00  0.00     0.001 A 
ATOM     33  C31 Z48 d          36.776  31.154  61.785  0.00  0.00     0.000 A 
ATOM     34  C32 Z48 d          37.484  32.018  61.010  0.00  0.00     0.001 A 
ATOM     35  C33 Z48 d          36.843  32.840  60.142  0.00  0.00     0.009 A 
ENDBRANCH  26  30
ENDBRANCH  24  26
ENDBRANCH   4  22
TORSDOF 8
