REMARK  14 active torsions:
REMARK  status: ('A' for Active; 'I' for Inactive)
REMARK       I    between atoms: N1_26  and  C3_3 
REMARK    1  A    between atoms: C3_3  and  O1_29 
REMARK    2  A    between atoms: O1_29  and  C4_4 
REMARK    3  A    between atoms: C6_6  and  C5_5 
REMARK    4  A    between atoms: C5_5  and  C7_7 
REMARK    5  A    between atoms: C5_5  and  N1_26 
REMARK    6  A    between atoms: C14_14  and  C6_6 
REMARK    7  A    between atoms: C6_6  and  O3_31 
REMARK    8  A    between atoms: C7_7  and  C8_8 
REMARK    9  A    between atoms: N2_27  and  C14_14 
REMARK   10  A    between atoms: C15_15  and  C16_16 
REMARK   11  A    between atoms: N2_27  and  C15_15 
REMARK   12  A    between atoms: S1_35  and  C17_17 
REMARK   13  A    between atoms: C20_20  and  N3_28 
REMARK   14  A    between atoms: N2_27  and  S1_35 
ROOT
ATOM      1  C6  MOL d           5.167  -0.686  15.605  0.00  0.00     0.160 C 
ENDROOT
BRANCH   1   2
ATOM      2  C5  MOL d           5.695  -0.311  14.144  0.00  0.00     0.121 C 
BRANCH   2   3
ATOM      3  C7  MOL d           7.062   0.520  13.994  0.00  0.00     0.066 C 
BRANCH   3   4
ATOM      4  C8  MOL d           7.388   0.797  12.550  0.00  0.00    -0.056 A 
ATOM      5  C9  MOL d           6.964   2.073  11.975  0.00  0.00     0.007 A 
ATOM      6  C11 MOL d           7.226   2.404  10.584  0.00  0.00     0.001 A 
ATOM      7  C13 MOL d           7.927   1.463   9.735  0.00  0.00     0.000 A 
ATOM      8  C12 MOL d           8.364   0.166  10.311  0.00  0.00     0.001 A 
ATOM      9  C10 MOL d           8.097  -0.176  11.717  0.00  0.00     0.007 A 
ENDBRANCH   3   4
ENDBRANCH   2   3
BRANCH   2  10
ATOM     10  N1  MOL d           4.655   0.461  13.481  0.00  0.00    -0.329 N 
ATOM     11  C3  MOL d           3.825   0.093  12.525  0.00  0.00     0.361 C 
ATOM     12  O2  MOL d           3.639  -0.990  12.113  0.00  0.00    -0.238 OA
ATOM     13  H32 MOL d           4.556   1.405  13.795  0.00  0.00     0.165 HD
BRANCH  11  14
ATOM     14  O1  MOL d           3.184   1.265  12.109  0.00  0.00    -0.296 OA
BRANCH  14  15
ATOM     15  C4  MOL d           2.169   1.359  11.098  0.00  0.00     0.159 C 
ATOM     16  C1  MOL d           2.007   2.816  10.635  0.00  0.00     0.200 C 
ATOM     17  O6  MOL d           0.820   3.365  11.258  0.00  0.00    -0.389 OA
ATOM     18  C25 MOL d          -0.028   2.294  11.619  0.00  0.00     0.170 C 
ATOM     19  C2  MOL d           0.820   1.025  11.742  0.00  0.00     0.061 C 
ENDBRANCH  14  15
ENDBRANCH  11  14
ENDBRANCH   2  10
ENDBRANCH   1   2
BRANCH   1  20
ATOM     20  C14 MOL d           5.757  -1.856  16.550  0.00  0.00     0.169 C 
BRANCH  20  21
ATOM     21  N2  MOL d           5.865  -3.337  16.211  0.00  0.00    -0.304 N 
BRANCH  21  22
ATOM     22  C15 MOL d           4.566  -4.270  16.225  0.00  0.00     0.139 C 
BRANCH  22  23
ATOM     23  C16 MOL d           3.196  -3.761  15.820  0.00  0.00    -0.004 C 
ATOM     24  C23 MOL d           2.544  -2.856  16.857  0.00  0.00     0.011 C 
ATOM     25  C24 MOL d           3.116  -3.164  14.391  0.00  0.00     0.011 C 
ENDBRANCH  22  23
ENDBRANCH  21  22
BRANCH  21  26
ATOM     26  S1  MOL d           7.035  -3.736  14.911  0.00  0.00     0.260 S 
ATOM     27  O4  MOL d           7.606  -2.581  14.235  0.00  0.00    -0.200 OA
ATOM     28  O5  MOL d           6.640  -4.784  14.020  0.00  0.00    -0.200 OA
BRANCH  26  29
ATOM     29  C17 MOL d           8.316  -4.428  15.809  0.00  0.00     0.079 A 
ATOM     30  C18 MOL d           9.532  -3.698  16.142  0.00  0.00     0.027 A 
ATOM     31  C19 MOL d          10.550  -4.346  16.946  0.00  0.00     0.030 A 
ATOM     32  C20 MOL d          10.324  -5.701  17.396  0.00  0.00     0.025 A 
ATOM     33  C21 MOL d           9.140  -6.404  17.065  0.00  0.00     0.030 A 
ATOM     34  C22 MOL d           8.138  -5.763  16.273  0.00  0.00     0.027 A 
BRANCH  32  35
ATOM     35  N3  MOL d          11.217  -6.303  18.124  0.00  0.00    -0.399 N 
ATOM     36  H33 MOL d          12.087  -5.815  18.380  0.00  0.00     0.156 HD
ATOM     37  H34 MOL d          11.054  -7.268  18.445  0.00  0.00     0.156 HD
ENDBRANCH  32  35
ENDBRANCH  26  29
ENDBRANCH  21  26
ENDBRANCH  20  21
ENDBRANCH   1  20
BRANCH   1  38
ATOM     38  O3  MOL d           5.280   0.439  16.409  0.00  0.00    -0.392 OA
ATOM     39  H35 MOL d           4.954   1.197  15.938  0.00  0.00     0.210 HD
ENDBRANCH   1  38
TORSDOF 14
