REMARK  7 active torsions:
REMARK  status: ('A' for Active; 'I' for Inactive)
REMARK    1  A    between atoms: PAX_2  and  CAN_5 
REMARK    2  A    between atoms: CAN_5  and  CAS_6 
REMARK       I    between atoms: CAS_6  and  NAP_8 
REMARK    3  A    between atoms: NAP_8  and  CAU_9 
REMARK    4  A    between atoms: CAW_12  and  CAR_13 
REMARK    5  A    between atoms: CAV_17  and  NAQ_18 
REMARK       I    between atoms: NAQ_18  and  CAT_19 
REMARK    6  A    between atoms: CAT_19  and  CAO_21 
REMARK    7  A    between atoms: CAO_21  and  PAY_22 
ROOT
ATOM      1  CAU EOZ d          39.802  29.776  18.944  0.00  0.00     0.037 A 
ATOM      2  CAK EOZ d          40.545  29.813  17.772  0.00  0.00     0.059 A 
ATOM      3  CAL EOZ d          40.470  29.899  20.167  0.00  0.00     0.048 A 
ATOM      4  CAW EOZ d          41.850  30.098  20.192  0.00  0.00     0.045 A 
ATOM      5  CAM EOZ d          42.584  30.107  19.011  0.00  0.00     0.048 A 
ATOM      6  CAV EOZ d          41.934  29.949  17.790  0.00  0.00     0.037 A 
ENDROOT
BRANCH   1   7
ATOM      7  NAP EOZ d          38.521  29.446  18.804  0.00  0.00    -0.327 N 
ATOM      8  CAS EOZ d          37.612  29.048  19.692  0.00  0.00     0.235 C 
ATOM      9  OAB EOZ d          36.416  28.891  19.389  0.00  0.00    -0.273 OA
ATOM     10  H3  EOZ d          38.180  29.508  17.866  0.00  0.00     0.169 HD
BRANCH   8  11
ATOM     11  CAN EOZ d          38.040  28.808  21.131  0.00  0.00     0.248 C 
BRANCH  11  12
ATOM     12  PAX EOZ d          38.268  27.016  21.291  0.00  0.00     0.268 P 
ATOM     13  OAD EOZ d          37.002  26.305  20.593  0.00  0.00    -0.639 OA
ATOM     14  OAH EOZ d          39.519  26.638  20.347  0.00  0.00    -0.639 OA
ATOM     15  OAG EOZ d          38.432  26.562  22.691  0.00  0.00    -0.639 OA
ENDBRANCH  11  12
ENDBRANCH   8  11
ENDBRANCH   1   7
BRANCH   6  16
ATOM     16  NAQ EOZ d          42.674  29.694  16.717  0.00  0.00    -0.327 N 
ATOM     17  CAT EOZ d          42.144  29.248  15.577  0.00  0.00     0.235 C 
ATOM     18  OAC EOZ d          40.947  28.999  15.429  0.00  0.00    -0.273 OA
ATOM     19  H7  EOZ d          43.662  29.841  16.765  0.00  0.00     0.169 HD
BRANCH  17  20
ATOM     20  CAO EOZ d          43.151  29.004  14.449  0.00  0.00     0.248 C 
BRANCH  20  21
ATOM     21  PAY EOZ d          42.324  28.727  12.858  0.00  0.00     0.268 P 
ATOM     22  OAI EOZ d          41.323  27.481  13.095  0.00  0.00    -0.639 OA
ATOM     23  OAE EOZ d          43.453  28.201  11.831  0.00  0.00    -0.639 OA
ATOM     24  OAJ EOZ d          41.637  29.943  12.357  0.00  0.00    -0.639 OA
ENDBRANCH  20  21
ENDBRANCH  17  20
ENDBRANCH   6  16
BRANCH   4  25
ATOM     25  CAR EOZ d          42.587  30.407  21.499  0.00  0.00     0.209 C 
ATOM     26  OAA EOZ d          43.835  30.348  21.485  0.00  0.00    -0.644 OA
ATOM     27  OAF EOZ d          41.907  30.718  22.505  0.00  0.00    -0.644 OA
ENDBRANCH   4  25
TORSDOF 7
