REMARK  8 active torsions:
REMARK  status: ('A' for Active; 'I' for Inactive)
REMARK    1  A    between atoms: O5'_22  and  P_1 
REMARK    2  A    between atoms: C1'_11  and  C1_2 
REMARK    3  A    between atoms: C2_5  and  O1_4 
REMARK    4  A    between atoms: C3_8  and  C4_10 
REMARK       I    between atoms: C4_10  and  N3_9 
REMARK    5  A    between atoms: C2'_13  and  O2'_14 
REMARK    6  A    between atoms: C3'_16  and  O3'_17 
REMARK    7  A    between atoms: C5'_21  and  C4'_19 
REMARK    8  A    between atoms: C5'_21  and  O5'_22 
ROOT
ATOM      1  C1' PFU d          23.624  -8.182  16.141  0.00  0.00     0.209 C 
ATOM      2  C2' PFU d          23.373  -9.310  17.137  0.00  0.00     0.184 C 
ATOM      3  C3' PFU d          24.759  -9.820  17.474  0.00  0.00     0.180 C 
ATOM      4  C4' PFU d          25.531  -9.562  16.193  0.00  0.00     0.178 C 
ATOM      5  O4' PFU d          24.944  -8.402  15.599  0.00  0.00    -0.367 OA
ENDROOT
BRANCH   1   6
ATOM      6  C1  PFU d          22.691  -8.218  15.015  0.00  0.00     0.121 A 
ATOM      7  C2  PFU d          21.889  -7.140  14.491  0.00  0.00     0.128 A 
ATOM      8  C3  PFU d          21.103  -7.559  13.359  0.00  0.00     0.153 A 
ATOM      9  N1  PFU d          21.452  -8.865  13.209  0.00  0.00    -0.270 N 
ATOM     10  N2  PFU d          22.381  -9.247  14.192  0.00  0.00    -0.173 NA
ATOM     11  H1  PFU d          21.086  -9.489  12.476  0.00  0.00     0.189 HD
BRANCH   7  12
ATOM     12  O1  PFU d          21.864  -5.794  14.971  0.00  0.00    -0.356 OA
ATOM     13  H2  PFU d          21.252  -5.285  14.452  0.00  0.00     0.218 HD
ENDBRANCH   7  12
BRANCH   8  14
ATOM     14  C4  PFU d          20.250  -6.709  12.540  0.00  0.00     0.270 C 
ATOM     15  O2  PFU d          19.987  -5.537  12.895  0.00  0.00    -0.266 OA
ATOM     16  N3  PFU d          19.877  -7.235  11.418  0.00  0.00    -0.365 N 
ATOM     17  H3  PFU d          20.125  -8.179  11.202  0.00  0.00     0.159 HD
ATOM     18  H4  PFU d          19.341  -6.697  10.767  0.00  0.00     0.159 HD
ENDBRANCH   8  14
ENDBRANCH   1   6
BRANCH   2  19
ATOM     19  O2' PFU d          22.715  -8.810  18.318  0.00  0.00    -0.390 OA
ATOM     20  H7  PFU d          23.263  -8.152  18.730  0.00  0.00     0.210 HD
ENDBRANCH   2  19
BRANCH   3  21
ATOM     21  O3' PFU d          25.344  -9.040  18.526  0.00  0.00    -0.390 OA
ATOM     22  H9  PFU d          24.798  -9.097  19.302  0.00  0.00     0.210 HD
ENDBRANCH   3  21
BRANCH   4  23
ATOM     23  C5' PFU d          25.406 -10.725  15.211  0.00  0.00     0.217 C 
BRANCH  23  24
ATOM     24  O5' PFU d          26.086 -11.814  15.810  0.00  0.00    -0.280 OA
BRANCH  24  25
ATOM     25  P   PFU d          26.499 -13.177  15.051  0.00  0.00     0.422 P 
ATOM     26  O1P PFU d          27.494 -12.801  14.002  0.00  0.00    -0.617 OA
ATOM     27  O2P PFU d          25.228 -13.753  14.494  0.00  0.00    -0.617 OA
ATOM     28  O3P PFU d          27.129 -13.932  16.153  0.00  0.00    -0.617 OA
ENDBRANCH  24  25
ENDBRANCH  23  24
ENDBRANCH   4  23
TORSDOF 8
