REMARK  7 active torsions:
REMARK  status: ('A' for Active; 'I' for Inactive)
REMARK    1  A    between atoms: C10_2  and  C22_4 
REMARK    2  A    between atoms: C21_9  and  C17_10 
REMARK    3  A    between atoms: C17_10  and  N6_11 
REMARK    4  A    between atoms: N4_18  and  CB_19 
REMARK    5  A    between atoms: CB_19  and  CA_20 
REMARK    6  A    between atoms: CA_20  and  N_21 
REMARK    7  A    between atoms: CA_20  and  C_22 
ROOT
ATOM      1  N6  UBC d          -4.301  -3.902  15.466  0.00  0.00    -0.262 N 
ATOM      2  C5  UBC d          -5.589  -4.439  15.596  0.00  0.00     0.331 A 
ATOM      3  O8  UBC d          -5.767  -5.679  15.644  0.00  0.00    -0.246 OA
ATOM      4  C1  UBC d          -4.141  -2.515  15.414  0.00  0.00     0.253 A 
ATOM      5  O7  UBC d          -2.990  -2.090  15.280  0.00  0.00    -0.268 OA
ATOM      6  C2  UBC d          -5.230  -1.663  15.506  0.00  0.00     0.092 A 
ATOM      7  C3  UBC d          -6.503  -2.214  15.641  0.00  0.00     0.101 A 
ATOM      8  N4  UBC d          -6.687  -3.543  15.698  0.00  0.00    -0.307 N 
ENDROOT
BRANCH   1   9
ATOM      9  C17 UBC d          -3.081  -4.713  15.331  0.00  0.00     0.176 C 
BRANCH   9  10
ATOM     10  C21 UBC d          -2.619  -5.303  16.637  0.00  0.00    -0.023 A 
ATOM     11  C22 UBC d          -1.885  -6.591  16.635  0.00  0.00     0.048 A 
ATOM     12  C23 UBC d          -1.468  -7.112  17.860  0.00  0.00     0.019 A 
ATOM     13  C24 UBC d          -1.750  -6.409  19.039  0.00  0.00     0.001 A 
ATOM     14  C25 UBC d          -2.436  -5.197  19.022  0.00  0.00     0.001 A 
ATOM     15  C26 UBC d          -2.864  -4.642  17.826  0.00  0.00     0.010 A 
BRANCH  11  16
ATOM     16  C10 UBC d          -1.611  -7.318  15.352  0.00  0.00     0.210 C 
ATOM     17  O1  UBC d          -1.269  -6.656  14.342  0.00  0.00    -0.644 OA
ATOM     18  O2  UBC d          -1.741  -8.566  15.340  0.00  0.00    -0.644 OA
ENDBRANCH  11  16
ENDBRANCH   9  10
ENDBRANCH   1   9
BRANCH   8  19
ATOM     19  CB  UBC d          -8.050  -4.079  15.810  0.00  0.00     0.177 C 
BRANCH  19  20
ATOM     20  CA  UBC d          -8.482  -4.488  14.386  0.00  0.00     0.301 C 
BRANCH  20  21
ATOM     21  N   UBC d          -8.256  -3.423  13.408  0.00  0.00    -0.064 N 
ATOM     22  H12 UBC d          -8.552  -3.736  12.497  0.00  0.00     0.275 HD
ATOM     23  H13 UBC d          -7.275  -3.193  13.382  0.00  0.00     0.275 HD
ATOM     24  H14 UBC d          -8.785  -2.607  13.672  0.00  0.00     0.275 HD
ENDBRANCH  20  21
BRANCH  20  25
ATOM     25  C   UBC d          -9.937  -4.863  14.407  0.00  0.00     0.206 C 
ATOM     26  O   UBC d         -10.721  -4.207  13.691  0.00  0.00    -0.646 OA
ATOM     27  OXT UBC d         -10.328  -5.808  15.136  0.00  0.00    -0.646 OA
ENDBRANCH  20  25
ENDBRANCH  19  20
ENDBRANCH   8  19
TORSDOF 7
