REMARK  7 active torsions:
REMARK  status: ('A' for Active; 'I' for Inactive)
REMARK    1  A    between atoms: S13_2  and  N16_4 
REMARK    2  A    between atoms: S13_2  and  C11_9 
REMARK    3  A    between atoms: N16_4  and  C19_5 
REMARK    4  A    between atoms: C19_5  and  C20_6 
REMARK    5  A    between atoms: C10_10  and  C17_12 
REMARK    6  A    between atoms: C7_16  and  S1_18 
REMARK    7  A    between atoms: S1_18  and  N7_21 
ROOT
ATOM      1  C20 MOL d          -2.474   7.509  14.799  0.00  0.00    -0.087 C 
ATOM      2  C21 MOL d          -1.740   8.423  14.769  0.00  0.00    -0.109 C 
ATOM      3  C29 MOL d          -0.840   9.560  14.725  0.00  0.00     0.112 C 
ENDROOT
BRANCH   1   4
ATOM      4  C19 MOL d          -3.399   6.388  14.835  0.00  0.00     0.225 C 
BRANCH   4   5
ATOM      5  N16 MOL d          -4.231   6.338  13.640  0.00  0.00    -0.304 N 
ATOM      6  H1  MOL d          -3.959   6.791  12.791  0.00  0.00     0.173 HD
BRANCH   5   7
ATOM      7  S13 MOL d          -5.628   5.506  13.757  0.00  0.00     0.260 S 
ATOM      8  O14 MOL d          -6.251   5.932  14.974  0.00  0.00    -0.200 OA
ATOM      9  O15 MOL d          -6.312   5.783  12.566  0.00  0.00    -0.200 OA
BRANCH   7  10
ATOM     10  C11 MOL d          -5.267   3.886  13.864  0.00  0.00     0.098 A 
ATOM     11  C10 MOL d          -4.517   3.152  12.830  0.00  0.00     0.064 A 
ATOM     12  C9  MOL d          -4.304   1.802  13.052  0.00  0.00     0.021 A 
ATOM     13  C8  MOL d          -4.686   1.137  14.197  0.00  0.00     0.026 A 
ATOM     14  C7  MOL d          -5.364   1.798  15.243  0.00  0.00     0.080 A 
ATOM     15  C12 MOL d          -5.679   3.155  15.009  0.00  0.00     0.051 A 
BRANCH  11  16
ATOM     16  C17 MOL d          -4.115   3.768  11.538  0.00  0.00     0.210 C 
ATOM     17  O17 MOL d          -4.597   3.304  10.477  0.00  0.00    -0.644 OA
ATOM     18  O18 MOL d          -3.349   4.741  11.553  0.00  0.00    -0.644 OA
ENDBRANCH  11  16
BRANCH  14  19
ATOM     19  S1  MOL d          -5.918   0.982  16.633  0.00  0.00     0.256 S 
ATOM     20  O6  MOL d          -7.343   1.309  16.733  0.00  0.00    -0.201 OA
ATOM     21  O5  MOL d          -5.078   1.378  17.711  0.00  0.00    -0.201 OA
BRANCH  19  22
ATOM     22  N7  MOL d          -5.729  -0.566  16.420  0.00  0.00    -0.324 N 
ATOM     23  H10 MOL d          -6.002  -1.206  17.138  0.00  0.00     0.169 HD
ATOM     24  H11 MOL d          -5.336  -0.909  15.567  0.00  0.00     0.169 HD
ENDBRANCH  19  22
ENDBRANCH  14  19
ENDBRANCH   7  10
ENDBRANCH   5   7
ENDBRANCH   4   5
ENDBRANCH   1   4
TORSDOF 7
