REMARK  10 active torsions:
REMARK  status: ('A' for Active; 'I' for Inactive)
REMARK    1  A    between atoms: C4_1  and  O4_26 
REMARK    2  A    between atoms: C5_2  and  C6_3 
REMARK    3  A    between atoms: C6_3  and  O6_25 
REMARK    4  A    between atoms: C3_4  and  O3_27 
REMARK    5  A    between atoms: CAY_11  and  OBD_12 
REMARK    6  A    between atoms: NAA_16  and  CAB_15 
REMARK    7  A    between atoms: CAG_21  and  CAD_20 
REMARK    8  A    between atoms: O1_22  and  CAG_21 
REMARK    9  A    between atoms: C1_23  and  O1_22 
REMARK   10  A    between atoms: C2_28  and  O2_29 
ROOT
ATOM      1  NAA MOL d          -1.135   6.567  84.137  0.00  0.00    -0.225 N 
ATOM      2  CAC MOL d          -0.521   7.359  83.213  0.00  0.00     0.151 A 
ATOM      3  NAF MOL d          -1.866   7.324  84.933  0.00  0.00    -0.061 NA
ATOM      4  NAE MOL d          -1.784   8.590  84.575  0.00  0.00    -0.133 NA
ATOM      5  CAD MOL d          -0.946   8.695  83.501  0.00  0.00     0.099 A 
ENDROOT
BRANCH   5   6
ATOM      6  CAG MOL d          -0.552   9.955  82.733  0.00  0.00     0.233 C 
BRANCH   6   7
ATOM      7  O1  MOL d          -1.189   9.836  81.487  0.00  0.00    -0.352 OA
BRANCH   7   8
ATOM      8  C1  MOL d          -0.402  10.087  80.398  0.00  0.00     0.291 C 
ATOM      9  O5  MOL d          -0.909  11.275  79.689  0.00  0.00    -0.348 OA
ATOM     10  C5  MOL d          -2.317  11.147  79.327  0.00  0.00     0.179 C 
ATOM     11  C4  MOL d          -2.778   9.747  78.890  0.00  0.00     0.180 C 
ATOM     12  C3  MOL d          -1.780   8.651  78.875  0.00  0.00     0.183 C 
ATOM     13  C2  MOL d          -0.453   8.898  79.484  0.00  0.00     0.204 C 
BRANCH  10  14
ATOM     14  C6  MOL d          -2.613  12.166  78.250  0.00  0.00     0.198 C 
BRANCH  14  15
ATOM     15  O6  MOL d          -4.018  12.031  77.831  0.00  0.00    -0.398 OA
ATOM     16  H16 MOL d          -4.163  11.156  77.492  0.00  0.00     0.209 HD
ENDBRANCH  14  15
ENDBRANCH  10  14
BRANCH  11  17
ATOM     17  O4  MOL d          -3.419   9.796  77.584  0.00  0.00    -0.390 OA
ATOM     18  H17 MOL d          -4.063  10.494  77.575  0.00  0.00     0.210 HD
ENDBRANCH  11  17
BRANCH  12  19
ATOM     19  O3  MOL d          -2.379   7.493  79.532  0.00  0.00    -0.390 OA
ATOM     20  H18 MOL d          -1.757   6.775  79.535  0.00  0.00     0.210 HD
ENDBRANCH  12  19
BRANCH  13  21
ATOM     21  O2  MOL d           0.523   9.105  78.420  0.00  0.00    -0.388 OA
ATOM     22  H20 MOL d           0.305   9.896  77.942  0.00  0.00     0.210 HD
ENDBRANCH  13  21
ENDBRANCH   7   8
ENDBRANCH   6   7
ENDBRANCH   5   6
BRANCH   1  23
ATOM     23  CAB MOL d          -0.948   5.108  84.229  0.00  0.00     0.061 A 
ATOM     24  CAX MOL d          -1.558   4.382  85.229  0.00  0.00     0.057 A 
ATOM     25  CAW MOL d          -1.330   2.938  85.293  0.00  0.00     0.092 A 
ATOM     26  SBA MOL d          -1.886   1.768  86.327  0.00  0.00     0.261 S 
ATOM     27  CAV MOL d          -0.513   2.373  84.375  0.00  0.00     0.014 A 
ATOM     28  OBB MOL d          -1.241   1.891  87.639  0.00  0.00    -0.200 OA
ATOM     29  OBC MOL d          -3.347   1.778  86.432  0.00  0.00    -0.200 OA
ATOM     30  NAZ MOL d          -1.395   0.393  85.638  0.00  0.00    -0.284 N 
ATOM     31  CAY MOL d          -0.392   0.702  84.679  0.00  0.00     0.264 C 
ATOM     32  H7  MOL d          -1.738  -0.522  85.850  0.00  0.00     0.175 HD
ATOM     33  CAU MOL d           0.121   3.141  83.350  0.00  0.00     0.015 A 
ATOM     34  CAT MOL d          -0.094   4.511  83.291  0.00  0.00     0.032 A 
BRANCH  31  35
ATOM     35  OBD MOL d          -0.496   0.054  83.598  0.00  0.00    -0.372 OA
ATOM     36  H9  MOL d           0.203   0.310  83.008  0.00  0.00     0.212 HD
ENDBRANCH  31  35
ENDBRANCH   1  23
TORSDOF 10
