REMARK  5 active torsions:
REMARK  status: ('A' for Active; 'I' for Inactive)
REMARK    1  A    between atoms: N_1  and  CA_2 
REMARK    2  A    between atoms: CA_2  and  C_3 
REMARK    3  A    between atoms: CA_2  and  CB_5 
REMARK    4  A    between atoms: CB_5  and  CG_6 
REMARK    5  A    between atoms: CG_6  and  CD_7 
ROOT
ATOM      1  CA  GLU d         -28.307  35.431   6.740  0.00  0.00     0.283 C 
ENDROOT
BRANCH   1   2
ATOM      2  N   GLU d         -28.468  34.674   7.986  0.00  0.00    -0.065 N 
ATOM      3  H1  GLU d         -27.715  34.009   8.075  0.00  0.00     0.275 HD
ATOM      4  H2  GLU d         -29.349  34.184   7.970  0.00  0.00     0.275 HD
ATOM      5  H3  GLU d         -28.450  35.308   8.769  0.00  0.00     0.275 HD
ENDBRANCH   1   2
BRANCH   1   6
ATOM      6  C   GLU d         -29.427  36.446   6.572  0.00  0.00     0.204 C 
ATOM      7  O   GLU d         -30.158  36.769   7.526  0.00  0.00    -0.646 OA
ATOM      8  OXT GLU d         -29.594  36.988   5.479  0.00  0.00    -0.646 OA
ENDBRANCH   1   6
BRANCH   1   9
ATOM      9  CB  GLU d         -28.214  34.499   5.523  0.00  0.00     0.054 C 
BRANCH   9  10
ATOM     10  CG  GLU d         -26.861  33.783   5.411  0.00  0.00     0.116 C 
BRANCH  10  11
ATOM     11  CD  GLU d         -25.733  34.728   5.026  0.00  0.00     0.172 C 
ATOM     12  OE1 GLU d         -26.036  35.793   4.433  0.00  0.00    -0.648 OA
ATOM     13  OE2 GLU d         -24.543  34.374   5.260  0.00  0.00    -0.648 OA
ENDBRANCH  10  11
ENDBRANCH   9  10
ENDBRANCH   1   9
TORSDOF 5
