REMARK  8 active torsions:
REMARK  status: ('A' for Active; 'I' for Inactive)
REMARK    1  A    between atoms: C7B_18  and  C1_1 
REMARK    2  A    between atoms: C2B_7  and  O2B_12 
REMARK    3  A    between atoms: C3B_8  and  O3B_13 
REMARK    4  A    between atoms: C4B_9  and  O4B_14 
REMARK    5  A    between atoms: C5B_10  and  C6B_11 
REMARK    6  A    between atoms: C6B_11  and  O6B_15 
REMARK    7  A    between atoms: N2B_17  and  CAR_16 
REMARK    8  A    between atoms: N2B_17  and  C7B_18 
ROOT
ATOM      1  C2B VM2 d          18.208  17.285  34.069  0.00  0.00     0.180 C 
ATOM      2  C3B VM2 d          17.343  17.428  32.808  0.00  0.00     0.178 C 
ATOM      3  C4B VM2 d          16.810  18.838  32.935  0.00  0.00     0.157 C 
ATOM      4  C5B VM2 d          18.109  19.583  33.270  0.00  0.00     0.074 C 
ATOM      5  CAR VM2 d          18.776  18.684  34.347  0.00  0.00     0.225 C 
ENDROOT
BRANCH   5   6
ATOM      6  N2B VM2 d          18.590  19.092  35.765  0.00  0.00    -0.068 N 
ATOM      7  H   VM2 d          19.118  18.438  36.322  0.00  0.00     0.277 HD
ATOM      8  H   VM2 d          17.608  18.988  35.966  0.00  0.00     0.277 HD
BRANCH   6   9
ATOM      9  C7B VM2 d          18.973  20.446  36.231  0.00  0.00     0.237 C 
BRANCH   9  10
ATOM     10  C1  VM2 d          19.304  20.639  37.720  0.00  0.00     0.011 C 
ATOM     11  C2  VM2 d          18.255  19.937  38.614  0.00  0.00     0.006 C 
ATOM     12  C3  VM2 d          17.855  20.575  39.952  0.00  0.00     0.000 C 
ATOM     13  C4  VM2 d          18.631  21.848  40.354  0.00  0.00     0.000 C 
ATOM     14  C5  VM2 d          18.640  22.764  39.140  0.00  0.00     0.000 C 
ATOM     15  C6  VM2 d          19.489  22.156  37.995  0.00  0.00     0.006 C 
ENDBRANCH   9  10
ENDBRANCH   6   9
ENDBRANCH   5   6
BRANCH   1  16
ATOM     16  O2B VM2 d          19.228  16.315  33.855  0.00  0.00    -0.391 OA
ATOM     17  H   VM2 d          19.777  16.589  33.129  0.00  0.00     0.210 HD
ENDBRANCH   1  16
BRANCH   4  18
ATOM     18  C6B VM2 d          17.898  21.084  33.612  0.00  0.00     0.173 C 
BRANCH  18  19
ATOM     19  O6B VM2 d          16.823  21.226  34.576  0.00  0.00    -0.400 OA
ATOM     20  H   VM2 d          16.021  20.872  34.209  0.00  0.00     0.209 HD
ENDBRANCH  18  19
ENDBRANCH   4  18
BRANCH   2  21
ATOM     21  O3B VM2 d          16.280  16.470  32.705  0.00  0.00    -0.390 OA
ATOM     22  H   VM2 d          15.754  16.663  31.938  0.00  0.00     0.210 HD
ENDBRANCH   2  21
BRANCH   3  23
ATOM     23  O4B VM2 d          16.093  19.333  31.792  0.00  0.00    -0.392 OA
ATOM     24  H   VM2 d          15.853  20.240  31.939  0.00  0.00     0.210 HD
ENDBRANCH   3  23
TORSDOF 8
