REMARK  3 active torsions:
REMARK  status: ('A' for Active; 'I' for Inactive)
REMARK    1  A    between atoms: P_1  and  O1P_2 
REMARK    2  A    between atoms: O1P_2  and  C2_6 
REMARK    3  A    between atoms: C2_6  and  C1_7 
ROOT
ATOM      1  O1P PGA d          -9.333  -6.995  48.251  0.00  0.00    -0.272 OA
ENDROOT
BRANCH   1   2
ATOM      2  P   PGA d         -10.719  -6.884  49.115  0.00  0.00     0.422 P 
ATOM      3  O2P PGA d         -10.579  -7.923  50.191  0.00  0.00    -0.617 OA
ATOM      4  O3P PGA d         -11.888  -7.063  48.135  0.00  0.00    -0.617 OA
ATOM      5  O4P PGA d         -10.808  -5.490  49.716  0.00  0.00    -0.617 OA
ENDBRANCH   1   2
BRANCH   1   6
ATOM      6  C2  PGA d          -8.661  -8.230  48.217  0.00  0.00     0.295 C 
BRANCH   6   7
ATOM      7  C1  PGA d          -7.398  -7.993  47.457  0.00  0.00     0.198 C 
ATOM      8  O1  PGA d          -6.248  -8.620  47.850  0.00  0.00    -0.646 OA
ATOM      9  O2  PGA d          -7.416  -7.142  46.469  0.00  0.00    -0.646 OA
ENDBRANCH   6   7
ENDBRANCH   1   6
TORSDOF 3
