REMARK  7 active torsions:
REMARK  status: ('A' for Active; 'I' for Inactive)
REMARK    1  A    between atoms: P_2  and  O5'_5 
REMARK    2  A    between atoms: O5'_5  and  C5'_6 
REMARK    3  A    between atoms: C5'_6  and  C4'_7 
REMARK    4  A    between atoms: C3'_9  and  O3'_10 
REMARK    5  A    between atoms: C2'_11  and  O2'_12 
REMARK    6  A    between atoms: C1'_13  and  N1_14 
REMARK    7  A    between atoms: C4_17  and  N4_21 
ROOT
ATOM      1  C4' C5P d          28.201  32.193  40.208  0.00  0.00     0.180 C 
ATOM      2  O4' C5P d          27.772  31.069  39.411  0.00  0.00    -0.353 OA
ATOM      3  C3' C5P d          29.732  32.045  40.523  0.00  0.00     0.182 C 
ATOM      4  C2' C5P d          30.189  30.906  39.538  0.00  0.00     0.198 C 
ATOM      5  C1' C5P d          28.843  30.155  39.138  0.00  0.00     0.263 C 
ENDROOT
BRANCH   5   6
ATOM      6  N1  C5P d          28.618  29.441  37.843  0.00  0.00    -0.280 N 
ATOM      7  C2  C5P d          28.481  28.023  37.660  0.00  0.00     0.330 C 
ATOM      8  N3  C5P d          28.395  27.461  36.350  0.00  0.00    -0.295 N 
ATOM      9  O2  C5P d          28.261  27.352  38.662  0.00  0.00    -0.246 OA
ATOM     10  C4  C5P d          28.541  28.217  35.295  0.00  0.00     0.103 C 
ATOM     11  H9  C5P d          28.222  26.482  36.240  0.00  0.00     0.172 HD
ATOM     12  C5  C5P d          28.820  29.625  35.406  0.00  0.00     0.065 C 
ATOM     13  C6  C5P d          28.836  30.183  36.653  0.00  0.00     0.102 C 
BRANCH  10  14
ATOM     14  N4  C5P d          28.362  27.678  33.962  0.00  0.00    -0.385 N 
ATOM     15  H12 C5P d          28.481  28.287  33.140  0.00  0.00     0.157 HD
ATOM     16  H13 C5P d          28.116  26.686  33.837  0.00  0.00     0.157 HD
ENDBRANCH  10  14
ENDBRANCH   5   6
BRANCH   4  17
ATOM     17  O2' C5P d          31.357  30.222  39.786  0.00  0.00    -0.388 OA
ATOM     18  H7  C5P d          31.492  29.572  39.106  0.00  0.00     0.210 HD
ENDBRANCH   4  17
BRANCH   1  19
ATOM     19  C5' C5P d          27.612  33.576  39.732  0.00  0.00     0.217 C 
BRANCH  19  20
ATOM     20  O5' C5P d          26.296  33.381  39.187  0.00  0.00    -0.280 OA
BRANCH  20  21
ATOM     21  P   C5P d          25.481  34.576  38.439  0.00  0.00     0.422 P 
ATOM     22  O3P C5P d          25.629  34.408  36.873  0.00  0.00    -0.617 OA
ATOM     23  O1P C5P d          23.914  34.353  38.606  0.00  0.00    -0.617 OA
ATOM     24  O2P C5P d          25.914  35.933  38.844  0.00  0.00    -0.617 OA
ENDBRANCH  20  21
ENDBRANCH  19  20
ENDBRANCH   1  19
BRANCH   3  25
ATOM     25  O3' C5P d          30.218  32.216  41.797  0.00  0.00    -0.390 OA
ATOM     26  H5  C5P d          31.160  32.089  41.795  0.00  0.00     0.210 HD
ENDBRANCH   3  25
TORSDOF 7
