REMARK WARNING: 32 MAX_TORS EXCEEDED!!!
REMARK  36 active torsions:
REMARK  status: ('A' for Active; 'I' for Inactive)
REMARK    1  A    between atoms: N_1  and  CA_2 
REMARK    2  A    between atoms: CA_2  and  C_3 
REMARK    3  A    between atoms: CA_2  and  CB_5 
REMARK       I    between atoms: C_3  and  N_7 
REMARK    4  A    between atoms: CB_5  and  OG_6 
REMARK    5  A    between atoms: N_7  and  CA_8 
REMARK    6  A    between atoms: CA_8  and  C_9 
REMARK    7  A    between atoms: CA_8  and  CB_11 
REMARK       I    between atoms: C_9  and  N_15 
REMARK    8  A    between atoms: CB_11  and  CG1_12 
REMARK    9  A    between atoms: N_15  and  CA_16 
REMARK   10  A    between atoms: CA_16  and  C_17 
REMARK   11  A    between atoms: CA_16  and  CB_19 
REMARK       I    between atoms: C_17  and  N_23 
REMARK   12  A    between atoms: CB_19  and  CG1_20 
REMARK   13  A    between atoms: N_23  and  CA_24 
REMARK   14  A    between atoms: CA_24  and  C_25 
REMARK   15  A    between atoms: CA_24  and  CB_27 
REMARK       I    between atoms: C_25  and  N_31 
REMARK   16  A    between atoms: CB_27  and  CG_28 
REMARK       I    between atoms: CG_28  and  ND2_30 
REMARK   17  A    between atoms: N_31  and  CA_32 
REMARK   18  A    between atoms: CA_32  and  C_33 
REMARK   19  A    between atoms: CA_32  and  CB_35 
REMARK       I    between atoms: C_33  and  N_42 
REMARK   20  A    between atoms: CB_35  and  CG_36 
REMARK   21  A    between atoms: N_42  and  CA_43 
REMARK   22  A    between atoms: CA_43  and  C_44 
REMARK   23  A    between atoms: CA_43  and  CB_46 
REMARK       I    between atoms: C_44  and  N_51 
REMARK   24  A    between atoms: CB_46  and  CG_47 
REMARK   25  A    between atoms: CG_47  and  CD_48 
REMARK   26  A    between atoms: N_51  and  CA_52 
REMARK   27  A    between atoms: CA_52  and  C_53 
REMARK   28  A    between atoms: CA_52  and  CB_55 
REMARK       I    between atoms: C_53  and  N_60 
REMARK   29  A    between atoms: CB_55  and  CG_56 
REMARK   30  A    between atoms: CG_56  and  CD_57 
REMARK   31  A    between atoms: CD_57  and  CE_58 
REMARK   32  A    between atoms: CE_58  and  NZ_59 
REMARK   33  A    between atoms: N_60  and  CA_61 
REMARK   34  A    between atoms: CA_61  and  C_62 
REMARK   35  A    between atoms: CA_61  and  CB_64 
REMARK   36  A    between atoms: CB_64  and  CG_65 
ROOT
ATOM      1  CA  SER d         -17.283   8.155  31.072  0.00  0.00     0.180 C 
ENDROOT
BRANCH   1   2
ATOM      2  N   SER d         -17.735   6.785  31.293  0.00  0.00    -0.346 N 
ATOM      3  C   SER d         -17.971   6.337  32.522  0.00  0.00     0.241 C 
ATOM      4  O   SER d         -17.941   7.066  33.525  0.00  0.00    -0.271 OA
ATOM      5  H36 SER d         -17.869   6.176  30.511  0.00  0.00     0.163 HD
BRANCH   3   6
ATOM      6  CA  SER d         -18.300   4.862  32.651  0.00  0.00     0.185 C 
BRANCH   6   7
ATOM      7  N   SER d         -17.285   4.224  33.472  0.00  0.00    -0.346 N 
ATOM      8  C   SER d         -16.118   3.823  32.966  0.00  0.00     0.241 C 
ATOM      9  O   SER d         -15.918   3.737  31.761  0.00  0.00    -0.271 OA
ATOM     10  H30 SER d         -17.467   4.081  34.445  0.00  0.00     0.163 HD
BRANCH   8  11
ATOM     11  CA  SER d         -15.017   3.443  33.966  0.00  0.00     0.180 C 
BRANCH  11  12
ATOM     12  N   SER d         -14.015   2.562  33.356  0.00  0.00    -0.346 N 
ATOM     13  C   SER d         -14.302   1.326  32.966  0.00  0.00     0.241 C 
ATOM     14  O   SER d         -15.412   0.824  33.116  0.00  0.00    -0.271 OA
ATOM     15  H19 SER d         -13.084   2.904  33.230  0.00  0.00     0.163 HD
BRANCH  13  16
ATOM     16  CA  SER d         -13.176   0.537  32.305  0.00  0.00     0.180 C 
BRANCH  16  17
ATOM     17  N   SER d         -13.334  -0.885  32.574  0.00  0.00    -0.346 N 
ATOM     18  C   SER d         -13.134  -1.399  33.783  0.00  0.00     0.251 C 
ATOM     19  O   SER d         -12.851  -0.717  34.765  0.00  0.00    -0.271 OA
ATOM     20  H8  SER d         -13.601  -1.493  31.826  0.00  0.00     0.163 HD
BRANCH  18  21
ATOM     21  CA  SER d         -13.250  -2.911  33.893  0.00  0.00     0.297 C 
BRANCH  21  22
ATOM     22  N   SER d         -11.992  -3.437  34.384  0.00  0.00    -0.064 N 
ATOM     23  H1  SER d         -12.055  -4.440  34.462  0.00  0.00     0.275 HD
ATOM     24  H2  SER d         -11.793  -3.042  35.289  0.00  0.00     0.275 HD
ATOM     25  H3  SER d         -11.253  -3.196  33.742  0.00  0.00     0.275 HD
ENDBRANCH  21  22
BRANCH  21  26
ATOM     26  CB  SER d         -14.384  -3.289  34.841  0.00  0.00     0.206 C 
BRANCH  26  27
ATOM     27  OG  SER d         -15.642  -2.956  34.287  0.00  0.00    -0.398 OA
ATOM     28  H7  SER d         -16.329  -3.201  34.895  0.00  0.00     0.209 HD
ENDBRANCH  26  27
ENDBRANCH  21  26
ENDBRANCH  18  21
ENDBRANCH  16  17
BRANCH  16  29
ATOM     29  CB  SER d         -13.158   0.808  30.770  0.00  0.00     0.013 C 
ATOM     30  CG2 SER d         -14.554   0.650  30.165  0.00  0.00     0.012 C 
BRANCH  29  31
ATOM     31  CG1 SER d         -12.601   2.193  30.466  0.00  0.00     0.002 C 
ATOM     32  CD1 SER d         -12.409   2.442  28.976  0.00  0.00     0.005 C 
ENDBRANCH  29  31
ENDBRANCH  16  29
ENDBRANCH  13  16
ENDBRANCH  11  12
BRANCH  11  33
ATOM     33  CB  SER d         -14.343   4.737  34.480  0.00  0.00     0.013 C 
ATOM     34  CG2 SER d         -13.997   5.666  33.311  0.00  0.00     0.012 C 
BRANCH  33  35
ATOM     35  CG1 SER d         -15.218   5.459  35.514  0.00  0.00     0.002 C 
ATOM     36  CD1 SER d         -14.513   6.624  36.193  0.00  0.00     0.005 C 
ENDBRANCH  33  35
ENDBRANCH  11  33
ENDBRANCH   8  11
ENDBRANCH   6   7
BRANCH   6  37
ATOM     37  CB  SER d         -19.685   4.732  33.284  0.00  0.00     0.137 C 
BRANCH  37  38
ATOM     38  CG  SER d         -20.104   3.302  33.475  0.00  0.00     0.217 C 
ATOM     39  OD1 SER d         -20.612   2.667  32.550  0.00  0.00    -0.274 OA
ATOM     40  ND2 SER d         -19.906   2.781  34.684  0.00  0.00    -0.370 N 
ATOM     41  H34 SER d         -20.166   1.833  34.869  0.00  0.00     0.159 HD
ATOM     42  H35 SER d         -19.497   3.337  35.407  0.00  0.00     0.159 HD
ENDBRANCH  37  38
ENDBRANCH   6  37
ENDBRANCH   3   6
ENDBRANCH   1   2
BRANCH   1  43
ATOM     43  C   SER d         -18.414   9.171  31.193  0.00  0.00     0.241 C 
ATOM     44  O   SER d         -19.563   8.878  30.857  0.00  0.00    -0.271 OA
ATOM     45  N   SER d         -18.080  10.362  31.686  0.00  0.00    -0.346 N 
ATOM     46  H45 SER d         -17.138  10.520  31.982  0.00  0.00     0.163 HD
BRANCH  45  47
ATOM     47  CA  SER d         -19.052  11.443  31.806  0.00  0.00     0.177 C 
BRANCH  47  48
ATOM     48  C   SER d         -18.844  12.470  30.698  0.00  0.00     0.241 C 
ATOM     49  O   SER d         -17.730  12.686  30.242  0.00  0.00    -0.271 OA
ATOM     50  N   SER d         -19.925  13.115  30.286  0.00  0.00    -0.346 N 
ATOM     51  H51 SER d         -20.791  12.969  30.765  0.00  0.00     0.163 HD
BRANCH  50  52
ATOM     52  CA  SER d         -19.887  14.029  29.157  0.00  0.00     0.176 C 
BRANCH  52  53
ATOM     53  C   SER d         -19.025  15.267  29.372  0.00  0.00     0.241 C 
ATOM     54  O   SER d         -18.970  15.832  30.466  0.00  0.00    -0.271 OA
ATOM     55  N   SER d         -18.367  15.676  28.295  0.00  0.00    -0.345 N 
ATOM     56  H64 SER d         -18.487  15.163  27.445  0.00  0.00     0.163 HD
BRANCH  55  57
ATOM     57  CA  SER d         -17.483  16.827  28.283  0.00  0.00     0.185 C 
BRANCH  57  58
ATOM     58  C   SER d         -18.283  18.114  28.256  0.00  0.00     0.196 C 
ATOM     59  O   SER d         -19.471  18.103  27.930  0.00  0.00    -0.646 OA
ATOM     60  OXT SER d         -17.732  19.180  28.540  0.00  0.00    -0.646 OA
ENDBRANCH  57  58
BRANCH  57  61
ATOM     61  CB  SER d         -16.583  16.781  27.049  0.00  0.00     0.040 C 
BRANCH  61  62
ATOM     62  CG  SER d         -15.574  15.640  27.007  0.00  0.00    -0.020 C 
ATOM     63  CD1 SER d         -14.679  15.772  25.799  0.00  0.00     0.009 C 
ATOM     64  CD2 SER d         -14.763  15.639  28.282  0.00  0.00     0.009 C 
ENDBRANCH  61  62
ENDBRANCH  57  61
ENDBRANCH  55  57
ENDBRANCH  52  53
BRANCH  52  65
ATOM     65  CB  SER d         -21.309  14.405  28.738  0.00  0.00     0.035 C 
BRANCH  65  66
ATOM     66  CG  SER d         -21.938  13.340  27.844  0.00  0.00     0.004 C 
BRANCH  66  67
ATOM     67  CD  SER d         -23.441  13.368  27.932  0.00  0.00     0.027 C 
BRANCH  67  68
ATOM     68  CE  SER d         -24.044  12.274  27.096  0.00  0.00     0.229 C 
BRANCH  68  69
ATOM     69  NZ  SER d         -25.528  12.244  27.263  0.00  0.00    -0.079 N 
ATOM     70  H61 SER d         -25.915  11.506  26.696  0.00  0.00     0.274 HD
ATOM     71  H62 SER d         -25.917  13.128  26.974  0.00  0.00     0.274 HD
ATOM     72  H63 SER d         -25.754  12.078  28.231  0.00  0.00     0.274 HD
ENDBRANCH  68  69
ENDBRANCH  67  68
ENDBRANCH  66  67
ENDBRANCH  65  66
ENDBRANCH  52  65
ENDBRANCH  50  52
ENDBRANCH  47  48
BRANCH  47  73
ATOM     73  CB  SER d         -18.959  12.128  33.172  0.00  0.00     0.045 C 
BRANCH  73  74
ATOM     74  CG  SER d         -19.559  11.331  34.318  0.00  0.00     0.116 C 
BRANCH  74  75
ATOM     75  CD  SER d         -21.066  11.195  34.199  0.00  0.00     0.172 C 
ATOM     76  OE1 SER d         -21.737  12.219  33.952  0.00  0.00    -0.648 OA
ATOM     77  OE2 SER d         -21.576  10.061  34.339  0.00  0.00    -0.648 OA
ENDBRANCH  74  75
ENDBRANCH  73  74
ENDBRANCH  47  73
ENDBRANCH  45  47
ENDBRANCH   1  43
BRANCH   1  78
ATOM     78  CB  SER d         -16.561   8.277  29.717  0.00  0.00     0.073 C 
BRANCH  78  79
ATOM     79  CG  SER d         -15.253   7.529  29.672  0.00  0.00    -0.056 A 
ATOM     80  CD1 SER d         -14.124   8.051  30.286  0.00  0.00     0.007 A 
ATOM     81  CE1 SER d         -12.911   7.359  30.276  0.00  0.00     0.001 A 
ATOM     82  CZ  SER d         -12.827   6.135  29.639  0.00  0.00     0.000 A 
ATOM     83  CE2 SER d         -13.948   5.601  29.013  0.00  0.00     0.001 A 
ATOM     84  CD2 SER d         -15.161   6.298  29.043  0.00  0.00     0.007 A 
ENDBRANCH  78  79
ENDBRANCH   1  78
TORSDOF 36
