4el5_ligand

Created by X-TOOL on Fri Sep 26 17:34:54 2014
 35 36  0  0  0  0  0  0  0  0999 V2000
   34.0970   23.5080   28.8070  N 0  0  0  1  0  3
   33.4940   24.3630   29.7650  C 0  0  0  1  0  3
   32.2810   24.5700   29.7880  O 0  0  0  1  0  1
   34.3190   25.0370   30.6860  N 0  0  0  2  0  3
   35.6730   24.8070   30.7000  C 0  0  0  1  0  3
   36.3040   25.4480   31.5220  O 0  0  0  1  0  1
   36.2930   23.9010   29.8070  C 0  0  0  1  0  3
   35.5090   23.2790   28.8380  C 0  0  0  2  0  3
   37.7090   23.6930   29.9160  C 0  0  0  1  0  2
   38.8770   23.5610   30.0590  C 0  0  0  2  0  2
   33.2130   22.8510   27.8510  C 0  0  0  2  0  4
   33.6980   23.1810   26.3430  C 0  0  0  2  0  4
   33.8760   24.5750   26.1550  O 0  0  0  2  0  2
   32.6530   22.5760   25.4220  C 0  0  0  2  0  4
   33.0970   22.6460   24.0540  O 0  0  0  2  0  2
   32.4640   21.0920   25.8560  C 0  0  0  2  0  4
   31.3330   20.5960   25.1590  O 0  0  0  2  0  2
   32.2310   20.8620   27.4180  C 0  0  0  2  0  4
   33.2810   21.4310   28.1410  O 0  0  0  1  0  2
   32.1090   19.2830   27.7460  C 0  0  0  3  0  4
   33.3190   18.6990   27.2360  O 0  0  0  2  0  2
   33.9174   25.6857   31.3324  H 0  0  0  1  0  1
   35.9704   22.6191   28.1048  H 0  0  0  1  0  1
   39.9186   23.4433   30.1865  H 0  0  0  1  0  1
   32.1807   23.2075   27.9824  H 0  0  0  1  0  1
   34.6640   22.6893   26.1559  H 0  0  0  1  0  1
   34.1601   24.7395   25.2635  H 0  0  0  1  0  1
   31.7024   23.1200   25.5241  H 0  0  0  1  0  1
   32.4360   22.2651   23.4878  H 0  0  0  1  0  1
   33.3603   20.5281   25.5583  H 0  0  0  1  0  1
   31.4878   20.6553   24.2236  H 0  0  0  1  0  1
   31.2923   21.3546   27.7114  H 0  0  0  1  0  1
   31.2306   18.8512   27.2440  H 0  0  0  1  0  1
   32.0288   19.1192   28.8308  H 0  0  0  1  0  1
   34.0666   19.0904   27.6723  H 0  0  0  1  0  1
  1  2  1  0  0  1
  1  8  1  0  0  1
  1 11  1  0  0  2
  2  3  2  0  0  2
  2  4  1  0  0  1
  4  5  1  0  0  1
  5  6  2  0  0  2
  5  7  1  0  0  1
  7  8  2  0  0  1
  7  9  1  0  0  2
  9 10  3  0  0  2
 11 12  1  0  0  1
 11 19  1  0  0  1
 12 13  1  0  0  2
 12 14  1  0  0  1
 14 15  1  0  0  2
 14 16  1  0  0  1
 16 17  1  0  0  2
 16 18  1  0  0  1
 18 19  1  0  0  1
 18 20  1  0  0  2
 20 21  1  0  0  2
  4 22  1  0  0  2
  8 23  1  0  0  2
 10 24  1  0  0  2
 11 25  1  0  0  2
 12 26  1  0  0  2
 13 27  1  0  0  2
 14 28  1  0  0  2
 15 29  1  0  0  2
 16 30  1  0  0  2
 17 31  1  0  0  2
 18 32  1  0  0  2
 20 33  1  0  0  2
 20 34  1  0  0  2
 21 35  1  0  0  2
M  END
> <MOLECULAR_FORMULA>
C12H14N2O7

> <MOLECULAR_WEIGHT>
298.1

> <NUM_HB_ATOMS>
8  

> <NUM_ROTOR>
2  

> <XLOGP2>
-2.59

$$$$
