REMARK  3 active torsions:
REMARK  status: ('A' for Active; 'I' for Inactive)
REMARK    1  A    between atoms: C4_1  and  C5_2 
REMARK    2  A    between atoms: C4_1  and  O6_6 
REMARK    3  A    between atoms: C5_2  and  N1_7 
ROOT
ATOM      1  C5  CHT d          30.083  29.885   8.766  0.00  0.00     0.262 C 
ENDROOT
BRANCH   1   2
ATOM      2  C4  CHT d          28.904  30.841   8.978  0.00  0.00     0.192 C 
BRANCH   2   3
ATOM      3  O6  CHT d          28.060  30.892   8.091  0.00  0.00    -0.399 OA
ATOM      4  H14 CHT d          27.384  31.514   8.334  0.00  0.00     0.209 HD
ENDBRANCH   2   3
ENDBRANCH   1   2
BRANCH   1   5
ATOM      5  N1  CHT d          29.791  28.447   8.665  0.00  0.00    -0.077 N 
ATOM      6  C6  CHT d          29.541  28.058  10.029  0.00  0.00     0.271 C 
ATOM      7  C7  CHT d          30.991  27.809   8.228  0.00  0.00     0.271 C 
ATOM      8  C8  CHT d          28.745  27.910   7.814  0.00  0.00     0.271 C 
ENDBRANCH   1   5
TORSDOF 3
