REMARK  5 active torsions:
REMARK  status: ('A' for Active; 'I' for Inactive)
REMARK    1  A    between atoms: N_1  and  CA_2 
REMARK    2  A    between atoms: CA_2  and  C_3 
REMARK    3  A    between atoms: CA_2  and  CB_5 
REMARK    4  A    between atoms: CB_5  and  CG_6 
REMARK    5  A    between atoms: CG_6  and  CD_7 
ROOT
ATOM      1  CA  GLU d          21.477  -4.674  11.039  0.00  0.00     0.283 C 
ENDROOT
BRANCH   1   2
ATOM      2  N   GLU d          22.407  -4.077  12.033  0.00  0.00    -0.065 N 
ATOM      3  H1  GLU d          22.509  -4.703  12.816  0.00  0.00     0.275 HD
ATOM      4  H2  GLU d          22.036  -3.196  12.353  0.00  0.00     0.275 HD
ATOM      5  H3  GLU d          23.307  -3.927  11.604  0.00  0.00     0.275 HD
ENDBRANCH   1   2
BRANCH   1   6
ATOM      6  C   GLU d          21.309  -3.736   9.839  0.00  0.00     0.204 C 
ATOM      7  O   GLU d          21.928  -2.669   9.803  0.00  0.00    -0.646 OA
ATOM      8  OXT GLU d          20.589  -4.014   8.871  0.00  0.00    -0.646 OA
ENDBRANCH   1   6
BRANCH   1   9
ATOM      9  CB  GLU d          20.144  -4.994  11.707  0.00  0.00     0.054 C 
BRANCH   9  10
ATOM     10  CG  GLU d          20.298  -5.999  12.828  0.00  0.00     0.116 C 
BRANCH  10  11
ATOM     11  CD  GLU d          19.176  -5.951  13.826  0.00  0.00     0.172 C 
ATOM     12  OE1 GLU d          18.489  -6.977  13.984  0.00  0.00    -0.648 OA
ATOM     13  OE2 GLU d          18.980  -4.893  14.450  0.00  0.00    -0.648 OA
ENDBRANCH  10  11
ENDBRANCH   9  10
ENDBRANCH   1   9
TORSDOF 5
