REMARK  3 active torsions:
REMARK  status: ('A' for Active; 'I' for Inactive)
REMARK    1  A    between atoms: C2_4  and  O2_5 
REMARK    2  A    between atoms: C3_6  and  O3_7 
REMARK    3  A    between atoms: C4_8  and  O4_9 
ROOT
ATOM      1  C5  LDY d          35.347  25.922 -41.913  0.00  0.00     0.201 C 
ATOM      2  O5  LDY d          34.375  26.945 -41.599  0.00  0.00    -0.386 OA
ATOM      3  C1  LDY d          34.310  28.018 -42.573  0.00  0.00     0.201 C 
ATOM      4  C2  LDY d          34.157  27.477 -44.024  0.00  0.00     0.173 C 
ATOM      5  C3  LDY d          35.019  26.233 -44.333  0.00  0.00     0.179 C 
ATOM      6  C4  LDY d          34.953  25.222 -43.196  0.00  0.00     0.173 C 
ENDROOT
BRANCH   4   7
ATOM      7  O2  LDY d          34.500  28.509 -44.943  0.00  0.00    -0.391 OA
ATOM      8  H6  LDY d          35.399  28.778 -44.794  0.00  0.00     0.210 HD
ENDBRANCH   4   7
BRANCH   5   9
ATOM      9  O3  LDY d          36.372  26.609 -44.543  0.00  0.00    -0.390 OA
ATOM     10  H8  LDY d          36.422  27.211 -45.276  0.00  0.00     0.210 HD
ENDBRANCH   5   9
BRANCH   6  11
ATOM     11  O4  LDY d          33.630  24.705 -43.084  0.00  0.00    -0.391 OA
ATOM     12  H10 LDY d          33.027  25.417 -42.907  0.00  0.00     0.210 HD
ENDBRANCH   6  11
TORSDOF 3
