4jv6_ligand

Created by X-TOOL on Fri Sep 26 17:34:59 2014
 38 41  0  0  0  0  0  0  0  0999 V2000
   19.4930  -16.7440   16.2510  C 0  0  0  2  0  3
   20.0370  -15.6060   16.8680  C 0  0  0  2  0  3
   20.7250  -14.6170   16.1790  C 0  0  0  2  0  3
   20.9190  -14.7670   14.7990  C 0  0  0  2  0  3
   20.3670  -15.8990   14.1730  C 0  0  0  2  0  3
   19.6460  -16.8780   14.8750  C 0  0  0  1  0  3
   19.0330  -18.1330   14.1750  C 0  0  0  3  0  4
   19.2110  -18.1020   12.6900  N 0  0  0  1  0  3
   20.2960  -18.6220   12.0670  C 0  0  0  1  0  3
   21.4460  -19.2740   12.5480  C 0  0  0  2  0  3
   22.4440  -19.6820   11.6260  C 0  0  0  2  0  3
   22.2360  -19.4210   10.2490  C 0  0  0  2  0  3
   21.0840  -18.7530    9.7870  C 0  0  0  2  0  3
   20.1040  -18.3700   10.7100  C 0  0  0  1  0  3
   18.9040  -17.6770   10.5530  N 0  0  0  1  0  2
   18.3740  -17.5190   11.7700  C 0  0  0  1  0  3
   17.1020  -16.9920   12.0360  C 0  0  0  1  0  3
   16.0340  -17.5970   11.3610  C 0  0  0  2  0  3
   14.7040  -17.1780   11.5880  C 0  0  0  2  0  3
   14.5160  -16.1940   12.5630  C 0  0  0  2  0  3
   15.5670  -15.5970   13.2330  C 0  0  0  2  0  3
   16.8820  -16.0000   12.9860  C 0  0  0  2  0  3
   18.9692  -17.4960   16.8300  H 0  0  0  1  0  1
   19.9130  -15.4940   17.9391  H 0  0  0  1  0  1
   21.1052  -13.7448   16.6984  H 0  0  0  1  0  1
   21.4780  -14.0322   14.2310  H 0  0  0  1  0  1
   20.5039  -16.0206   13.1046  H 0  0  0  1  0  1
   17.9572  -18.1733   14.4010  H 0  0  0  1  0  1
   19.5248  -19.0337   14.5709  H 0  0  0  1  0  1
   21.5679  -19.4621   13.6086  H 0  0  0  1  0  1
   23.3438  -20.1813   11.9667  H 0  0  0  1  0  1
   22.9823  -19.7435    9.5320  H 0  0  0  1  0  1
   20.9588  -18.5389    8.7317  H 0  0  0  1  0  1
   16.2304  -18.3965   10.6558  H 0  0  0  1  0  1
   13.8720  -17.5980   11.0345  H 0  0  0  1  0  1
   13.5046  -15.8867   12.8033  H 0  0  0  1  0  1
   15.3702  -14.8119   13.9540  H 0  0  0  1  0  1
   17.7104  -15.5506   13.5216  H 0  0  0  1  0  1
  1  2  4  0  0  1
  1  6  4  0  0  1
  2  3  4  0  0  1
  3  4  4  0  0  1
  4  5  4  0  0  1
  5  6  4  0  0  1
  6  7  1  0  0  2
  7  8  1  0  0  2
  8  9  1  0  0  1
  8 16  1  0  0  1
  9 10  4  0  0  1
  9 14  4  0  0  1
 10 11  4  0  0  1
 11 12  4  0  0  1
 12 13  4  0  0  1
 13 14  4  0  0  1
 14 15  1  0  0  1
 15 16  2  0  0  1
 16 17  1  0  0  2
 17 18  4  0  0  1
 17 22  4  0  0  1
 18 19  4  0  0  1
 19 20  4  0  0  1
 20 21  4  0  0  1
 21 22  4  0  0  1
  1 23  1  0  0  2
  2 24  1  0  0  2
  3 25  1  0  0  2
  4 26  1  0  0  2
  5 27  1  0  0  2
  7 28  1  0  0  2
  7 29  1  0  0  2
 10 30  1  0  0  2
 11 31  1  0  0  2
 12 32  1  0  0  2
 13 33  1  0  0  2
 18 34  1  0  0  2
 19 35  1  0  0  2
 20 36  1  0  0  2
 21 37  1  0  0  2
 22 38  1  0  0  2
M  END
> <MOLECULAR_FORMULA>
C20H16N2

> <MOLECULAR_WEIGHT>
284.2

> <NUM_HB_ATOMS>
2  

> <NUM_ROTOR>
2  

> <XLOGP2>
5.22 

$$$$
