REMARK  4 active torsions:
REMARK  status: ('A' for Active; 'I' for Inactive)
REMARK    1  A    between atoms: N_1  and  CA_2 
REMARK    2  A    between atoms: CA_2  and  C_3 
REMARK    3  A    between atoms: CA_2  and  CB_5 
REMARK    4  A    between atoms: CB_5  and  CG_6 
ROOT
ATOM      1  CA  DHI d           0.259   3.597  11.522  0.00  0.00     0.289 C 
ENDROOT
BRANCH   1   2
ATOM      2  N   DHI d          -0.179   2.293  11.011  0.00  0.00    -0.065 N 
ATOM      3  H1  DHI d          -1.129   2.121  11.300  0.00  0.00     0.275 HD
ATOM      4  H2  DHI d           0.420   1.570  11.377  0.00  0.00     0.275 HD
ATOM      5  H3  DHI d          -0.129   2.293  10.004  0.00  0.00     0.275 HD
ENDBRANCH   1   2
BRANCH   1   6
ATOM      6  C   DHI d           1.692   3.884  11.100  0.00  0.00     0.204 C 
ATOM      7  O   DHI d           2.062   3.583   9.986  0.00  0.00    -0.646 OA
ATOM      8  OXT DHI d           2.552   4.469  11.946  0.00  0.00    -0.646 OA
ENDBRANCH   1   6
BRANCH   1   9
ATOM      9  CB  DHI d          -0.669   4.703  11.005  0.00  0.00     0.104 C 
BRANCH   9  10
ATOM     10  CG  DHI d          -2.093   4.405  11.391  0.00  0.00     0.053 A 
ATOM     11  ND1 DHI d          -2.878   3.486  10.805  0.00  0.00    -0.247 NA
ATOM     12  CE1 DHI d          -4.042   3.490  11.381  0.00  0.00     0.207 A 
ATOM     13  NE2 DHI d          -4.042   4.421  12.365  0.00  0.00    -0.359 N 
ATOM     14  CD2 DHI d          -2.803   5.002  12.369  0.00  0.00     0.116 A 
ATOM     15  H9  DHI d          -4.827   4.649  12.992  0.00  0.00     0.166 HD
ENDBRANCH   9  10
ENDBRANCH   1   9
TORSDOF 4
