REMARK  11 active torsions:
REMARK  status: ('A' for Active; 'I' for Inactive)
REMARK    1  A    between atoms: C6_2  and  O6_1 
REMARK    2  A    between atoms: C5_3  and  C6_2 
REMARK    3  A    between atoms: C11_19  and  C10_4 
REMARK    4  A    between atoms: C4_6  and  O4_7 
REMARK    5  A    between atoms: C3_8  and  O3_9 
REMARK    6  A    between atoms: C2_10  and  O2_11 
REMARK    7  A    between atoms: O1_13  and  C1_12 
REMARK    8  A    between atoms: C7_14  and  O1_13 
REMARK    9  A    between atoms: C8_15  and  C7_14 
REMARK   10  A    between atoms: C9_16  and  C8_15 
REMARK   11  A    between atoms: C12_18  and  C11_19 
ROOT
ATOM      1  C5  KGM d          10.267  -7.412 -35.407  0.00  0.00     0.179 C 
ATOM      2  O5  KGM d          10.449  -5.989 -35.541  0.00  0.00    -0.348 OA
ATOM      3  C4  KGM d          11.284  -8.058 -34.405  0.00  0.00     0.180 C 
ATOM      4  C3  KGM d          12.697  -7.668 -34.877  0.00  0.00     0.183 C 
ATOM      5  C2  KGM d          12.869  -6.095 -34.983  0.00  0.00     0.204 C 
ATOM      6  C1  KGM d          11.779  -5.521 -35.943  0.00  0.00     0.291 C 
ENDROOT
BRANCH   6   7
ATOM      7  O1  KGM d          11.927  -5.953 -37.275  0.00  0.00    -0.358 OA
BRANCH   7   8
ATOM      8  C7  KGM d          11.066  -5.448 -38.332  0.00  0.00     0.174 C 
BRANCH   8   9
ATOM      9  C8  KGM d          11.397  -6.384 -39.521  0.00  0.00     0.053 C 
BRANCH   9  10
ATOM     10  C9  KGM d          10.544  -6.163 -40.728  0.00  0.00    -0.029 C 
ATOM     11  C10 KGM d          10.776  -6.811 -41.890  0.00  0.00    -0.031 C 
BRANCH  11  12
ATOM     12  C11 KGM d           9.921  -6.495 -43.094  0.00  0.00     0.026 C 
BRANCH  12  13
ATOM     13  C12 KGM d          10.142  -7.388 -44.278  0.00  0.00    -0.001 C 
ATOM     14  C13 KGM d           9.146  -7.016 -45.401  0.00  0.00     0.005 C 
ENDBRANCH  12  13
ENDBRANCH  11  12
ENDBRANCH   9  10
ENDBRANCH   8   9
ENDBRANCH   7   8
ENDBRANCH   6   7
BRANCH   5  15
ATOM     15  O2  KGM d          12.707  -5.477 -33.720  0.00  0.00    -0.388 OA
ATOM     16  H   KGM d          13.360  -5.814 -33.118  0.00  0.00     0.210 HD
ENDBRANCH   5  15
BRANCH   1  17
ATOM     17  C6  KGM d           8.784  -7.586 -34.961  0.00  0.00     0.198 C 
BRANCH  17  18
ATOM     18  O6  KGM d           8.615  -6.990 -33.666  0.00  0.00    -0.398 OA
ATOM     19  H   KGM d           7.713  -7.092 -33.387  0.00  0.00     0.209 HD
ENDBRANCH  17  18
ENDBRANCH   1  17
BRANCH   4  20
ATOM     20  O3  KGM d          13.670  -8.103 -33.958  0.00  0.00    -0.390 OA
ATOM     21  H   KGM d          14.532  -7.852 -34.269  0.00  0.00     0.210 HD
ENDBRANCH   4  20
BRANCH   3  22
ATOM     22  O4  KGM d          11.113  -9.445 -34.448  0.00  0.00    -0.390 OA
ATOM     23  H   KGM d          10.223  -9.661 -34.197  0.00  0.00     0.210 HD
ENDBRANCH   3  22
TORSDOF 11
