3hx3_ligand

Created by X-TOOL on Fri Sep 26 17:34:43 2014
 49 49  0  0  0  0  0  0  0  0999 V2000
    5.0550    7.8800   12.2630  C 0  0  0  1  0  4
    5.3860    9.1320   11.4850  C 0  0  0  3  0  4
    6.6590    9.6150   12.1620  C 0  0  0  3  0  4
    7.7560    8.5460   12.1040  C 0  0  0  3  0  4
    7.2980    7.0920   12.0190  C 0  0  0  1  0  3
    6.0090    6.7310   12.0610  C 0  0  0  1  0  3
    5.6480    5.2870   11.9920  C 0  0  0  2  0  3
    4.7620    4.7110   12.8010  C 0  0  0  2  0  3
    4.4140    3.2710   12.7440  C 0  0  0  1  0  3
    3.2770    2.8240   13.3080  C 0  0  0  2  0  3
    2.9840    1.3960   13.2360  C 0  0  0  2  0  3
    1.8980    0.8250   13.7650  C 0  0  0  2  0  3
    0.8320    1.5810   14.4480  C 0  0  0  1  0  3
    1.1340    2.4390   15.4270  C 0  0  0  2  0  3
    0.0760    3.1750   16.1140  C 0  0  0  2  0  3
    0.3870    4.0610   16.8960  O 0  0  0  1  0  1
    3.8590    7.7860   13.2050  C 0  0  0  4  0  4
    4.1540    7.4260   11.1140  C 0  0  0  4  0  4
    8.3410    6.0290   11.8460  C 0  0  0  4  0  4
    5.3220    2.2700   12.0840  C 0  0  0  4  0  4
   -0.6010    1.3440   14.0750  C 0  0  0  4  0  4
    4.5823    9.8779   11.5720  H 0  0  0  1  0  1
    5.5623    8.9050   10.4232  H 0  0  0  1  0  1
    6.4398    9.8477   13.2145  H 0  0  0  1  0  1
    7.0147   10.5225   11.6522  H 0  0  0  1  0  1
    8.3691    8.6490   13.0115  H 0  0  0  1  0  1
    8.3747    8.7521   11.2181  H 0  0  0  1  0  1
    6.1355    4.6696   11.2389  H 0  0  0  1  0  1
    4.2655    5.3314   13.5456  H 0  0  0  1  0  1
    2.5930    3.5101   13.8054  H 0  0  0  1  0  1
    3.6959    0.7550   12.7181  H 0  0  0  1  0  1
    1.7946   -0.2563   13.6876  H 0  0  0  1  0  1
    2.1736    2.5901   15.7138  H 0  0  0  1  0  1
   -0.9714    2.9384   15.9326  H 0  0  0  1  0  1
    3.8243    6.7826   13.6545  H 0  0  0  1  0  1
    2.9325    7.9670   12.6405  H 0  0  0  1  0  1
    3.9577    8.5404   13.9994  H 0  0  0  1  0  1
    4.7413    7.3761   10.1853  H 0  0  0  1  0  1
    3.3300    8.1438   10.9885  H 0  0  0  1  0  1
    3.7426    6.4315   11.3415  H 0  0  0  1  0  1
    7.8557    5.0428   11.8024  H 0  0  0  1  0  1
    9.0380    6.0573   12.6965  H 0  0  0  1  0  1
    8.8945    6.2068   10.9122  H 0  0  0  1  0  1
    6.2018    2.7875   11.6741  H 0  0  0  1  0  1
    4.7812    1.7653   11.2699  H 0  0  0  1  0  1
    5.6471    1.5252   12.8253  H 0  0  0  1  0  1
   -0.6503    0.6119   13.2555  H 0  0  0  1  0  1
   -1.0564    2.2907   13.7488  H 0  0  0  1  0  1
   -1.1475    0.9555   14.9470  H 0  0  0  1  0  1
  1  2  1  0  0  1
  1  6  1  0  0  1
  1 17  1  0  0  2
  1 18  1  0  0  2
  2  3  1  0  0  1
  3  4  1  0  0  1
  4  5  1  0  0  1
  5  6  2  0  0  1
  5 19  1  0  0  2
  6  7  1  0  0  2
  7  8  2  0  0  2
  8  9  1  0  0  2
  9 10  2  0  0  2
  9 20  1  0  0  2
 10 11  1  0  0  2
 11 12  2  0  0  2
 12 13  1  0  0  2
 13 14  2  0  0  2
 13 21  1  0  0  2
 14 15  1  0  0  2
 15 16  2  0  0  2
  2 22  1  0  0  2
  2 23  1  0  0  2
  3 24  1  0  0  2
  3 25  1  0  0  2
  4 26  1  0  0  2
  4 27  1  0  0  2
  7 28  1  0  0  2
  8 29  1  0  0  2
 10 30  1  0  0  2
 11 31  1  0  0  2
 12 32  1  0  0  2
 14 33  1  0  0  2
 15 34  1  0  0  2
 17 35  1  0  0  2
 17 36  1  0  0  2
 17 37  1  0  0  2
 18 38  1  0  0  2
 18 39  1  0  0  2
 18 40  1  0  0  2
 19 41  1  0  0  2
 19 42  1  0  0  2
 19 43  1  0  0  2
 20 44  1  0  0  2
 20 45  1  0  0  2
 20 46  1  0  0  2
 21 47  1  0  0  2
 21 48  1  0  0  2
 21 49  1  0  0  2
M  END
> <MOLECULAR_FORMULA>
C20H28O

> <MOLECULAR_WEIGHT>
284.2

> <NUM_HB_ATOMS>
1  

> <NUM_ROTOR>
0  

> <XLOGP2>
3.87 

$$$$
