REMARK  5 active torsions:
REMARK  status: ('A' for Active; 'I' for Inactive)
REMARK    1  A    between atoms: P9_2  and  C8_5 
REMARK    2  A    between atoms: C8_5  and  O13_6 
REMARK    3  A    between atoms: C8_5  and  P14_7 
REMARK    4  A    between atoms: C8_5  and  C7_11 
REMARK    5  A    between atoms: C7_11  and  C2_12 
ROOT
ATOM      1  C8  RIS d          15.230  34.251  -8.500  0.00  0.00     0.289 C 
ENDROOT
BRANCH   1   2
ATOM      2  P9  RIS d          15.622  35.751  -7.544  0.00  0.00     0.310 P 
ATOM      3  O12 RIS d          17.113  35.648  -7.173  0.00  0.00    -0.637 OA
ATOM      4  O11 RIS d          15.241  36.868  -8.470  0.00  0.00    -0.637 OA
ATOM      5  O10 RIS d          14.653  35.708  -6.438  0.00  0.00    -0.637 OA
ENDBRANCH   1   2
BRANCH   1   6
ATOM      6  O13 RIS d          13.955  34.413  -9.088  0.00  0.00    -0.365 OA
ATOM      7  H1  RIS d          13.966  35.170  -9.662  0.00  0.00     0.212 HD
ENDBRANCH   1   6
BRANCH   1   8
ATOM      8  P14 RIS d          16.439  34.086  -9.835  0.00  0.00     0.310 P 
ATOM      9  O16 RIS d          16.573  35.455 -10.377  0.00  0.00    -0.637 OA
ATOM     10  O15 RIS d          17.632  33.737  -9.097  0.00  0.00    -0.637 OA
ATOM     11  O17 RIS d          16.243  33.140 -11.018  0.00  0.00    -0.637 OA
ENDBRANCH   1   8
BRANCH   1  12
ATOM     12  C7  RIS d          15.178  33.105  -7.475  0.00  0.00     0.108 C 
BRANCH  12  13
ATOM     13  C2  RIS d          15.033  31.707  -8.064  0.00  0.00    -0.036 A 
ATOM     14  C1  RIS d          15.635  30.660  -7.381  0.00  0.00     0.010 A 
ATOM     15  C6  RIS d          15.521  29.372  -7.883  0.00  0.00     0.020 A 
ATOM     16  C5  RIS d          14.775  29.144  -8.999  0.00  0.00     0.116 A 
ATOM     17  N4  RIS d          14.190  30.147  -9.642  0.00  0.00    -0.273 NA
ATOM     18  C3  RIS d          14.286  31.404  -9.191  0.00  0.00     0.123 A 
ENDBRANCH  12  13
ENDBRANCH   1  12
TORSDOF 5
