REMARK  17 active torsions:
REMARK  status: ('A' for Active; 'I' for Inactive)
REMARK    1  A    between atoms: C2_3  and  O39_1 
REMARK    2  A    between atoms: S8_9  and  C5_6 
REMARK    3  A    between atoms: N11_12  and  S8_9 
REMARK    4  A    between atoms: N11_12  and  C12_13 
REMARK    5  A    between atoms: C16_17  and  N11_12 
REMARK    6  A    between atoms: C12_13  and  C13_14 
REMARK    7  A    between atoms: C17_18  and  C16_17 
REMARK    8  A    between atoms: C17_18  and  O18_19 
REMARK    9  A    between atoms: C19_20  and  C17_18 
REMARK   10  A    between atoms: C19_20  and  N20_21 
REMARK   11  A    between atoms: C32_29  and  C19_20 
REMARK       I    between atoms: N20_21  and  C21_22 
REMARK   12  A    between atoms: C21_22  and  O23_24 
REMARK   13  A    between atoms: O23_24  and  C24_25 
REMARK   14  A    between atoms: C38_35  and  C32_29 
REMARK   15  A    between atoms: C34_31  and  C51_36 
REMARK   16  A    between atoms: C53_38  and  O61_42 
REMARK   17  A    between atoms: C55_40  and  O63_44 
ROOT
ATOM      1  C19 G61 d          17.319  24.105  18.855  0.00  0.00     0.121 C 
ENDROOT
BRANCH   1   2
ATOM      2  C17 G61 d          15.852  24.317  18.463  0.00  0.00     0.160 C 
BRANCH   2   3
ATOM      3  C16 G61 d          14.974  23.197  19.050  0.00  0.00     0.169 C 
BRANCH   3   4
ATOM      4  N11 G61 d          15.012  22.089  18.101  0.00  0.00    -0.304 N 
BRANCH   4   5
ATOM      5  S8  G61 d          15.586  20.710  18.753  0.00  0.00     0.260 S 
ATOM      6  O9  G61 d          16.514  21.093  19.845  0.00  0.00    -0.200 OA
ATOM      7  O10 G61 d          16.228  19.987  17.615  0.00  0.00    -0.200 OA
BRANCH   5   8
ATOM      8  C5  G61 d          14.273  19.740  19.400  0.00  0.00     0.079 A 
ATOM      9  C4  G61 d          13.659  18.765  18.631  0.00  0.00     0.028 A 
ATOM     10  C3  G61 d          12.499  18.129  19.074  0.00  0.00     0.038 A 
ATOM     11  C2  G61 d          12.005  18.417  20.346  0.00  0.00     0.068 A 
ATOM     12  C7  G61 d          12.673  19.319  21.162  0.00  0.00     0.038 A 
ATOM     13  C6  G61 d          13.761  20.026  20.651  0.00  0.00     0.028 A 
BRANCH  11  14
ATOM     14  O39 G61 d          10.909  17.764  20.811  0.00  0.00    -0.356 OA
ATOM     15  C40 G61 d          10.195  17.142  19.736  0.00  0.00     0.210 C 
ENDBRANCH  11  14
ENDBRANCH   5   8
ENDBRANCH   4   5
BRANCH   4  16
ATOM     16  C12 G61 d          13.901  21.991  17.194  0.00  0.00     0.139 C 
BRANCH  16  17
ATOM     17  C13 G61 d          14.111  22.959  16.012  0.00  0.00    -0.004 C 
ATOM     18  C14 G61 d          15.554  22.843  15.510  0.00  0.00     0.011 C 
ATOM     19  C15 G61 d          13.145  22.623  14.865  0.00  0.00     0.011 C 
ENDBRANCH  16  17
ENDBRANCH   4  16
ENDBRANCH   3   4
ENDBRANCH   2   3
BRANCH   2  20
ATOM     20  O18 G61 d          15.348  25.551  18.966  0.00  0.00    -0.392 OA
ATOM     21  H20 G61 d          15.397  25.549  19.915  0.00  0.00     0.210 HD
ENDBRANCH   2  20
ENDBRANCH   1   2
BRANCH   1  22
ATOM     22  N20 G61 d          18.173  25.140  18.257  0.00  0.00    -0.329 N 
ATOM     23  C21 G61 d          18.631  25.053  16.998  0.00  0.00     0.361 C 
ATOM     24  O22 G61 d          18.470  24.013  16.345  0.00  0.00    -0.238 OA
ATOM     25  H22 G61 d          18.422  25.937  18.807  0.00  0.00     0.165 HD
BRANCH  23  26
ATOM     26  O23 G61 d          19.259  26.144  16.511  0.00  0.00    -0.294 OA
BRANCH  26  27
ATOM     27  C24 G61 d          19.718  26.227  15.178  0.00  0.00     0.061 C 
ATOM     28  C25 G61 d          20.215  27.664  14.855  0.00  0.00     0.046 C 
ATOM     29  C26 G61 d          20.899  25.267  15.034  0.00  0.00     0.046 C 
ATOM     30  C27 G61 d          18.646  25.908  14.142  0.00  0.00     0.046 C 
ENDBRANCH  26  27
ENDBRANCH  23  26
ENDBRANCH   1  22
BRANCH   1  31
ATOM     31  C32 G61 d          17.530  24.096  20.370  0.00  0.00     0.066 C 
BRANCH  31  32
ATOM     32  C38 G61 d          19.023  24.116  20.723  0.00  0.00    -0.055 C 
ATOM     33  C33 G61 d          19.861  23.051  20.412  0.00  0.00     0.019 C 
ATOM     34  C34 G61 d          21.233  23.161  20.625  0.00  0.00    -0.025 C 
ATOM     35  C35 G61 d          21.756  24.250  21.326  0.00  0.00     0.012 C 
ATOM     36  C36 G61 d          20.895  25.277  21.692  0.00  0.00     0.001 C 
ATOM     37  C37 G61 d          19.538  25.222  21.382  0.00  0.00     0.007 C 
BRANCH  34  38
ATOM     38  C51 G61 d          22.102  22.088  20.395  0.00  0.00    -0.021 A 
ATOM     39  C52 G61 d          23.391  22.322  19.915  0.00  0.00     0.049 A 
ATOM     40  C53 G61 d          24.242  21.244  19.694  0.00  0.00     0.071 A 
ATOM     41  C54 G61 d          23.797  19.940  19.954  0.00  0.00     0.073 A 
ATOM     42  C55 G61 d          22.514  19.708  20.431  0.00  0.00     0.071 A 
ATOM     43  C56 G61 d          21.664  20.796  20.652  0.00  0.00     0.049 A 
BRANCH  40  44
ATOM     44  O61 G61 d          25.503  21.439  19.227  0.00  0.00    -0.356 OA
ATOM     45  C62 G61 d          25.782  22.790  18.867  0.00  0.00     0.210 C 
ENDBRANCH  40  44
BRANCH  42  46
ATOM     46  O63 G61 d          22.036  18.468  20.698  0.00  0.00    -0.356 OA
ATOM     47  C64 G61 d          22.987  17.435  20.391  0.00  0.00     0.210 C 
ENDBRANCH  42  46
ENDBRANCH  34  38
ENDBRANCH  31  32
ENDBRANCH   1  31
TORSDOF 17
