REMARK  7 active torsions:
REMARK  status: ('A' for Active; 'I' for Inactive)
REMARK    1  A    between atoms: N4_1  and  C3_2 
REMARK    2  A    between atoms: C3_2  and  C5_3 
REMARK    3  A    between atoms: C3_2  and  C2_5 
REMARK       I    between atoms: C5_3  and  N6_12 
REMARK    4  A    between atoms: C2_5  and  C1_6 
REMARK    5  A    between atoms: C13_13  and  C14_14 
REMARK       I    between atoms: C14_14  and  N16_19 
REMARK    6  A    between atoms: N16_19  and  C17_20 
REMARK    7  A    between atoms: C17_20  and  C18_21 
ROOT
ATOM      1  C5  MOL d          17.473 -13.179  22.557  0.00  0.00     0.251 C 
ATOM      2  O7  MOL d          16.557 -12.468  23.001  0.00  0.00    -0.271 OA
ATOM      3  N6  MOL d          18.339 -12.783  21.565  0.00  0.00    -0.337 N 
ATOM      4  C13 MOL d          18.205 -11.432  20.992  0.00  0.00     0.179 C 
ATOM      5  C19 MOL d          19.194 -11.420  19.806  0.00  0.00     0.037 C 
ATOM      6  C20 MOL d          20.239 -12.402  20.272  0.00  0.00     0.022 C 
ATOM      7  C21 MOL d          19.457 -13.536  20.949  0.00  0.00     0.127 C 
ENDROOT
BRANCH   1   8
ATOM      8  C3  MOL d          17.699 -14.578  23.154  0.00  0.00     0.279 C 
BRANCH   8   9
ATOM      9  N4  MOL d          16.385 -15.301  23.082  0.00  0.00    -0.066 N 
ATOM     10  H1  MOL d          16.490 -16.227  23.465  0.00  0.00     0.275 HD
ATOM     11  H2  MOL d          16.090 -15.367  22.120  0.00  0.00     0.275 HD
ATOM     12  H3  MOL d          15.693 -14.794  23.612  0.00  0.00     0.275 HD
ENDBRANCH   8   9
BRANCH   8  13
ATOM     13  C2  MOL d          18.178 -14.505  24.615  0.00  0.00     0.081 C 
BRANCH  13  14
ATOM     14  C1  MOL d          19.611 -13.994  24.683  0.00  0.00    -0.056 A 
ATOM     15  C8  MOL d          20.671 -14.666  24.063  0.00  0.00     0.007 A 
ATOM     16  C9  MOL d          21.958 -14.160  24.154  0.00  0.00     0.001 A 
ATOM     17  C10 MOL d          22.209 -12.981  24.860  0.00  0.00     0.000 A 
ATOM     18  C11 MOL d          21.162 -12.304  25.482  0.00  0.00     0.001 A 
ATOM     19  C12 MOL d          19.878 -12.810  25.390  0.00  0.00     0.007 A 
ENDBRANCH  13  14
ENDBRANCH   8  13
ENDBRANCH   1   8
BRANCH   4  20
ATOM     20  C14 MOL d          16.746 -11.311  20.468  0.00  0.00     0.240 C 
ATOM     21  O15 MOL d          16.260 -12.193  19.720  0.00  0.00    -0.271 OA
ATOM     22  N16 MOL d          16.087 -10.143  20.716  0.00  0.00    -0.355 N 
ATOM     23  H19 MOL d          16.529  -9.448  21.283  0.00  0.00     0.162 HD
BRANCH  22  24
ATOM     24  C17 MOL d          14.761  -9.876  20.181  0.00  0.00     0.162 C 
BRANCH  24  25
ATOM     25  C18 MOL d          13.718 -10.435  21.091  0.00  0.00    -0.023 A 
ATOM     26  C22 MOL d          12.934  -9.622  21.887  0.00  0.00     0.124 A 
ATOM     27  N23 MOL d          11.973 -10.082  22.730  0.00  0.00    -0.273 NA
ATOM     28  C24 MOL d          11.779 -11.419  22.785  0.00  0.00     0.116 A 
ATOM     29  C25 MOL d          12.517 -12.299  22.025  0.00  0.00     0.020 A 
ATOM     30  C26 MOL d          13.490 -11.794  21.177  0.00  0.00     0.012 A 
ENDBRANCH  24  25
ENDBRANCH  22  24
ENDBRANCH   4  20
TORSDOF 7
