REMARK  9 active torsions:
REMARK  status: ('A' for Active; 'I' for Inactive)
REMARK    1  A    between atoms: NBG_6  and  CAR_7 
REMARK    2  A    between atoms: CAR_7  and  CAO_8 
REMARK    3  A    between atoms: CAO_8  and  SAY_9 
REMARK    4  A    between atoms: SAY_9  and  C2_10 
REMARK    5  A    between atoms: C6_12  and  NAW_13 
REMARK    6  A    between atoms: NAW_13  and  CAZ_14 
REMARK    7  A    between atoms: NBH_25  and  CAS_26 
REMARK    8  A    between atoms: CAS_26  and  CBF_27 
REMARK    9  A    between atoms: CBF_27  and  CBA_29 
ROOT
ATOM      1  C2  MOL d          -6.195   5.558  30.835  0.00  0.00     0.192 A 
ATOM      2  N1  MOL d          -6.355   4.667  31.815  0.00  0.00    -0.204 NA
ATOM      3  C6  MOL d          -5.323   3.903  32.191  0.00  0.00     0.146 A 
ATOM      4  N3  MOL d          -5.004   5.690  30.227  0.00  0.00    -0.203 NA
ATOM      5  C4  MOL d          -3.968   4.918  30.609  0.00  0.00     0.164 A 
ATOM      6  C5  MOL d          -4.124   4.014  31.592  0.00  0.00     0.077 A 
ATOM      7  CAL MOL d          -2.949   3.397  31.737  0.00  0.00     0.158 A 
ATOM      8  NAT MOL d          -2.084   3.928  30.859  0.00  0.00    -0.182 NA
ATOM      9  NBH MOL d          -2.706   4.845  30.168  0.00  0.00    -0.250 N 
ENDROOT
BRANCH   1  10
ATOM     10  SAY MOL d          -7.537   6.499  30.390  0.00  0.00    -0.088 SA
BRANCH  10  11
ATOM     11  CAO MOL d          -6.682   7.935  29.661  0.00  0.00     0.110 C 
BRANCH  11  12
ATOM     12  CAR MOL d          -6.941   8.101  28.169  0.00  0.00     0.245 C 
BRANCH  12  13
ATOM     13  NBG MOL d          -6.555   9.461  27.797  0.00  0.00    -0.066 N 
ATOM     14  CAP MOL d          -5.103   9.538  27.562  0.00  0.00     0.261 C 
ATOM     15  CAM MOL d          -4.709  10.984  27.336  0.00  0.00     0.195 C 
ATOM     16  OAX MOL d          -5.468  11.520  26.225  0.00  0.00    -0.388 OA
ATOM     17  CAN MOL d          -6.920  11.419  26.350  0.00  0.00     0.195 C 
ATOM     18  CAQ MOL d          -7.324   9.972  26.647  0.00  0.00     0.261 C 
ATOM     19  H9  MOL d          -6.766  10.057  28.582  0.00  0.00     0.280 HD
ENDBRANCH  12  13
ENDBRANCH  11  12
ENDBRANCH  10  11
ENDBRANCH   1  10
BRANCH   3  20
ATOM     20  NAW MOL d          -5.474   3.010  33.173  0.00  0.00    -0.340 N 
ATOM     21  H14 MOL d          -4.855   2.190  33.245  0.00  0.00     0.167 HD
BRANCH  20  22
ATOM     22  CAZ MOL d          -6.463   3.217  34.067  0.00  0.00     0.033 A 
ATOM     23  CAH MOL d          -7.769   2.790  33.800  0.00  0.00     0.029 A 
ATOM     24  CAD MOL d          -8.780   2.997  34.741  0.00  0.00     0.002 A 
ATOM     25  CAB MOL d          -8.491   3.624  35.958  0.00  0.00     0.000 A 
ATOM     26  CAE MOL d          -7.189   4.045  36.239  0.00  0.00     0.002 A 
ATOM     27  CAI MOL d          -6.186   3.849  35.288  0.00  0.00     0.029 A 
ENDBRANCH  20  22
ENDBRANCH   3  20
BRANCH   9  28
ATOM     28  CAS MOL d          -2.165   5.716  29.064  0.00  0.00     0.178 C 
BRANCH  28  29
ATOM     29  CBF MOL d          -1.155   6.735  29.631  0.00  0.00     0.135 C 
ATOM     30 CLA  MOL d          -1.908   7.626  31.031  0.00  0.00    -0.118 Cl
BRANCH  29  31
ATOM     31  CBA MOL d          -0.675   7.625  28.648  0.00  0.00    -0.038 A 
ATOM     32  CAJ MOL d           0.666   7.553  28.269  0.00  0.00     0.009 A 
ATOM     33  CAF MOL d           1.191   8.413  27.303  0.00  0.00     0.001 A 
ATOM     34  CAC MOL d           0.369   9.359  26.701  0.00  0.00     0.000 A 
ATOM     35  CAG MOL d          -0.975   9.443  27.076  0.00  0.00     0.001 A 
ATOM     36  CAK MOL d          -1.500   8.580  28.043  0.00  0.00     0.009 A 
ENDBRANCH  29  31
ENDBRANCH  28  29
ENDBRANCH   9  28
TORSDOF 9
