REMARK  5 active torsions:
REMARK  status: ('A' for Active; 'I' for Inactive)
REMARK    1  A    between atoms: O5'_1  and  C5'_2 
REMARK    2  A    between atoms: C5'_2  and  C4'_3 
REMARK    3  A    between atoms: C3'_5  and  O3'_6 
REMARK    4  A    between atoms: C2'_7  and  O2'_8 
REMARK    5  A    between atoms: C1'_9  and  N9_10 
ROOT
ATOM      1  C4' ADN d           1.666 -79.927-146.845  0.00  0.00     0.179 C 
ATOM      2  O4' ADN d           1.662 -78.622-146.149  0.00  0.00    -0.353 OA
ATOM      3  C3' ADN d           3.075 -80.449-146.626  0.00  0.00     0.182 C 
ATOM      4  C2' ADN d           3.634 -79.722-145.379  0.00  0.00     0.198 C 
ATOM      5  C1' ADN d           2.467 -78.773-144.965  0.00  0.00     0.262 C 
ENDROOT
BRANCH   5   6
ATOM      6  N9  ADN d           1.641 -79.215-143.773  0.00  0.00    -0.294 N 
ATOM      7  C8  ADN d           0.561 -78.489-143.237  0.00  0.00     0.214 A 
ATOM      8  N7  ADN d          -0.035 -79.041-142.212  0.00  0.00    -0.236 NA
ATOM      9  C5  ADN d           0.675 -80.226-142.020  0.00  0.00     0.149 A 
ATOM     10  C6  ADN d           0.543 -81.317-141.064  0.00  0.00     0.155 A 
ATOM     11  C4  ADN d           1.716 -80.359-142.969  0.00  0.00     0.167 A 
ATOM     12  N6  ADN d          -0.395 -81.337-140.112  0.00  0.00    -0.382 N 
ATOM     13  N1  ADN d           1.436 -82.363-141.164  0.00  0.00    -0.222 NA
ATOM     14  H11 ADN d          -0.449 -82.131-139.458  0.00  0.00     0.157 HD
ATOM     15  H12 ADN d          -1.064 -80.558-140.032  0.00  0.00     0.157 HD
ATOM     16  C2  ADN d           2.394 -82.352-142.133  0.00  0.00     0.237 A 
ATOM     17  N3  ADN d           2.610 -81.394-143.077  0.00  0.00    -0.222 NA
ENDBRANCH   5   6
BRANCH   4  18
ATOM     18  O2' ADN d           4.900 -79.102-145.584  0.00  0.00    -0.388 OA
ATOM     19  H8  ADN d           4.826 -78.455-146.275  0.00  0.00     0.210 HD
ENDBRANCH   4  18
BRANCH   1  20
ATOM     20  C5' ADN d           0.597 -80.916-146.341  0.00  0.00     0.198 C 
BRANCH  20  21
ATOM     21  O5' ADN d          -0.635 -80.275-146.614  0.00  0.00    -0.398 OA
ATOM     22  H1  ADN d          -0.670 -79.447-146.149  0.00  0.00     0.209 HD
ENDBRANCH  20  21
ENDBRANCH   1  20
BRANCH   3  23
ATOM     23  O3' ADN d           3.809 -80.123-147.823  0.00  0.00    -0.390 OA
ATOM     24  H6  ADN d           4.704 -80.430-147.738  0.00  0.00     0.210 HD
ENDBRANCH   3  23
TORSDOF 5
