REMARK  11 active torsions:
REMARK  status: ('A' for Active; 'I' for Inactive)
REMARK    1  A    between atoms: C2_3  and  C1_1 
REMARK    2  A    between atoms: O2_16  and  C2_3 
REMARK    3  A    between atoms: C6_5  and  C7_6 
REMARK    4  A    between atoms: C7_6  and  C8_7 
REMARK    5  A    between atoms: C7_6  and  O7_9 
REMARK    6  A    between atoms: C8_7  and  O8_8 
REMARK    7  A    between atoms: C5_10  and  O5_11 
REMARK    8  A    between atoms: C4_12  and  O4_13 
REMARK    9  A    between atoms: C3_14  and  O3_15 
REMARK   10  A    between atoms: C9_19  and  O2_16 
REMARK   11  A    between atoms: C10_18  and  C9_19 
ROOT
ATOM      1  C2  KO2 d          -9.274  -0.500  -1.258  0.00  0.00     0.285 C 
ATOM      2  O6  KO2 d         -10.445  -0.643  -2.096  0.00  0.00    -0.334 OA
ATOM      3  C6  KO2 d         -10.277  -1.550  -3.207  0.00  0.00     0.188 C 
ATOM      4  C5  KO2 d         -10.022  -2.964  -2.657  0.00  0.00     0.181 C 
ATOM      5  C4  KO2 d          -8.749  -2.882  -1.835  0.00  0.00     0.184 C 
ATOM      6  C3  KO2 d          -8.929  -1.874  -0.685  0.00  0.00     0.223 C 
ENDROOT
BRANCH   1   7
ATOM      7  C1  KO2 d          -9.638   0.407  -0.082  0.00  0.00     0.241 C 
ATOM      8  O1B KO2 d          -8.721   0.767   0.695  0.00  0.00    -0.644 OA
ATOM      9  O1A KO2 d         -10.858   0.661   0.052  0.00  0.00    -0.644 OA
ENDBRANCH   1   7
BRANCH   1  10
ATOM     10  O2  KO2 d          -8.277   0.016  -2.124  0.00  0.00    -0.344 OA
BRANCH  10  11
ATOM     11  C9  KO2 d          -6.954   0.249  -1.681  0.00  0.00     0.172 C 
BRANCH  11  12
ATOM     12  C10 KO2 d          -6.390   0.842  -2.979  0.00  0.00     0.022 C 
ATOM     13  C11 KO2 d          -4.922   1.215  -2.832  0.00  0.00     0.007 C 
ENDBRANCH  11  12
ENDBRANCH  10  11
ENDBRANCH   1  10
BRANCH   6  14
ATOM     14  O3  KO2 d          -9.898  -2.303   0.265  0.00  0.00    -0.387 OA
ATOM     15  H12 KO2 d         -10.738  -2.410  -0.167  0.00  0.00     0.210 HD
ENDBRANCH   6  14
BRANCH   3  16
ATOM     16  C7  KO2 d         -11.559  -1.608  -4.040  0.00  0.00     0.173 C 
BRANCH  16  17
ATOM     17  C8  KO2 d         -11.836  -0.211  -4.614  0.00  0.00     0.198 C 
BRANCH  17  18
ATOM     18  O8  KO2 d         -13.023  -0.228  -5.406  0.00  0.00    -0.398 OA
ATOM     19  H5  KO2 d         -12.916  -0.843  -6.122  0.00  0.00     0.209 HD
ENDBRANCH  17  18
ENDBRANCH  16  17
BRANCH  16  20
ATOM     20  O7  KO2 d         -11.419  -2.555  -5.100  0.00  0.00    -0.391 OA
ATOM     21  H6  KO2 d         -12.221  -2.580  -5.609  0.00  0.00     0.210 HD
ENDBRANCH  16  20
ENDBRANCH   3  16
BRANCH   5  22
ATOM     22  O4  KO2 d          -8.488  -4.160  -1.250  0.00  0.00    -0.390 OA
ATOM     23  H10 KO2 d          -9.215  -4.405  -0.691  0.00  0.00     0.210 HD
ENDBRANCH   5  22
BRANCH   4  24
ATOM     24  O5  KO2 d         -11.146  -3.399  -1.879  0.00  0.00    -0.390 OA
ATOM     25  H8  KO2 d         -11.278  -2.800  -1.153  0.00  0.00     0.210 HD
ENDBRANCH   4  24
TORSDOF 11
