REMARK  1 active torsions:
REMARK  status: ('A' for Active; 'I' for Inactive)
REMARK    1  A    between atoms: C17_18  and  O17_19 
ROOT
ATOM      1  C1  TES d          -2.319  -0.756  20.867  0.00  0.00     0.022 C 
ATOM      2  C2  TES d          -3.509  -1.558  20.343  0.00  0.00     0.084 C 
ATOM      3  C3  TES d          -4.015  -1.044  19.015  0.00  0.00     0.149 C 
ATOM      4  O3  TES d          -5.177  -1.247  18.676  0.00  0.00    -0.293 OA
ATOM      5  C4  TES d          -3.082  -0.300  18.130  0.00  0.00     0.053 C 
ATOM      6  C5  TES d          -1.846   0.041  18.504  0.00  0.00    -0.068 C 
ATOM      7  C6  TES d          -1.022   0.826  17.512  0.00  0.00     0.035 C 
ATOM      8  C7  TES d          -0.051   1.822  18.137  0.00  0.00     0.010 C 
ATOM      9  C8  TES d           0.621   1.301  19.400  0.00  0.00    -0.004 C 
ATOM     10  C9  TES d          -0.433   0.795  20.383  0.00  0.00     0.002 C 
ATOM     11  C10 TES d          -1.262  -0.377  19.830  0.00  0.00    -0.016 C 
ATOM     12  C11 TES d           0.121   0.526  21.799  0.00  0.00     0.007 C 
ATOM     13  C12 TES d           0.872   1.745  22.382  0.00  0.00     0.012 C 
ATOM     14  C13 TES d           1.991   2.108  21.422  0.00  0.00    -0.014 C 
ATOM     15  C14 TES d           1.423   2.425  20.059  0.00  0.00     0.001 C 
ATOM     16  C15 TES d           2.625   2.964  19.296  0.00  0.00     0.008 C 
ATOM     17  C16 TES d           3.479   3.642  20.373  0.00  0.00     0.033 C 
ATOM     18  C17 TES d           2.726   3.424  21.690  0.00  0.00     0.126 C 
ATOM     19  C18 TES d           3.019   0.966  21.355  0.00  0.00     0.018 C 
ATOM     20  C19 TES d          -0.381  -1.600  19.589  0.00  0.00     0.020 C 
ENDROOT
BRANCH  18  21
ATOM     21  O17 TES d           3.584   3.396  22.845  0.00  0.00    -0.395 OA
ATOM     22  H22 TES d           3.059   3.258  23.625  0.00  0.00     0.210 HD
ENDBRANCH  18  21
TORSDOF 1
