REMARK  0 active torsions:
REMARK  status: ('A' for Active; 'I' for Inactive)
ROOT
ATOM      1  C1  BNZ d           4.052   8.564   0.230  0.00  0.00     0.000 A 
ATOM      2  C2  BNZ d           4.541   9.773   0.726  0.00  0.00     0.000 A 
ATOM      3  C3  BNZ d           3.769  10.610   1.533  0.00  0.00     0.000 A 
ATOM      4  C4  BNZ d           2.462  10.155   1.841  0.00  0.00     0.000 A 
ATOM      5  C5  BNZ d           1.980   8.943   1.364  0.00  0.00     0.000 A 
ATOM      6  C6  BNZ d           2.775   8.138   0.563  0.00  0.00     0.000 A 
ENDROOT
TORSDOF 0
