REMARK  7 active torsions:
REMARK  status: ('A' for Active; 'I' for Inactive)
REMARK    1  A    between atoms: N2_23  and  C2_1 
REMARK    2  A    between atoms: O6_17  and  C10_3 
REMARK    3  A    between atoms: C10_3  and  C11_4 
REMARK    4  A    between atoms: C20_11  and  S23_26 
REMARK    5  A    between atoms: S23_26  and  N26_14 
REMARK    6  A    between atoms: C6_16  and  O6_17 
REMARK    7  A    between atoms: N2_23  and  C17_24 
ROOT
ATOM      1  C2  MOL d           7.650  43.834  49.764  0.00  0.00     0.731 A 
ATOM      2  C8  MOL d          10.475  46.491  51.933  0.00  0.00     0.209 A 
ATOM      3  N1  MOL d           6.658  44.520  50.561  0.00  0.00    -0.035 NA
ATOM      4  C6  MOL d           7.080  45.467  51.369  0.00  0.00     0.216 A 
ATOM      5  C5  MOL d           8.465  45.767  51.540  0.00  0.00     0.158 A 
ATOM      6  N7  MOL d           9.232  46.729  52.256  0.00  0.00    -0.236 NA
ATOM      7  N9  MOL d          10.588  45.505  51.047  0.00  0.00    -0.333 N 
ATOM      8  C4  MOL d           9.362  45.111  50.814  0.00  0.00     0.181 A 
ATOM      9  N3  MOL d           8.879  44.099  49.970  0.00  0.00    -0.042 NA
ATOM     10  H20 MOL d          11.454  45.132  50.633  0.00  0.00     0.168 HD
ENDROOT
BRANCH   1  11
ATOM     11  N2  MOL d           7.286  42.856  48.978  0.00  0.00    -0.188 N 
ATOM     12  H21 MOL d           7.947  42.540  48.254  0.00  0.00     0.184 HD
BRANCH  11  13
ATOM     13  C17 MOL d           6.065  42.225  49.067  0.00  0.00     0.049 A 
ATOM     14  C18 MOL d           5.611  41.534  47.922  0.00  0.00     0.031 A 
ATOM     15  C19 MOL d           4.435  40.813  47.888  0.00  0.00     0.027 A 
ATOM     16  C20 MOL d           3.602  40.753  48.977  0.00  0.00     0.079 A 
ATOM     17  C21 MOL d           4.023  41.432  50.180  0.00  0.00     0.027 A 
ATOM     18  C22 MOL d           5.224  42.101  50.175  0.00  0.00     0.031 A 
BRANCH  16  19
ATOM     19  S23 MOL d           2.147  39.796  48.930  0.00  0.00     0.256 S 
ATOM     20  O25 MOL d           1.553  39.740  47.599  0.00  0.00    -0.201 OA
ATOM     21  O24 MOL d           2.455  38.512  49.542  0.00  0.00    -0.201 OA
BRANCH  19  22
ATOM     22  N26 MOL d           1.063  40.498  49.846  0.00  0.00    -0.324 N 
ATOM     23  H18 MOL d           0.154  40.093  49.946  0.00  0.00     0.169 HD
ATOM     24  H19 MOL d           1.287  41.347  50.325  0.00  0.00     0.169 HD
ENDBRANCH  19  22
ENDBRANCH  16  19
ENDBRANCH  11  13
ENDBRANCH   1  11
BRANCH   4  25
ATOM     25  O6  MOL d           6.254  46.229  52.073  0.00  0.00    -0.332 OA
BRANCH  25  26
ATOM     26  C10 MOL d           4.896  45.749  51.715  0.00  0.00     0.182 C 
BRANCH  26  27
ATOM     27  C11 MOL d           3.939  46.102  52.892  0.00  0.00     0.010 C 
ATOM     28  C16 MOL d           2.450  45.872  52.565  0.00  0.00     0.007 C 
ATOM     29  C15 MOL d           1.532  46.243  53.785  0.00  0.00     0.000 C 
ATOM     30  C14 MOL d           1.852  45.558  55.110  0.00  0.00     0.000 C 
ATOM     31  C13 MOL d           3.397  45.857  55.441  0.00  0.00     0.000 C 
ATOM     32  C12 MOL d           4.288  45.467  54.267  0.00  0.00     0.007 C 
ENDBRANCH  26  27
ENDBRANCH  25  26
ENDBRANCH   4  25
TORSDOF 7
