REMARK  6 active torsions:
REMARK  status: ('A' for Active; 'I' for Inactive)
REMARK    1  A    between atoms: C17_7  and  C21_10 
REMARK    2  A    between atoms: C21_10  and  O27_12 
REMARK    3  A    between atoms: O27_12  and  C15_13 
REMARK    4  A    between atoms: C19_15  and  N22_16 
REMARK    5  A    between atoms: C14_19  and  C16_20 
REMARK    6  A    between atoms: N26_23  and  C20_25 
ROOT
ATOM      1  C15 VGH d          30.075  44.298   9.031  0.00  0.00     0.116 A 
ATOM      2  C4  VGH d          29.967  45.533   8.304  0.00  0.00     0.054 A 
ATOM      3  C19 VGH d          29.021  44.025   9.964  0.00  0.00     0.154 A 
ATOM      4  N23 VGH d          27.964  44.848  10.184  0.00  0.00    -0.240 NA
ATOM      5  C5  VGH d          27.892  46.012   9.479  0.00  0.00     0.131 A 
ATOM      6  C14 VGH d          28.871  46.416   8.518  0.00  0.00    -0.003 A 
ENDROOT
BRANCH   6   7
ATOM      7  C16 VGH d          28.763  47.718   7.745  0.00  0.00     0.012 A 
ATOM      8  C6  VGH d          29.828  48.430   7.031  0.00  0.00     0.152 A 
ATOM      9  N24 VGH d          29.334  49.494   6.499  0.00  0.00    -0.184 NA
ATOM     10  N26 VGH d          28.076  49.574   6.772  0.00  0.00    -0.276 N 
ATOM     11  C7  VGH d          27.627  48.495   7.557  0.00  0.00     0.126 A 
BRANCH  10  12
ATOM     12  C20 VGH d          27.235  50.696   6.291  0.00  0.00     0.112 C 
ATOM     13  C8  VGH d          26.894  51.649   7.455  0.00  0.00     0.055 C 
ATOM     14  C10 VGH d          26.017  52.809   6.929  0.00  0.00     0.234 C 
ATOM     15  N25 VGH d          24.788  52.320   6.239  0.00  0.00    -0.075 N 
ATOM     16  C11 VGH d          25.088  51.361   5.138  0.00  0.00     0.234 C 
ATOM     17  H18 VGH d          24.299  53.112   5.852  0.00  0.00     0.277 HD
ATOM     18  H19 VGH d          24.200  51.860   6.916  0.00  0.00     0.277 HD
ATOM     19  C9  VGH d          25.941  50.167   5.624  0.00  0.00     0.055 C 
ENDBRANCH  10  12
ENDBRANCH   6   7
BRANCH   1  20
ATOM     20  O27 VGH d          31.097  43.355   8.878  0.00  0.00    -0.338 OA
BRANCH  20  21
ATOM     21  C21 VGH d          32.385  43.580   8.202  0.00  0.00     0.161 C 
ATOM     22  C1  VGH d          33.100  42.219   8.198  0.00  0.00     0.045 C 
BRANCH  21  23
ATOM     23  C17 VGH d          33.298  44.672   8.863  0.00  0.00     0.017 A 
ATOM     24  C13 VGH d          33.697  45.839   8.091  0.00  0.00     0.044 A 
ATOM     25 CL   VGH d          33.207  46.107   6.444  0.00  0.00    -0.084 Cl
ATOM     26  C3  VGH d          34.530  46.834   8.678  0.00  0.00     0.028 A 
ATOM     27  C2  VGH d          34.987  46.712  10.014  0.00  0.00     0.046 A 
ATOM     28  C12 VGH d          34.621  45.589  10.803  0.00  0.00     0.138 A 
ATOM     29  F   VGH d          35.076  45.508  12.065  0.00  0.00    -0.204 F 
ATOM     30  C18 VGH d          33.780  44.563  10.249  0.00  0.00     0.083 A 
ATOM     31 CL2  VGH d          33.379  43.219  11.297  0.00  0.00    -0.080 Cl
ENDBRANCH  21  23
ENDBRANCH  20  21
ENDBRANCH   1  20
BRANCH   3  32
ATOM     32  N22 VGH d          29.060  42.827  10.707  0.00  0.00    -0.382 N 
ATOM     33  H8  VGH d          28.311  42.615  11.382  0.00  0.00     0.157 HD
ATOM     34  H9  VGH d          29.837  42.164  10.575  0.00  0.00     0.157 HD
ENDBRANCH   3  32
TORSDOF 6
