REMARK  8 active torsions:
REMARK  status: ('A' for Active; 'I' for Inactive)
REMARK    1  A    between atoms: C10_10  and  C2_2 
REMARK    2  A    between atoms: C17_17  and  C4_4 
REMARK    3  A    between atoms: C11_11  and  N23_23 
REMARK    4  A    between atoms: C18_18  and  C19_19 
REMARK       I    between atoms: C19_19  and  N21_21 
REMARK    5  A    between atoms: N23_23  and  S24_24 
REMARK    6  A    between atoms: N23_23  and  C29_29 
REMARK    7  A    between atoms: C29_29  and  C30_30 
REMARK    8  A    between atoms: C30_30  and  O31_31 
ROOT
ATOM      1  C10 MOL d         -15.408 -10.734  10.130  0.00  0.00    -0.025 A 
ATOM      2  C11 MOL d         -16.403 -10.325   9.218  0.00  0.00     0.054 A 
ATOM      3  C12 MOL d         -17.326 -11.242   8.713  0.00  0.00     0.069 A 
ATOM      4  C13 MOL d         -15.358 -12.076  10.558  0.00  0.00     0.025 A 
ATOM      5  C14 MOL d         -16.290 -12.965  10.038  0.00  0.00     0.017 A 
ATOM      6  C15 MOL d         -17.253 -12.548   9.134  0.00  0.00     0.089 A 
ATOM      7  O16 MOL d         -18.132 -13.575   8.727  0.00  0.00    -0.308 OA
ATOM      8  C17 MOL d         -17.765 -14.746   9.348  0.00  0.00     0.103 A 
ATOM      9  C18 MOL d         -16.599 -14.411  10.211  0.00  0.00     0.079 A 
ENDROOT
BRANCH   2  10
ATOM     10  N23 MOL d         -16.525  -9.005   8.698  0.00  0.00    -0.274 N 
BRANCH  10  11
ATOM     11  S24 MOL d         -15.929  -8.764   7.302  0.00  0.00     0.229 S 
ATOM     12  O25 MOL d         -15.166  -7.560   7.242  0.00  0.00    -0.206 OA
ATOM     13  O26 MOL d         -15.075  -9.825   6.827  0.00  0.00    -0.206 OA
ATOM     14  C27 MOL d         -17.213  -8.688   6.233  0.00  0.00     0.186 C 
ENDBRANCH  10  11
BRANCH  10  15
ATOM     15  C29 MOL d         -17.253  -7.929   9.320  0.00  0.00     0.167 C 
BRANCH  15  16
ATOM     16  C30 MOL d         -17.575  -8.254  10.764  0.00  0.00     0.185 C 
BRANCH  16  17
ATOM     17  O31 MOL d         -18.016  -7.055  11.390  0.00  0.00    -0.399 OA
ATOM     18  H23 MOL d         -18.225  -7.232  12.300  0.00  0.00     0.209 HD
ENDBRANCH  16  17
ENDBRANCH  15  16
ENDBRANCH  10  15
ENDBRANCH   2  10
BRANCH   1  19
ATOM     19  C2  MOL d         -14.444  -9.721  10.642  0.00  0.00     0.021 A 
ATOM     20  C1  MOL d         -14.268  -9.622  12.159  0.00  0.00     0.010 A 
ATOM     21  C3  MOL d         -13.148 -10.183  11.294  0.00  0.00     0.010 A 
ENDBRANCH   1  19
BRANCH   9  22
ATOM     22  C19 MOL d         -15.786 -15.306  11.095  0.00  0.00     0.255 C 
ATOM     23  O20 MOL d         -14.590 -15.397  10.881  0.00  0.00    -0.268 OA
ATOM     24  N21 MOL d         -16.340 -16.016  12.078  0.00  0.00    -0.361 N 
ATOM     25  C22 MOL d         -15.607 -16.915  12.965  0.00  0.00     0.149 C 
ATOM     26  H12 MOL d         -17.326 -15.927  12.218  0.00  0.00     0.162 HD
ENDBRANCH   9  22
BRANCH   8  27
ATOM     27  C4  MOL d         -18.419 -16.024   9.074  0.00  0.00    -0.001 A 
ATOM     28  C5  MOL d         -17.681 -17.196   9.166  0.00  0.00     0.017 A 
ATOM     29  C6  MOL d         -18.282 -18.396   8.835  0.00  0.00     0.043 A 
ATOM     30  C7  MOL d         -19.596 -18.412   8.388  0.00  0.00     0.116 A 
ATOM     31  C8  MOL d         -20.312 -17.232   8.249  0.00  0.00     0.043 A 
ATOM     32  F28 MOL d         -20.148 -19.600   8.061  0.00  0.00    -0.206 F 
ATOM     33  C9  MOL d         -19.719 -16.023   8.582  0.00  0.00     0.017 A 
ENDBRANCH   8  27
TORSDOF 8
