REMARK  8 active torsions:
REMARK  status: ('A' for Active; 'I' for Inactive)
REMARK    1  A    between atoms: O5'_14  and  PA_1 
REMARK    2  A    between atoms: C1'_22  and  N1_5 
REMARK    3  A    between atoms: C5_6  and  N5_10 
REMARK    4  A    between atoms: C4_7  and  C6_11 
REMARK    5  A    between atoms: C5'_19  and  O5'_14 
REMARK    6  A    between atoms: C2'_15  and  O2'_16 
REMARK    7  A    between atoms: C3'_17  and  O3'_18 
REMARK    8  A    between atoms: C5'_19  and  C4'_20 
ROOT
ATOM      1  C2' C2R d          13.142 -14.012 -13.064  0.00  0.00     0.198 C 
ATOM      2  C3' C2R d          12.423 -12.918 -12.275  0.00  0.00     0.182 C 
ATOM      3  C4' C2R d          13.241 -11.666 -12.609  0.00  0.00     0.180 C 
ATOM      4  O4' C2R d          14.283 -12.096 -13.502  0.00  0.00    -0.353 OA
ATOM      5  C1' C2R d          13.672 -13.173 -14.224  0.00  0.00     0.262 C 
ENDROOT
BRANCH   5   6
ATOM      6  N1  C2R d          14.629 -13.990 -15.002  0.00  0.00    -0.295 N 
ATOM      7  C5  C2R d          14.519 -14.309 -16.287  0.00  0.00     0.140 A 
ATOM      8  C4  C2R d          15.533 -15.208 -16.579  0.00  0.00     0.178 A 
ATOM      9  N3  C2R d          16.244 -15.390 -15.471  0.00  0.00    -0.233 NA
ATOM     10  C2  C2R d          15.686 -14.642 -14.519  0.00  0.00     0.214 A 
BRANCH   7  11
ATOM     11  N5  C2R d          13.638 -13.805 -17.148  0.00  0.00    -0.383 N 
ATOM     12  H2  C2R d          13.637 -14.122 -18.128  0.00  0.00     0.157 HD
ATOM     13  H3  C2R d          12.958 -13.098 -16.834  0.00  0.00     0.157 HD
ENDBRANCH   7  11
BRANCH   8  14
ATOM     14  C6  C2R d          15.723 -15.945 -17.906  0.00  0.00     0.232 C 
ATOM     15  O7  C2R d          14.997 -15.609 -18.867  0.00  0.00    -0.643 OA
ATOM     16  O8  C2R d          16.585 -16.850 -17.953  0.00  0.00    -0.643 OA
ENDBRANCH   8  14
ENDBRANCH   5   6
BRANCH   1  17
ATOM     17  O2' C2R d          12.196 -14.955 -13.574  0.00  0.00    -0.388 OA
ATOM     18  H5  C2R d          11.583 -14.509 -14.147  0.00  0.00     0.210 HD
ENDBRANCH   1  17
BRANCH   2  19
ATOM     19  O3' C2R d          11.087 -12.774 -12.764  0.00  0.00    -0.390 OA
ATOM     20  H7  C2R d          10.623 -13.596 -12.660  0.00  0.00     0.210 HD
ENDBRANCH   2  19
BRANCH   3  21
ATOM     21  C5' C2R d          13.862 -11.075 -11.342  0.00  0.00     0.217 C 
BRANCH  21  22
ATOM     22  O5' C2R d          14.699 -12.044 -10.707  0.00  0.00    -0.280 OA
BRANCH  22  23
ATOM     23  PA  C2R d          15.590 -11.638  -9.429  0.00  0.00     0.422 P 
ATOM     24  O1A C2R d          16.412 -12.965  -9.036  0.00  0.00    -0.617 OA
ATOM     25  O2A C2R d          14.551 -11.390  -8.225  0.00  0.00    -0.617 OA
ATOM     26  O3A C2R d          16.464 -10.473  -9.688  0.00  0.00    -0.617 OA
ENDBRANCH  22  23
ENDBRANCH  21  22
ENDBRANCH   3  21
TORSDOF 8
