REMARK  14 active torsions:
REMARK  status: ('A' for Active; 'I' for Inactive)
REMARK    1  A    between atoms: N2_50  and  C2_2 
REMARK    2  A    between atoms: C2_2  and  C20_8 
REMARK    3  A    between atoms: C3_3  and  C31_22 
REMARK    4  A    between atoms: C4_4  and  O4_59 
REMARK    5  A    between atoms: C5_5  and  O5_60 
REMARK    6  A    between atoms: C6_6  and  C61_29 
REMARK    7  A    between atoms: N7_51  and  C7_7 
REMARK    8  A    between atoms: C7_7  and  C70_36 
REMARK    9  A    between atoms: C22_10  and  C26_14 
REMARK       I    between atoms: C26_14  and  N26_52 
REMARK   10  A    between atoms: N26_52  and  C27_15 
REMARK   11  A    between atoms: C31_22  and  C32_23 
REMARK   12  A    between atoms: C61_29  and  C62_30 
REMARK   13  A    between atoms: C72_38  and  C76_42 
REMARK       I    between atoms: C76_42  and  N76_55 
REMARK   14  A    between atoms: N76_55  and  C77_43 
ROOT
ATOM      1  C1  MOL d          -8.891  15.315  27.926  0.00  0.00     0.322 C 
ATOM      2  C3  MOL d         -10.864  16.466  28.938  0.00  0.00     0.124 C 
ATOM      3  C4  MOL d         -10.568  17.923  28.676  0.00  0.00     0.172 C 
ATOM      4  C5  MOL d         -10.200  18.173  27.229  0.00  0.00     0.172 C 
ATOM      5  C6  MOL d          -8.822  17.634  26.940  0.00  0.00     0.124 C 
ATOM      6  N2  MOL d          -9.699  15.573  28.969  0.00  0.00    -0.322 N 
ATOM      7  N7  MOL d          -8.677  16.162  26.897  0.00  0.00    -0.322 N 
ATOM      8  O1  MOL d          -8.319  14.242  27.911  0.00  0.00    -0.247 OA
ENDROOT
BRANCH   6   9
ATOM      9  C2  MOL d          -9.534  14.750  30.164  0.00  0.00     0.166 C 
BRANCH   9  10
ATOM     10  C20 MOL d          -9.436  15.502  31.449  0.00  0.00    -0.039 A 
ATOM     11  C25 MOL d          -8.749  16.731  31.525  0.00  0.00     0.009 A 
ATOM     12  C24 MOL d          -8.681  17.433  32.744  0.00  0.00     0.002 A 
ATOM     13  C23 MOL d          -9.305  16.905  33.887  0.00  0.00     0.017 A 
ATOM     14  C22 MOL d          -9.991  15.670  33.810  0.00  0.00     0.033 A 
ATOM     15  C21 MOL d         -10.055  14.964  32.589  0.00  0.00     0.026 A 
BRANCH  14  16
ATOM     16  C26 MOL d         -10.640  15.125  35.042  0.00  0.00     0.270 C 
ATOM     17  O26 MOL d         -10.893  15.795  36.029  0.00  0.00    -0.267 OA
ATOM     18  N26 MOL d         -10.897  13.821  34.994  0.00  0.00    -0.153 N 
ATOM     19  H39 MOL d         -10.736  13.322  34.142  0.00  0.00     0.187 HD
BRANCH  18  20
ATOM     20  C27 MOL d         -11.408  13.102  36.155  0.00  0.00     0.708 A 
ATOM     21  N3  MOL d         -11.881  13.684  37.279  0.00  0.00    -0.187 N 
ATOM     22  C29 MOL d         -12.212  12.680  38.136  0.00  0.00     0.078 A 
ATOM     23  H40 MOL d         -11.973  14.695  37.454  0.00  0.00     0.184 HD
ATOM     24  C28 MOL d         -11.894  11.413  37.426  0.00  0.00     0.103 A 
ATOM     25  C9  MOL d         -12.739  12.632  39.437  0.00  0.00     0.032 A 
ATOM     26  N27 MOL d         -11.402  11.771  36.205  0.00  0.00    -0.062 NA
ATOM     27  C14 MOL d         -12.125  10.180  38.062  0.00  0.00     0.034 A 
ATOM     28  C13 MOL d         -12.653  10.178  39.366  0.00  0.00     0.002 A 
ATOM     29  C11 MOL d         -12.955  11.379  40.043  0.00  0.00     0.002 A 
ENDBRANCH  18  20
ENDBRANCH  14  16
ENDBRANCH   9  10
ENDBRANCH   6   9
BRANCH   2  30
ATOM     30  C31 MOL d         -11.980  15.839  28.065  0.00  0.00     0.066 C 
BRANCH  30  31
ATOM     31  C32 MOL d         -12.532  14.550  28.614  0.00  0.00    -0.056 A 
ATOM     32  C37 MOL d         -13.393  14.587  29.734  0.00  0.00     0.007 A 
ATOM     33  C36 MOL d         -13.841  13.379  30.312  0.00  0.00     0.001 A 
ATOM     34  C35 MOL d         -13.431  12.143  29.761  0.00  0.00     0.000 A 
ATOM     35  C34 MOL d         -12.580  12.115  28.633  0.00  0.00     0.001 A 
ATOM     36  C33 MOL d         -12.132  13.317  28.054  0.00  0.00     0.007 A 
ENDBRANCH  30  31
ENDBRANCH   2  30
BRANCH   7  37
ATOM     37  C7  MOL d          -8.101  15.601  25.677  0.00  0.00     0.166 C 
BRANCH  37  38
ATOM     38  C70 MOL d          -8.826  15.905  24.400  0.00  0.00    -0.039 A 
ATOM     39  C75 MOL d         -10.234  15.872  24.293  0.00  0.00     0.009 A 
ATOM     40  C74 MOL d         -10.865  16.134  23.058  0.00  0.00     0.002 A 
ATOM     41  C73 MOL d         -10.071  16.438  21.938  0.00  0.00     0.017 A 
ATOM     42  C72 MOL d          -8.669  16.472  22.058  0.00  0.00     0.033 A 
ATOM     43  C71 MOL d          -8.045  16.201  23.284  0.00  0.00     0.026 A 
BRANCH  42  44
ATOM     44  C76 MOL d          -7.839  16.832  20.873  0.00  0.00     0.270 C 
ATOM     45  N76 MOL d          -6.541  16.501  20.982  0.00  0.00    -0.153 N 
ATOM     46  H41 MOL d          -6.200  16.190  21.869  0.00  0.00     0.187 HD
ATOM     47  O76 MOL d          -8.302  17.378  19.887  0.00  0.00    -0.267 OA
BRANCH  45  48
ATOM     48  C77 MOL d          -5.602  16.576  19.857  0.00  0.00     0.708 A 
ATOM     49  N1  MOL d          -5.980  16.926  18.613  0.00  0.00    -0.187 N 
ATOM     50  C79 MOL d          -4.928  16.716  17.794  0.00  0.00     0.078 A 
ATOM     51  H42 MOL d          -6.904  17.288  18.337  0.00  0.00     0.184 HD
ATOM     52  C78 MOL d          -3.833  16.210  18.664  0.00  0.00     0.103 A 
ATOM     53  C15 MOL d          -4.730  16.856  16.410  0.00  0.00     0.032 A 
ATOM     54  N77 MOL d          -4.332  16.156  19.935  0.00  0.00    -0.062 NA
ATOM     55  C12 MOL d          -2.601  15.879  18.076  0.00  0.00     0.034 A 
ATOM     56  C10 MOL d          -2.437  16.029  16.683  0.00  0.00     0.002 A 
ATOM     57  C8  MOL d          -3.480  16.507  15.861  0.00  0.00     0.002 A 
ENDBRANCH  45  48
ENDBRANCH  42  44
ENDBRANCH  37  38
ENDBRANCH   7  37
BRANCH   3  58
ATOM     58  O4  MOL d         -11.740  18.604  29.006  0.00  0.00    -0.391 OA
ATOM     59  H43 MOL d         -11.616  19.535  28.861  0.00  0.00     0.210 HD
ENDBRANCH   3  58
BRANCH   5  60
ATOM     60  C61 MOL d          -7.700  18.260  27.793  0.00  0.00     0.066 C 
BRANCH  60  61
ATOM     61  C62 MOL d          -6.349  18.172  27.150  0.00  0.00    -0.056 A 
ATOM     62  C67 MOL d          -5.410  17.227  27.604  0.00  0.00     0.007 A 
ATOM     63  C66 MOL d          -4.155  17.136  26.975  0.00  0.00     0.001 A 
ATOM     64  C65 MOL d          -3.851  17.982  25.897  0.00  0.00     0.000 A 
ATOM     65  C64 MOL d          -4.798  18.932  25.451  0.00  0.00     0.001 A 
ATOM     66  C63 MOL d          -6.052  19.035  26.075  0.00  0.00     0.007 A 
ENDBRANCH  60  61
ENDBRANCH   5  60
BRANCH   4  67
ATOM     67  O5  MOL d         -10.123  19.547  26.949  0.00  0.00    -0.391 OA
ATOM     68  H44 MOL d         -10.965  19.952  27.120  0.00  0.00     0.210 HD
ENDBRANCH   4  67
TORSDOF 14
