REMARK  13 active torsions:
REMARK  status: ('A' for Active; 'I' for Inactive)
REMARK    1  A    between atoms: C51_1  and  C44_10 
REMARK    2  A    between atoms: C54_6  and  C57_7 
REMARK    3  A    between atoms: C57_7  and  N58_8 
REMARK    4  A    between atoms: C44_10  and  C41_11 
REMARK    5  A    between atoms: C41_11  and  C42_13 
REMARK    6  A    between atoms: C41_11  and  N40_12 
REMARK       I    between atoms: N40_12  and  C35_41 
REMARK       I    between atoms: C42_13  and  N60_15 
REMARK    7  A    between atoms: C30_36  and  N23_21 
REMARK    8  A    between atoms: N23_21  and  S20_22 
REMARK    9  A    between atoms: S20_22  and  C11_25 
REMARK   10  A    between atoms: C14_28  and  O11_34 
REMARK   11  A    between atoms: C35_41  and  C30_36 
REMARK   12  A    between atoms: C30_36  and  C31_37 
REMARK   13  A    between atoms: C31_37  and  C32_38 
ROOT
ATOM      1  N40 CCR d          -0.509  18.849  18.771  0.00  0.00    -0.346 N 
ATOM      2  C35 CCR d          -0.223  19.028  17.452  0.00  0.00     0.242 C 
ATOM      3  O36 CCR d           0.640  18.431  16.834  0.00  0.00    -0.271 OA
ATOM      4  H12 CCR d          -1.213  19.429  19.181  0.00  0.00     0.163 HD
ENDROOT
BRANCH   1   5
ATOM      5  C41 CCR d           0.143  17.870  19.619  0.00  0.00     0.181 C 
BRANCH   5   6
ATOM      6  C44 CCR d          -0.883  16.771  20.021  0.00  0.00     0.073 C 
BRANCH   6   7
ATOM      7  C51 CCR d          -1.161  15.921  18.794  0.00  0.00    -0.056 A 
ATOM      8  C56 CCR d          -0.360  14.822  18.481  0.00  0.00     0.008 A 
ATOM      9  C55 CCR d          -0.629  14.062  17.335  0.00  0.00     0.016 A 
ATOM     10  C54 CCR d          -1.702  14.366  16.465  0.00  0.00     0.007 A 
ATOM     11  C53 CCR d          -2.496  15.486  16.813  0.00  0.00     0.016 A 
ATOM     12  C52 CCR d          -2.251  16.239  17.957  0.00  0.00     0.008 A 
BRANCH  10  13
ATOM     13  C57 CCR d          -1.985  13.546  15.229  0.00  0.00     0.102 C 
ATOM     14  N59 CCR d          -1.602  12.283  15.133  0.00  0.00    -0.385 N 
ATOM     15  H7  CCR d          -1.111  11.832  15.919  0.00  0.00     0.157 HD
ATOM     16  H8  CCR d          -1.794  11.751  14.273  0.00  0.00     0.157 HD
BRANCH  13  17
ATOM     17  N58 CCR d          -2.606  14.061  14.191  0.00  0.00    -0.385 N 
ATOM     18  H5  CCR d          -2.787  13.481  13.359  0.00  0.00     0.157 HD
ATOM     19  H6  CCR d          -2.911  15.045  14.209  0.00  0.00     0.157 HD
ENDBRANCH  13  17
ENDBRANCH  10  13
ENDBRANCH   6   7
ENDBRANCH   5   6
BRANCH   5  20
ATOM     20  C42 CCR d           0.548  18.658  20.848  0.00  0.00     0.242 C 
ATOM     21  N60 CCR d           1.763  19.257  20.906  0.00  0.00    -0.350 N 
ATOM     22  C65 CCR d           2.624  19.328  19.719  0.00  0.00     0.126 C 
ATOM     23  C61 CCR d           2.102  20.082  22.065  0.00  0.00     0.126 C 
ATOM     24  C64 CCR d           2.684  20.801  19.271  0.00  0.00     0.020 C 
ATOM     25  C63 CCR d           3.163  21.685  20.446  0.00  0.00     0.003 C 
ATOM     26  C62 CCR d           2.160  21.544  21.628  0.00  0.00     0.020 C 
ATOM     27  O43 CCR d          -0.261  18.733  21.761  0.00  0.00    -0.271 OA
ENDBRANCH   5  20
ENDBRANCH   1   5
BRANCH   2  28
ATOM     28  C30 CCR d          -1.076  20.072  16.769  0.00  0.00     0.195 C 
BRANCH  28  29
ATOM     29  C31 CCR d          -2.513  19.545  16.644  0.00  0.00     0.148 C 
BRANCH  29  30
ATOM     30  C32 CCR d          -3.332  19.825  17.875  0.00  0.00     0.175 C 
ATOM     31  O34 CCR d          -2.824  20.428  18.860  0.00  0.00    -0.648 OA
ATOM     32  O33 CCR d          -4.513  19.463  17.829  0.00  0.00    -0.648 OA
ENDBRANCH  29  30
ENDBRANCH  28  29
BRANCH  28  33
ATOM     33  N23 CCR d          -0.638  20.409  15.442  0.00  0.00    -0.301 N 
ATOM     34  H23 CCR d          -0.386  19.681  14.805  0.00  0.00     0.173 HD
BRANCH  33  35
ATOM     35  S20 CCR d          -0.548  21.971  14.963  0.00  0.00     0.260 S 
ATOM     36  O22 CCR d          -0.433  21.964  13.530  0.00  0.00    -0.200 OA
ATOM     37  O21 CCR d          -1.786  22.548  15.432  0.00  0.00    -0.200 OA
BRANCH  35  38
ATOM     38  C11 CCR d           0.923  22.586  15.652  0.00  0.00     0.092 A 
ATOM     39  C16 CCR d           2.183  22.007  15.351  0.00  0.00    -0.035 A 
ATOM     40  C15 CCR d           3.344  22.522  15.959  0.00  0.00     0.045 A 
ATOM     41  C10 CCR d           2.500  20.829  14.396  0.00  0.00     0.050 C 
ATOM     42  C14 CCR d           3.311  23.610  16.858  0.00  0.00     0.075 A 
ATOM     43  C13 CCR d           2.066  24.187  17.171  0.00  0.00    -0.021 A 
ATOM     44  C12 CCR d           0.879  23.680  16.580  0.00  0.00    -0.029 A 
ATOM     45  C18 CCR d           2.072  25.371  18.171  0.00  0.00     0.052 C 
ATOM     46  C17 CCR d          -0.437  24.385  16.988  0.00  0.00     0.050 C 
BRANCH  42  47
ATOM     47  O11 CCR d           4.494  24.122  17.463  0.00  0.00    -0.355 OA
ATOM     48  C19 CCR d           5.775  23.485  17.228  0.00  0.00     0.210 C 
ENDBRANCH  42  47
ENDBRANCH  35  38
ENDBRANCH  33  35
ENDBRANCH  28  33
ENDBRANCH   2  28
TORSDOF 13
