REMARK  2 active torsions:
REMARK  status: ('A' for Active; 'I' for Inactive)
REMARK    1  A    between atoms: C5_5  and  C7_7 
REMARK    2  A    between atoms: C9_9  and  C11_12 
ROOT
ATOM      1  C1  MOL d          28.276  11.245  18.721  0.00  0.00     0.002 A 
ATOM      2  C2  MOL d          28.976  10.834  19.880  0.00  0.00     0.023 A 
ATOM      3  C3  MOL d          28.245  10.482  21.038  0.00  0.00     0.045 A 
ATOM      4  C4  MOL d          26.836  10.537  21.044  0.00  0.00     0.034 A 
ATOM      5  C5  MOL d          26.105  10.945  19.888  0.00  0.00    -0.024 A 
ATOM      6  C6  MOL d          26.855  11.303  18.723  0.00  0.00     0.012 A 
ATOM      7  C17 MOL d          28.927  10.060  22.234  0.00  0.00     0.099 C 
ATOM      8  N4  MOL d          29.447   9.716  23.211  0.00  0.00    -0.191 NA
ENDROOT
BRANCH   5   9
ATOM      9  C7  MOL d          24.627  11.002  19.916  0.00  0.00    -0.018 A 
ATOM     10  C8  MOL d          23.851  10.490  20.984  0.00  0.00     0.029 A 
ATOM     11  C9  MOL d          22.481  10.670  20.776  0.00  0.00     0.012 A 
ATOM     12  S1  MOL d          22.193  11.457  19.299  0.00  0.00    -0.103 SA
ATOM     13  C10 MOL d          23.829  11.568  18.910  0.00  0.00     0.062 A 
BRANCH  11  14
ATOM     14  C11 MOL d          21.336  10.250  21.705  0.00  0.00     0.085 C 
ATOM     15  C12 MOL d          20.647  11.519  22.264  0.00  0.00     0.140 C 
ATOM     16  C13 MOL d          21.457  12.188  23.405  0.00  0.00     0.240 C 
ATOM     17  N1  MOL d          22.271  11.345  24.174  0.00  0.00    -0.156 N 
ATOM     18  O1  MOL d          21.372  13.400  23.590  0.00  0.00    -0.272 OA
ATOM     19  C14 MOL d          22.327   9.968  23.995  0.00  0.00     0.677 C 
ATOM     20  C16 MOL d          23.096  12.025  25.220  0.00  0.00     0.178 C 
ATOM     21  N2  MOL d          21.861   9.425  22.821  0.00  0.00    -0.212 N 
ATOM     22  N3  MOL d          22.824   9.163  24.939  0.00  0.00    -0.234 N 
ATOM     23  H9  MOL d          21.877   8.401  22.711  0.00  0.00     0.179 HD
ATOM     24  H10 MOL d          23.175   9.560  25.822  0.00  0.00     0.174 HD
ATOM     25  H11 MOL d          22.855   8.145  24.784  0.00  0.00     0.174 HD
ATOM     26  C15 MOL d          20.333   9.385  20.916  0.00  0.00     0.045 C 
ENDBRANCH  11  14
ENDBRANCH   5   9
TORSDOF 2
