REMARK  7 active torsions:
REMARK  status: ('A' for Active; 'I' for Inactive)
REMARK    1  A    between atoms: C1_1  and  O1_10 
REMARK    2  A    between atoms: N2_9  and  C2_2 
REMARK    3  A    between atoms: C3_3  and  O3_11 
REMARK    4  A    between atoms: C4_4  and  O4_12 
REMARK    5  A    between atoms: C5_5  and  C6_6 
REMARK    6  A    between atoms: C6_6  and  O6_14 
REMARK       I    between atoms: C7_7  and  N2_9 
REMARK    7  A    between atoms: O6_14  and  P_16 
ROOT
ATOM      1  C1  MOL d         -41.949  -8.646  25.399  0.00  0.00     0.282 C 
ATOM      2  C2  MOL d         -41.317  -7.867  24.254  0.00  0.00     0.170 C 
ATOM      3  C3  MOL d         -42.214  -7.747  23.066  0.00  0.00     0.177 C 
ATOM      4  C4  MOL d         -42.745  -9.084  22.682  0.00  0.00     0.180 C 
ATOM      5  C5  MOL d         -43.568  -9.575  23.849  0.00  0.00     0.180 C 
ATOM      6  O5  MOL d         -42.657  -9.867  24.946  0.00  0.00    -0.349 OA
ENDROOT
BRANCH   5   7
ATOM      7  C6  MOL d         -44.334 -10.823  23.528  0.00  0.00     0.217 C 
BRANCH   7   8
ATOM      8  O6  MOL d         -45.067 -11.120  24.718  0.00  0.00    -0.280 OA
BRANCH   8   9
ATOM      9  P   MOL d         -46.197 -12.246  24.706  0.00  0.00     0.422 P 
ATOM     10  O1P MOL d         -47.257 -11.952  23.664  0.00  0.00    -0.617 OA
ATOM     11  O2P MOL d         -45.509 -13.558  24.393  0.00  0.00    -0.617 OA
ATOM     12  O3P MOL d         -46.816 -12.240  26.088  0.00  0.00    -0.617 OA
ENDBRANCH   8   9
ENDBRANCH   7   8
ENDBRANCH   5   7
BRANCH   4  13
ATOM     13  O4  MOL d         -43.555  -8.993  21.504  0.00  0.00    -0.390 OA
ATOM     14  H14 MOL d         -43.024  -8.683  20.779  0.00  0.00     0.210 HD
ENDBRANCH   4  13
BRANCH   3  15
ATOM     15  O3  MOL d         -41.504  -7.239  21.918  0.00  0.00    -0.391 OA
ATOM     16  H13 MOL d         -41.147  -6.383  22.121  0.00  0.00     0.210 HD
ENDBRANCH   3  15
BRANCH   1  17
ATOM     17  O1  MOL d         -42.896  -7.866  26.025  0.00  0.00    -0.369 OA
ATOM     18  H12 MOL d         -43.587  -7.653  25.409  0.00  0.00     0.212 HD
ENDBRANCH   1  17
BRANCH   2  19
ATOM     19  N2  MOL d         -40.920  -6.578  24.813  0.00  0.00    -0.349 N 
ATOM     20  C7  MOL d         -40.180  -5.556  24.131  0.00  0.00     0.214 C 
ATOM     21  C8  MOL d         -39.846  -4.287  24.901  0.00  0.00     0.117 C 
ATOM     22  O7  MOL d         -39.820  -5.679  22.977  0.00  0.00    -0.274 OA
ATOM     23  H11 MOL d         -41.189  -6.391  25.758  0.00  0.00     0.163 HD
ENDBRANCH   2  19
TORSDOF 7
