REMARK  15 active torsions:
REMARK  status: ('A' for Active; 'I' for Inactive)
REMARK    1  A    between atoms: C12_4  and  C11_3 
REMARK       I    between atoms: C11_3  and  N2_22 
REMARK    2  A    between atoms: C13_5  and  C12_4 
REMARK    3  A    between atoms: C27_19  and  C13_5 
REMARK    4  A    between atoms: C16_8  and  C18_10 
REMARK    5  A    between atoms: C20_12  and  C21_13 
REMARK    6  A    between atoms: N2_22  and  C7_23 
REMARK    7  A    between atoms: C7_23  and  C6_24 
REMARK    8  A    between atoms: C7_23  and  C8_26 
REMARK       I    between atoms: C6_24  and  N1_31 
REMARK    9  A    between atoms: C8_26  and  C9_27 
REMARK   10  A    between atoms: C9_27  and  C10_28 
REMARK   11  A    between atoms: N1_31  and  C2_32 
REMARK   12  A    between atoms: C2_32  and  C1_33 
REMARK   13  A    between atoms: C2_32  and  C3_35 
REMARK       I    between atoms: C1_33  and  N9_40 
REMARK   14  A    between atoms: C3_35  and  C4_36 
REMARK   15  A    between atoms: C4_36  and  C5_37 
ROOT
ATOM      1  O2  EEG d          10.296  26.600   3.293  0.00  0.00    -0.274 OA
ATOM      2  C11 EEG d           9.170  26.702   2.772  0.00  0.00     0.218 C 
ATOM      3  N2  EEG d           8.999  26.974   1.392  0.00  0.00    -0.348 N 
ATOM      4  H16 EEG d           8.084  27.047   0.994  0.00  0.00     0.163 HD
ENDROOT
BRANCH   3   5
ATOM      5  C7  EEG d          10.174  27.143   0.575  0.00  0.00     0.177 C 
BRANCH   5   6
ATOM      6  C6  EEG d          10.632  28.537   0.351  0.00  0.00     0.241 C 
ATOM      7  O1  EEG d          11.639  28.755  -0.370  0.00  0.00    -0.271 OA
ATOM      8  N1  EEG d           9.916  29.595   0.941  0.00  0.00    -0.346 N 
ATOM      9  H22 EEG d           9.116  29.398   1.508  0.00  0.00     0.163 HD
BRANCH   8  10
ATOM     10  C2  EEG d          10.347  31.027   0.724  0.00  0.00     0.176 C 
BRANCH  10  11
ATOM     11  C1  EEG d          10.567  31.668   1.995  0.00  0.00     0.238 C 
ATOM     12  O9  EEG d           9.944  31.266   3.043  0.00  0.00    -0.271 OA
ATOM     13  N9  EEG d          11.526  32.804   2.090  0.00  0.00    -0.368 N 
ATOM     14  H28 EEG d          11.683  33.253   2.969  0.00  0.00     0.159 HD
ATOM     15  H29 EEG d          12.012  33.117   1.274  0.00  0.00     0.159 HD
ENDBRANCH  10  11
BRANCH  10  16
ATOM     16  C3  EEG d           9.340  31.854  -0.093  0.00  0.00     0.045 C 
BRANCH  16  17
ATOM     17  C4  EEG d           8.515  31.189  -0.962  0.00  0.00     0.116 C 
BRANCH  17  18
ATOM     18  C5  EEG d           9.070  31.152  -2.425  0.00  0.00     0.172 C 
ATOM     19  O8E EEG d           9.636  30.026  -2.832  0.00  0.00    -0.648 OA
ATOM     20  O8  EEG d           9.026  32.165  -3.149  0.00  0.00    -0.648 OA
ENDBRANCH  17  18
ENDBRANCH  16  17
ENDBRANCH  10  16
ENDBRANCH   8  10
ENDBRANCH   5   6
BRANCH   5  21
ATOM     21  C8  EEG d           9.760  26.478  -0.701  0.00  0.00     0.045 C 
BRANCH  21  22
ATOM     22  C9  EEG d           9.570  25.004  -0.584  0.00  0.00     0.116 C 
BRANCH  22  23
ATOM     23  C10 EEG d           8.096  24.609  -0.320  0.00  0.00     0.172 C 
ATOM     24  O4E EEG d           7.312  25.419  -0.768  0.00  0.00    -0.648 OA
ATOM     25  O4  EEG d           7.842  23.623   0.276  0.00  0.00    -0.648 OA
ENDBRANCH  22  23
ENDBRANCH  21  22
ENDBRANCH   5  21
ENDBRANCH   3   5
BRANCH   2  26
ATOM     26  C12 EEG d           7.905  26.469   3.646  0.00  0.00     0.107 C 
BRANCH  26  27
ATOM     27  C13 EEG d           7.449  25.031   3.409  0.00  0.00     0.047 C 
BRANCH  27  28
ATOM     28  C27 EEG d           6.207  24.635   4.191  0.00  0.00    -0.058 A 
ATOM     29  C14 EEG d           4.987  25.102   3.756  0.00  0.00     0.008 A 
ATOM     30  C17 EEG d           3.836  24.757   4.447  0.00  0.00     0.013 A 
ATOM     31  C16 EEG d           3.963  23.955   5.566  0.00  0.00    -0.019 A 
ATOM     32  C15 EEG d           5.211  23.495   6.011  0.00  0.00     0.013 A 
ATOM     33  C28 EEG d           6.338  23.844   5.334  0.00  0.00     0.008 A 
BRANCH  31  34
ATOM     34  C18 EEG d           2.726  23.558   6.389  0.00  0.00     0.015 A 
ATOM     35  S7  EEG d           2.843  22.590   7.740  0.00  0.00    -0.100 SA
ATOM     36  C29 EEG d           1.202  22.593   8.157  0.00  0.00     0.062 A 
ATOM     37  C20 EEG d           0.555  23.387   7.214  0.00  0.00    -0.018 A 
ATOM     38  C19 EEG d           1.402  23.948   6.226  0.00  0.00     0.032 A 
BRANCH  37  39
ATOM     39  C21 EEG d          -0.907  23.632   7.256  0.00  0.00    -0.025 A 
ATOM     40  C22 EEG d          -1.414  24.763   6.643  0.00  0.00     0.012 A 
ATOM     41  C23 EEG d          -2.778  25.001   6.684  0.00  0.00     0.001 A 
ATOM     42  C24 EEG d          -3.609  24.121   7.323  0.00  0.00     0.000 A 
ATOM     43  C25 EEG d          -3.099  22.976   7.937  0.00  0.00     0.001 A 
ATOM     44  C26 EEG d          -1.738  22.738   7.900  0.00  0.00     0.012 A 
ENDBRANCH  37  39
ENDBRANCH  31  34
ENDBRANCH  27  28
ENDBRANCH  26  27
ENDBRANCH   2  26
TORSDOF 15
