REMARK  7 active torsions:
REMARK  status: ('A' for Active; 'I' for Inactive)
REMARK    1  A    between atoms: C9_10  and  C10_12 
REMARK    2  A    between atoms: C10_12  and  N1'_11 
REMARK    3  A    between atoms: N1'_11  and  C2'_13 
REMARK    4  A    between atoms: C2'_13  and  C3'_14 
REMARK    5  A    between atoms: C2'_13  and  C4'_15 
REMARK    6  A    between atoms: C3'_14  and  O6'_17 
REMARK    7  A    between atoms: C4'_15  and  O5'_16 
ROOT
ATOM      1  N1  MOL d          13.582   8.613  55.803  0.00  0.00    -0.316 N 
ATOM      2  C2  MOL d          12.826   8.938  56.870  0.00  0.00     0.210 C 
ATOM      3  N3  MOL d          12.966  10.100  57.526  0.00  0.00    -0.241 NA
ATOM      4  C4  MOL d          13.912  10.984  57.112  0.00  0.00     0.099 C 
ATOM      5  C5  MOL d          14.634  10.758  55.917  0.00  0.00     0.130 C 
ATOM      6  C6  MOL d          14.556   9.424  55.329  0.00  0.00     0.275 C 
ATOM      7  O6  MOL d          15.224   9.119  54.314  0.00  0.00    -0.266 OA
ATOM      8  N7  MOL d          15.639  11.788  55.783  0.00  0.00    -0.359 N 
ATOM      9  C8  MOL d          15.281  12.693  56.757  0.00  0.00     0.099 C 
ATOM     10  C9  MOL d          14.230  12.247  57.576  0.00  0.00     0.014 C 
ATOM     11  H1  MOL d          13.417   7.740  55.344  0.00  0.00     0.170 HD
ATOM     12  H3  MOL d          16.428  11.834  55.122  0.00  0.00     0.165 HD
ENDROOT
BRANCH  10  13
ATOM     13  C10 MOL d          13.667  12.979  58.768  0.00  0.00     0.275 C 
BRANCH  13  14
ATOM     14  N1' MOL d          14.638  12.827  59.854  0.00  0.00    -0.063 N 
ATOM     15  H5  MOL d          14.358  13.459  60.587  0.00  0.00     0.278 HD
ATOM     16  H6  MOL d          15.533  13.112  59.488  0.00  0.00     0.278 HD
BRANCH  14  17
ATOM     17  C2' MOL d          14.831  11.513  60.476  0.00  0.00     0.233 C 
BRANCH  17  18
ATOM     18  C3' MOL d          13.964  11.394  61.723  0.00  0.00     0.199 C 
BRANCH  18  19
ATOM     19  O6' MOL d          13.940  12.612  62.498  0.00  0.00    -0.399 OA
ATOM     20  H15 MOL d          13.389  12.489  63.262  0.00  0.00     0.209 HD
ENDBRANCH  18  19
ENDBRANCH  17  18
BRANCH  17  21
ATOM     21  C4' MOL d          16.294  11.184  60.819  0.00  0.00     0.199 C 
BRANCH  21  22
ATOM     22  O5' MOL d          17.184  12.316  60.786  0.00  0.00    -0.399 OA
ATOM     23  H14 MOL d          18.063  12.033  61.008  0.00  0.00     0.209 HD
ENDBRANCH  21  22
ENDBRANCH  17  21
ENDBRANCH  14  17
ENDBRANCH  13  14
ENDBRANCH  10  13
TORSDOF 7
