4ouj_ligand

Created by X-TOOL on Sat Nov 28 16:08:35 2015
 45 46  0  0  0  0  0  0  0  0999 V2000
   57.9730   14.7360    5.6610  C 0  0  0  2  0  4
   58.8050   14.8060    6.9270  C 0  0  0  2  0  4
   60.1750   14.2730    6.7260  C 0  0  0  2  0  4
   60.2390   12.9210    6.0730  C 0  0  0  2  0  4
   59.3850   12.9280    4.8250  C 0  0  0  2  0  4
   59.2750   11.5860    4.1310  C 0  0  0  3  0  4
   56.6440   15.0530    5.9230  O 0  0  0  1  0  2
   58.8740   16.1680    7.3280  O 0  0  0  2  0  2
   60.9680   14.3710    7.9690  O 0  0  0  2  0  2
   59.6610   12.0200    6.9740  O 0  0  0  2  0  2
   58.0280   13.3620    5.1420  O 0  0  0  1  0  2
   60.4690   11.1320    3.6310  O 0  0  0  2  0  2
   53.3160   16.1740    3.8650  C 0  0  0  2  0  4
   53.9610   14.8690    3.4320  C 0  0  0  2  0  4
   54.8910   14.4150    4.4540  C 0  0  0  2  0  4
   55.9100   15.4350    4.7540  C 0  0  0  2  0  4
   55.2770   16.7710    5.1050  C 0  0  0  2  0  4
   56.2660   17.8910    5.4040  C 0  0  0  3  0  4
   52.6160   16.0060    5.0280  O 0  0  0  2  0  2
   52.9440   13.9080    3.2380  O 0  0  0  2  0  2
   55.5050   13.2810    3.9500  O 0  0  0  2  0  2
   54.3490   17.1920    4.0800  O 0  0  0  1  0  2
   55.8000   18.8930    6.2510  O 0  0  0  2  0  2
   58.3782   15.4364    4.9158  H 0  0  0  1  0  1
   58.3107   14.2167    7.7133  H 0  0  0  1  0  1
   60.6550   14.9572    6.0109  H 0  0  0  1  0  1
   61.2769   12.6439    5.8364  H 0  0  0  1  0  1
   59.8341   13.6428    4.1197  H 0  0  0  1  0  1
   58.5621   11.6812    3.2987  H 0  0  0  1  0  1
   58.8973   10.8489    4.8549  H 0  0  0  1  0  1
   59.3601   16.2332    8.1416  H 0  0  0  1  0  1
   61.8809   14.1927    7.7758  H 0  0  0  1  0  1
   60.1782   11.9947    7.7705  H 0  0  0  1  0  1
   60.8030   11.7554    2.9967  H 0  0  0  1  0  1
   52.6291   16.5125    3.0754  H 0  0  0  1  0  1
   54.5057   15.0226    2.4888  H 0  0  0  1  0  1
   54.3415   14.1717    5.3753  H 0  0  0  1  0  1
   56.5825   15.5456    3.8906  H 0  0  0  1  0  1
   54.6979   16.6083    6.0259  H 0  0  0  1  0  1
   56.5472   18.3586    4.4489  H 0  0  0  1  0  1
   57.1562   17.4418    5.8685  H 0  0  0  1  0  1
   51.9434   15.3476    4.8992  H 0  0  0  1  0  1
   53.3342   13.0869    2.9621  H 0  0  0  1  0  1
   54.8459   12.6245    3.7572  H 0  0  0  1  0  1
   56.4822   19.5419    6.3774  H 0  0  0  1  0  1
  1  2  1  0  0  1
  7  1  1  0  0  2
  1 11  1  0  0  1
  2  3  1  0  0  1
  2  8  1  0  0  2
  3  4  1  0  0  1
  3  9  1  0  0  2
  5  4  1  0  0  1
  4 10  1  0  0  2
  5  6  1  0  0  2
 11  5  1  0  0  1
  6 12  1  0  0  2
 16  7  1  0  0  2
 14 13  1  0  0  1
 13 19  1  0  0  2
 13 22  1  0  0  1
 15 14  1  0  0  1
 14 20  1  0  0  2
 15 16  1  0  0  1
 15 21  1  0  0  2
 16 17  1  0  0  1
 17 18  1  0  0  2
 17 22  1  0  0  1
 18 23  1  0  0  2
  1 24  1  0  0  2
  2 25  1  0  0  2
  3 26  1  0  0  2
  4 27  1  0  0  2
  5 28  1  0  0  2
  6 29  1  0  0  2
  6 30  1  0  0  2
  8 31  1  0  0  2
  9 32  1  0  0  2
 10 33  1  0  0  2
 12 34  1  0  0  2
 13 35  1  0  0  2
 14 36  1  0  0  2
 15 37  1  0  0  2
 16 38  1  0  0  2
 17 39  1  0  0  2
 18 40  1  0  0  2
 18 41  1  0  0  2
 19 42  1  0  0  2
 20 43  1  0  0  2
 21 44  1  0  0  2
 23 45  1  0  0  2
M  END
> <MOLECULAR_FORMULA>
C12H22O11

> <MOLECULAR_WEIGHT>
342.1

> <NUM_HB_ATOMS>
11 

> <NUM_ROTOR>
4  

> <XLOGP2>
-4.56

$$$$
