REMARK  12 active torsions:
REMARK  status: ('A' for Active; 'I' for Inactive)
REMARK    1  A    between atoms: O1_7  and  C1_1 
REMARK    2  A    between atoms: C2_2  and  O2_8 
REMARK    3  A    between atoms: C3_3  and  O3_9 
REMARK    4  A    between atoms: C4_4  and  O4_10 
REMARK    5  A    between atoms: C5_5  and  C6_6 
REMARK    6  A    between atoms: C6_6  and  O6_12 
REMARK    7  A    between atoms: C4'_16  and  O1_7 
REMARK    8  A    between atoms: C1'_13  and  O1'_19 
REMARK    9  A    between atoms: C2'_14  and  O2'_20 
REMARK   10  A    between atoms: C3'_15  and  O3'_21 
REMARK   11  A    between atoms: C5'_17  and  C6'_18 
REMARK   12  A    between atoms: C6'_18  and  O6'_23 
ROOT
ATOM      1  O1  LBT d          56.644  15.053   5.923  0.00  0.00    -0.348 OA
ENDROOT
BRANCH   1   2
ATOM      2  C1  LBT d          57.973  14.736   5.661  0.00  0.00     0.292 C 
ATOM      3  C2  LBT d          58.805  14.806   6.927  0.00  0.00     0.204 C 
ATOM      4  C3  LBT d          60.175  14.273   6.726  0.00  0.00     0.183 C 
ATOM      5  C4  LBT d          60.239  12.921   6.073  0.00  0.00     0.180 C 
ATOM      6  C5  LBT d          59.385  12.928   4.825  0.00  0.00     0.179 C 
ATOM      7  O5  LBT d          58.028  13.362   5.142  0.00  0.00    -0.348 OA
BRANCH   3   8
ATOM      8  O2  LBT d          58.874  16.168   7.328  0.00  0.00    -0.388 OA
ATOM      9  H   LBT d          59.360  16.233   8.142  0.00  0.00     0.210 HD
ENDBRANCH   3   8
BRANCH   4  10
ATOM     10  O3  LBT d          60.968  14.371   7.969  0.00  0.00    -0.390 OA
ATOM     11  H   LBT d          61.881  14.193   7.776  0.00  0.00     0.210 HD
ENDBRANCH   4  10
BRANCH   5  12
ATOM     12  O4  LBT d          59.661  12.020   6.974  0.00  0.00    -0.390 OA
ATOM     13  H   LBT d          60.178  11.995   7.771  0.00  0.00     0.210 HD
ENDBRANCH   5  12
BRANCH   6  14
ATOM     14  C6  LBT d          59.275  11.586   4.131  0.00  0.00     0.198 C 
BRANCH  14  15
ATOM     15  O6  LBT d          60.469  11.132   3.631  0.00  0.00    -0.398 OA
ATOM     16  H   LBT d          60.803  11.755   2.997  0.00  0.00     0.209 HD
ENDBRANCH  14  15
ENDBRANCH   6  14
ENDBRANCH   1   2
BRANCH   1  17
ATOM     17  C4' LBT d          55.910  15.435   4.754  0.00  0.00     0.187 C 
ATOM     18  C3' LBT d          54.891  14.415   4.454  0.00  0.00     0.183 C 
ATOM     19  C2' LBT d          53.961  14.869   3.432  0.00  0.00     0.204 C 
ATOM     20  C1' LBT d          53.316  16.174   3.865  0.00  0.00     0.288 C 
ATOM     21  O5' LBT d          54.349  17.192   4.080  0.00  0.00    -0.349 OA
ATOM     22  C5' LBT d          55.277  16.771   5.105  0.00  0.00     0.180 C 
BRANCH  18  23
ATOM     23  O3' LBT d          55.505  13.281   3.950  0.00  0.00    -0.390 OA
ATOM     24  H   LBT d          54.846  12.624   3.757  0.00  0.00     0.210 HD
ENDBRANCH  18  23
BRANCH  19  25
ATOM     25  O2' LBT d          52.944  13.908   3.238  0.00  0.00    -0.388 OA
ATOM     26  H   LBT d          53.334  13.087   2.962  0.00  0.00     0.210 HD
ENDBRANCH  19  25
BRANCH  20  27
ATOM     27  O1' LBT d          52.616  16.006   5.028  0.00  0.00    -0.369 OA
ATOM     28  H   LBT d          51.943  15.348   4.899  0.00  0.00     0.212 HD
ENDBRANCH  20  27
BRANCH  22  29
ATOM     29  C6' LBT d          56.266  17.891   5.404  0.00  0.00     0.198 C 
BRANCH  29  30
ATOM     30  O6' LBT d          55.800  18.893   6.251  0.00  0.00    -0.398 OA
ATOM     31  H   LBT d          56.482  19.542   6.377  0.00  0.00     0.209 HD
ENDBRANCH  29  30
ENDBRANCH  22  29
ENDBRANCH   1  17
TORSDOF 12
