REMARK  7 active torsions:
REMARK  status: ('A' for Active; 'I' for Inactive)
REMARK    1  A    between atoms: C4_6  and  C5_7 
REMARK    2  A    between atoms: C6_8  and  S1_9 
REMARK    3  A    between atoms: S1_9  and  N1_12 
REMARK    4  A    between atoms: N1_12  and  C12_13 
REMARK    5  A    between atoms: N2_18  and  C15_19 
REMARK    6  A    between atoms: C27_24  and  C28_26 
REMARK    7  A    between atoms: C28_26  and  N3_28 
ROOT
ATOM      1  C12 MOL d           5.852   6.683  22.850  0.00  0.00     0.187 C 
ATOM      2  C13 MOL d           4.502   6.054  22.521  0.00  0.00     0.056 C 
ATOM      3  C14 MOL d           4.859   4.708  21.869  0.00  0.00     0.135 C 
ATOM      4  C50 MOL d           6.783   6.051  21.828  0.00  0.00     0.247 C 
ATOM      5  O3  MOL d           7.860   6.472  21.443  0.00  0.00    -0.271 OA
ATOM      6  N2  MOL d           6.228   4.907  21.394  0.00  0.00    -0.313 N 
ENDROOT
BRANCH   1   7
ATOM      7  N1  MOL d           5.839   8.132  22.758  0.00  0.00    -0.302 N 
ATOM      8  H5  MOL d           5.352   8.542  21.986  0.00  0.00     0.173 HD
BRANCH   7   9
ATOM      9  S1  MOL d           6.555   9.138  23.813  0.00  0.00     0.249 S 
ATOM     10  O2  MOL d           6.621  10.344  23.056  0.00  0.00    -0.201 OA
ATOM     11  O1  MOL d           5.850   9.108  25.074  0.00  0.00    -0.201 OA
BRANCH   9  12
ATOM     12  C6  MOL d           8.181   8.658  24.180  0.00  0.00     0.132 C 
ATOM     13  C5  MOL d           8.448   8.226  25.422  0.00  0.00     0.032 C 
BRANCH  13  14
ATOM     14  C4  MOL d           9.740   7.805  25.936  0.00  0.00     0.007 A 
ATOM     15  C3  MOL d           9.957   7.149  27.193  0.00  0.00     0.021 A 
ATOM     16  C2  MOL d          11.346   6.889  27.404  0.00  0.00     0.033 A 
ATOM     17  C1  MOL d          12.114   7.322  26.370  0.00  0.00     0.075 A 
ATOM     18 CL1  MOL d          13.846   7.203  26.206  0.00  0.00    -0.076 Cl
ATOM     19  S2  MOL d          11.221   8.053  25.121  0.00  0.00    -0.078 SA
ENDBRANCH  13  14
ENDBRANCH   9  12
ENDBRANCH   7   9
ENDBRANCH   1   7
BRANCH   6  20
ATOM     20  C15 MOL d           6.913   3.968  20.573  0.00  0.00     0.076 A 
ATOM     21  C21 MOL d           7.600   4.367  19.418  0.00  0.00     0.143 A 
ATOM     22  F1  MOL d           7.632   5.650  19.066  0.00  0.00    -0.204 F 
ATOM     23  C24 MOL d           8.259   3.463  18.607  0.00  0.00     0.054 A 
ATOM     24  C27 MOL d           8.231   2.109  18.973  0.00  0.00    -0.025 A 
ATOM     25  C26 MOL d           7.552   1.688  20.140  0.00  0.00     0.012 A 
ATOM     26  C22 MOL d           6.877   2.612  20.952  0.00  0.00     0.033 A 
BRANCH  24  27
ATOM     27  C28 MOL d           8.935   1.118  18.100  0.00  0.00     0.216 C 
ATOM     28  C8  MOL d          10.390   1.545  17.844  0.00  0.00     0.045 C 
BRANCH  27  29
ATOM     29  N3  MOL d           8.189   0.882  16.814  0.00  0.00    -0.071 N 
ATOM     30  C9  MOL d           6.816   0.380  17.015  0.00  0.00     0.270 C 
ATOM     31  C7  MOL d           8.185   1.986  15.816  0.00  0.00     0.270 C 
ATOM     32  H18 MOL d           8.692   0.131  16.369  0.00  0.00     0.279 HD
ENDBRANCH  27  29
ENDBRANCH  24  27
ENDBRANCH   6  20
TORSDOF 7
