REMARK  3 active torsions:
REMARK  status: ('A' for Active; 'I' for Inactive)
REMARK    1  A    between atoms: C1_1  and  C7_11 
REMARK    2  A    between atoms: C7_11  and  P1_2 
REMARK    3  A    between atoms: C7_11  and  S1_3 
ROOT
ATOM      1  C1  SDF d           3.535   2.554  68.583  0.00  0.00    -0.009 A 
ATOM      2 CL1  SDF d           4.939   4.265  66.879  0.00  0.00    -0.084 Cl
ATOM      3  C2  SDF d           4.597   2.715  67.681  0.00  0.00     0.043 A 
ATOM      4 CL2  SDF d           6.568  -0.829  67.593  0.00  0.00    -0.084 Cl
ATOM      5  C3  SDF d           5.506   1.696  67.400  0.00  0.00     0.048 A 
ATOM      6  C4  SDF d           5.360   0.453  67.986  0.00  0.00     0.035 A 
ATOM      7  C5  SDF d           4.277   0.249  68.847  0.00  0.00     0.024 A 
ATOM      8  C6  SDF d           3.362   1.281  69.121  0.00  0.00     0.012 A 
ENDROOT
BRANCH   1   9
ATOM      9  C7  SDF d           2.557   3.665  68.773  0.00  0.00     0.209 C 
BRANCH   9  10
ATOM     10  P1  SDF d           2.600   4.568  70.345  0.00  0.00     0.278 P 
ATOM     11  O11 SDF d           3.981   5.163  70.532  0.00  0.00    -0.639 OA
ATOM     12  O12 SDF d           1.555   5.641  70.164  0.00  0.00    -0.639 OA
ATOM     13  O13 SDF d           2.311   3.576  71.458  0.00  0.00    -0.639 OA
ENDBRANCH   9  10
BRANCH   9  14
ATOM     14  S1  SDF d           0.915   2.958  68.482  0.00  0.00    -0.159 SA
ATOM     15  H1  SDF d           0.915   2.462  67.605  0.00  0.00     0.102 HD
ENDBRANCH   9  14
ENDBRANCH   1   9
TORSDOF 3
