REMARK  8 active torsions:
REMARK  status: ('A' for Active; 'I' for Inactive)
REMARK       I    between atoms: CAG_2  and  NAI_4 
REMARK    1  A    between atoms: NAI_4  and  CAB_5 
REMARK    2  A    between atoms: CAC_6  and  OAJ_7 
REMARK    3  A    between atoms: CAD_8  and  OAK_9 
REMARK    4  A    between atoms: CAE_10  and  CAF_11 
REMARK    5  A    between atoms: CAF_11  and  OAM_12 
REMARK    6  A    between atoms: NAY_15  and  OAQ_16 
REMARK    7  A    between atoms: OAQ_16  and  CAP_17 
REMARK       I    between atoms: CAP_17  and  NAO_19 
REMARK    8  A    between atoms: NAO_19  and  CAS_20 
ROOT
ATOM      1  CAB OAN d          37.088  16.663 -20.513  0.00  0.00     0.194 C 
ATOM      2  CAC OAN d          36.155  17.834 -20.777  0.00  0.00     0.180 C 
ATOM      3  CAD OAN d          35.609  17.721 -22.193  0.00  0.00     0.180 C 
ATOM      4  CAE OAN d          34.694  16.508 -22.247  0.00  0.00     0.185 C 
ATOM      5  OAL OAN d          35.453  15.326 -21.963  0.00  0.00    -0.324 OA
ATOM      6  CAA OAN d          36.665  15.449 -21.356  0.00  0.00     0.194 C 
ATOM      7  NAY OAN d          37.482  14.423 -21.540  0.00  0.00    -0.100 NA
ENDROOT
BRANCH   1   8
ATOM      8  NAI OAN d          37.072  16.367 -19.073  0.00  0.00    -0.347 N 
ATOM      9  CAG OAN d          36.089  15.687 -18.495  0.00  0.00     0.214 C 
ATOM     10  CAH OAN d          36.229  15.499 -16.976  0.00  0.00     0.117 C 
ATOM     11  OAN OAN d          35.134  15.216 -19.105  0.00  0.00    -0.274 OA
ATOM     12  H4  OAN d          37.831  16.690 -18.507  0.00  0.00     0.163 HD
ENDBRANCH   1   8
BRANCH   7  13
ATOM     13  OAQ OAN d          36.951  13.431 -22.306  0.00  0.00    -0.153 OA
BRANCH  13  14
ATOM     14  CAP OAN d          37.885  12.674 -22.932  0.00  0.00     0.389 C 
ATOM     15  OAR OAN d          39.095  12.800 -22.714  0.00  0.00    -0.236 OA
ATOM     16  NAO OAN d          37.398  11.768 -23.776  0.00  0.00    -0.301 N 
ATOM     17  H14 OAN d          38.027  11.146 -24.243  0.00  0.00     0.171 HD
BRANCH  16  18
ATOM     18  CAS OAN d          36.078  11.671 -24.014  0.00  0.00     0.036 A 
ATOM     19  CAT OAN d          35.304  10.723 -23.358  0.00  0.00     0.029 A 
ATOM     20  CAU OAN d          33.946  10.624 -23.623  0.00  0.00     0.002 A 
ATOM     21  CAV OAN d          33.340  11.480 -24.541  0.00  0.00     0.000 A 
ATOM     22  CAW OAN d          34.107  12.429 -25.201  0.00  0.00     0.002 A 
ATOM     23  CAX OAN d          35.472  12.518 -24.938  0.00  0.00     0.029 A 
ENDBRANCH  16  18
ENDBRANCH  13  14
ENDBRANCH   7  13
BRANCH   2  24
ATOM     24  OAJ OAN d          36.893  19.039 -20.626  0.00  0.00    -0.390 OA
ATOM     25  H7  OAN d          36.322  19.781 -20.788  0.00  0.00     0.210 HD
ENDBRANCH   2  24
BRANCH   4  26
ATOM     26  CAF OAN d          34.015  16.338 -23.627  0.00  0.00     0.199 C 
BRANCH  26  27
ATOM     27  OAM OAN d          35.019  16.156 -24.629  0.00  0.00    -0.398 OA
ATOM     28  H13 OAN d          35.529  15.380 -24.427  0.00  0.00     0.209 HD
ENDBRANCH  26  27
ENDBRANCH   4  26
BRANCH   3  29
ATOM     29  OAK OAN d          34.866  18.883 -22.529  0.00  0.00    -0.390 OA
ATOM     30  H9  OAN d          35.430  19.645 -22.474  0.00  0.00     0.210 HD
ENDBRANCH   3  29
TORSDOF 8
