REMARK  14 active torsions:
REMARK  status: ('A' for Active; 'I' for Inactive)
REMARK    1  A    between atoms: N1_1  and  C31_39 
REMARK    2  A    between atoms: C2_3  and  C3_4 
REMARK       I    between atoms: C3_4  and  N2_6 
REMARK    3  A    between atoms: N2_6  and  C4_7 
REMARK    4  A    between atoms: N3_11  and  C10_14 
REMARK    5  A    between atoms: C10_14  and  C11_15 
REMARK    6  A    between atoms: C11_15  and  C12_17 
REMARK    7  A    between atoms: C11_15  and  O2_16 
REMARK    8  A    between atoms: C12_17  and  C13_18 
REMARK    9  A    between atoms: C13_18  and  C21_26 
REMARK   10  A    between atoms: C13_18  and  C14_19 
REMARK   11  A    between atoms: C14_19  and  C15_20 
REMARK       I    between atoms: C21_26  and  N4_28 
REMARK   12  A    between atoms: N4_28  and  C22_29 
REMARK   13  A    between atoms: C23_30  and  O4_31 
REMARK   14  A    between atoms: C31_39  and  C32_40 
ROOT
ATOM      1  C11 MK1 d           5.107  -0.485  15.443  0.00  0.00     0.145 C 
ENDROOT
BRANCH   1   2
ATOM      2  C10 MK1 d           5.079  -1.586  16.496  0.00  0.00     0.267 C 
BRANCH   2   3
ATOM      3  N3  MK1 d           4.592  -2.878  15.982  0.00  0.00    -0.053 N 
ATOM      4  C2  MK1 d           5.471  -4.070  16.304  0.00  0.00     0.305 C 
ATOM      5  C1  MK1 d           4.668  -5.208  15.687  0.00  0.00     0.278 C 
ATOM      6  N1  MK1 d           3.257  -5.441  16.163  0.00  0.00    -0.063 N 
ATOM      7  C9  MK1 d           2.503  -4.294  15.835  0.00  0.00     0.263 C 
ATOM      8  H1  MK1 d           3.285  -5.515  17.168  0.00  0.00     0.280 HD
ATOM      9  C8  MK1 d           3.128  -2.974  16.307  0.00  0.00     0.263 C 
ATOM     10  H15 MK1 d           4.637  -2.809  14.977  0.00  0.00     0.281 HD
BRANCH   4  11
ATOM     11  C3  MK1 d           6.822  -4.052  15.649  0.00  0.00     0.251 C 
ATOM     12  N2  MK1 d           7.869  -4.600  16.329  0.00  0.00    -0.351 N 
ATOM     13  H5  MK1 d           7.622  -4.983  17.219  0.00  0.00     0.163 HD
ATOM     14  O1  MK1 d           6.930  -3.539  14.532  0.00  0.00    -0.271 OA
BRANCH  12  15
ATOM     15  C4  MK1 d           9.281  -4.730  15.996  0.00  0.00     0.022 C 
ATOM     16  C7  MK1 d           9.552  -5.533  14.794  0.00  0.00     0.037 C 
ATOM     17  C6  MK1 d           9.918  -3.498  15.842  0.00  0.00     0.037 C 
ATOM     18  C5  MK1 d           9.975  -5.471  17.150  0.00  0.00     0.037 C 
ENDBRANCH  12  15
ENDBRANCH   4  11
BRANCH   6  19
ATOM     19  C31 MK1 d           2.645  -6.679  15.673  0.00  0.00     0.275 C 
BRANCH  19  20
ATOM     20  C32 MK1 d           3.242  -8.043  16.048  0.00  0.00    -0.015 A 
ATOM     21  C36 MK1 d           3.777  -8.833  15.011  0.00  0.00     0.012 A 
ATOM     22  C35 MK1 d           4.341 -10.101  15.322  0.00  0.00     0.020 A 
ATOM     23  C34 MK1 d           4.353 -10.537  16.667  0.00  0.00     0.116 A 
ATOM     24  N5  MK1 d           3.835  -9.804  17.771  0.00  0.00    -0.273 NA
ATOM     25  C33 MK1 d           3.283  -8.538  17.380  0.00  0.00     0.125 A 
ENDBRANCH  19  20
ENDBRANCH   6  19
ENDBRANCH   2   3
ENDBRANCH   1   2
BRANCH   1  26
ATOM     26  C12 MK1 d           6.324  -0.232  14.538  0.00  0.00     0.047 C 
BRANCH  26  27
ATOM     27  C13 MK1 d           6.270   0.870  13.472  0.00  0.00     0.084 C 
BRANCH  27  28
ATOM     28  C21 MK1 d           5.092   0.647  12.478  0.00  0.00     0.222 C 
ATOM     29  N4  MK1 d           4.511   1.769  12.060  0.00  0.00    -0.350 N 
ATOM     30  H34 MK1 d           4.831   2.636  12.442  0.00  0.00     0.163 HD
ATOM     31  O3  MK1 d           4.768  -0.498  12.083  0.00  0.00    -0.273 OA
BRANCH  29  32
ATOM     32  C22 MK1 d           3.433   1.806  11.076  0.00  0.00     0.147 C 
ATOM     33  C30 MK1 d           1.988   1.623  11.592  0.00  0.00    -0.027 A 
ATOM     34  C25 MK1 d           0.999   2.590  10.842  0.00  0.00    -0.047 A 
ATOM     35  C29 MK1 d           1.423   0.797  12.540  0.00  0.00     0.010 A 
ATOM     36  C24 MK1 d           1.936   3.304   9.912  0.00  0.00     0.073 C 
ATOM     37  C26 MK1 d          -0.354   2.613  11.143  0.00  0.00     0.008 A 
ATOM     38  C23 MK1 d           3.359   3.172  10.393  0.00  0.00     0.149 C 
ATOM     39  C27 MK1 d          -0.835   1.726  12.138  0.00  0.00     0.001 A 
ATOM     40  C28 MK1 d           0.048   0.837  12.827  0.00  0.00     0.001 A 
BRANCH  38  41
ATOM     41  O4  MK1 d           3.770   4.212  11.284  0.00  0.00    -0.393 OA
ATOM     42  H37 MK1 d           4.672   4.066  11.545  0.00  0.00     0.210 HD
ENDBRANCH  38  41
ENDBRANCH  29  32
ENDBRANCH  27  28
BRANCH  27  43
ATOM     43  C14 MK1 d           7.606   0.959  12.672  0.00  0.00     0.052 C 
BRANCH  43  44
ATOM     44  C15 MK1 d           7.600   1.992  11.589  0.00  0.00    -0.057 A 
ATOM     45  C20 MK1 d           7.760   1.567  10.243  0.00  0.00     0.007 A 
ATOM     46  C19 MK1 d           7.744   2.513   9.191  0.00  0.00     0.001 A 
ATOM     47  C18 MK1 d           7.565   3.896   9.496  0.00  0.00     0.000 A 
ATOM     48  C17 MK1 d           7.404   4.334  10.850  0.00  0.00     0.001 A 
ATOM     49  C16 MK1 d           7.422   3.378  11.896  0.00  0.00     0.007 A 
ENDBRANCH  43  44
ENDBRANCH  27  43
ENDBRANCH  26  27
ENDBRANCH   1  26
BRANCH   1  50
ATOM     50  O2  MK1 d           5.122   0.558  16.369  0.00  0.00    -0.394 OA
ATOM     51  H23 MK1 d           4.388   0.462  16.965  0.00  0.00     0.210 HD
ENDBRANCH   1  50
TORSDOF 14
