REMARK  13 active torsions:
REMARK  status: ('A' for Active; 'I' for Inactive)
REMARK    1  A    between atoms: C6_3  and  N6_38 
REMARK    2  A    between atoms: CAK_13  and  CBH_12 
REMARK    3  A    between atoms: CAI_14  and  CAK_13 
REMARK    4  A    between atoms: CAH_15  and  CAI_14 
REMARK    5  A    between atoms: CAJ_16  and  CAH_15 
REMARK    6  A    between atoms: CAZ_17  and  CAJ_16 
REMARK       I    between atoms: NAV_19  and  CAZ_17 
REMARK    7  A    between atoms: SBK_20  and  NAV_19 
REMARK    8  A    between atoms: NAW_23  and  SBK_20 
REMARK    9  A    between atoms: CAN_24  and  NAW_23 
REMARK   10  A    between atoms: CBE_25  and  CAN_24 
REMARK   11  A    between atoms: CAL_27  and  OAL_28 
REMARK   12  A    between atoms: N8Q_40  and  CAM_29 
REMARK   13  A    between atoms: CBG_30  and  N9_31 
ROOT
ATOM      1  N2  MOL d          -4.703   1.635   5.963  0.00  0.00     0.068 N 
ATOM      2  N5  MOL d          -4.020   1.732   6.894  0.00  0.00    -0.167 NA
ATOM      3  N8Q MOL d          -3.222   1.846   8.011  0.00  0.00    -0.103 NA
ENDROOT
BRANCH   3   4
ATOM      4  CAM MOL d          -3.066   0.715   8.909  0.00  0.00     0.225 C 
ATOM      5  CAL MOL d          -2.312  -0.411   8.232  0.00  0.00     0.180 C 
ATOM      6  CBE MOL d          -3.415  -1.307   7.696  0.00  0.00     0.173 C 
ATOM      7  OAX MOL d          -4.530  -1.118   8.571  0.00  0.00    -0.354 OA
ATOM      8  CBG MOL d          -4.428   0.134   9.256  0.00  0.00     0.261 C 
BRANCH   5   9
ATOM      9  OAL MOL d          -1.510   0.098   7.163  0.00  0.00    -0.391 OA
ATOM     10  H22 MOL d          -0.827   0.655   7.518  0.00  0.00     0.210 HD
ENDBRANCH   5   9
BRANCH   6  11
ATOM     11  CAN MOL d          -3.036  -2.782   7.611  0.00  0.00     0.168 C 
BRANCH  11  12
ATOM     12  NAW MOL d          -4.249  -3.533   7.245  0.00  0.00    -0.300 N 
ATOM     13  H17 MOL d          -5.179  -3.237   7.462  0.00  0.00     0.173 HD
BRANCH  12  14
ATOM     14  SBK MOL d          -3.894  -4.890   6.452  0.00  0.00     0.321 S 
ATOM     15  OAD MOL d          -5.032  -5.261   5.657  0.00  0.00    -0.182 OA
ATOM     16  OAE MOL d          -2.771  -4.672   5.586  0.00  0.00    -0.182 OA
BRANCH  14  17
ATOM     17  NAV MOL d          -3.563  -6.016   7.421  0.00  0.00    -0.237 N 
ATOM     18  CAZ MOL d          -4.442  -6.398   8.346  0.00  0.00     0.232 C 
ATOM     19  OAB MOL d          -5.537  -5.872   8.472  0.00  0.00    -0.273 OA
ATOM     20  H16 MOL d          -2.676  -6.474   7.363  0.00  0.00     0.183 HD
BRANCH  18  21
ATOM     21  CAJ MOL d          -4.023  -7.538   9.248  0.00  0.00     0.104 C 
BRANCH  21  22
ATOM     22  CAH MOL d          -3.663  -7.067  10.653  0.00  0.00     0.009 C 
BRANCH  22  23
ATOM     23  CAI MOL d          -3.522  -8.272  11.578  0.00  0.00     0.002 C 
BRANCH  23  24
ATOM     24  CAK MOL d          -3.213  -7.870  13.016  0.00  0.00     0.017 C 
BRANCH  24  25
ATOM     25  CBH MOL d          -3.305  -9.082  13.937  0.00  0.00     0.072 C 
ATOM     26  CBI MOL d          -2.117 -10.037  13.826  0.00  0.00     0.123 A 
ATOM     27  NAU MOL d          -0.950  -9.203  13.570  0.00  0.00    -0.335 N 
ATOM     28  CBF MOL d          -1.774 -10.660  15.195  0.00  0.00     0.119 A 
ATOM     29  CBA MOL d          -0.019  -9.328  14.502  0.00  0.00     0.316 A 
ATOM     30  H2  MOL d          -0.862  -8.601  12.776  0.00  0.00     0.164 HD
ATOM     31  OAC MOL d           1.064  -8.762  14.497  0.00  0.00    -0.247 OA
ATOM     32  NAT MOL d          -0.431 -10.159  15.443  0.00  0.00    -0.336 N 
ATOM     33  H3  MOL d           0.119 -10.415  16.238  0.00  0.00     0.164 HD
ATOM     34  CAO MOL d          -2.615 -10.057  16.317  0.00  0.00     0.101 C 
ATOM     35  SAY MOL d          -3.309  -8.603  15.626  0.00  0.00    -0.160 SA
ENDBRANCH  24  25
ENDBRANCH  23  24
ENDBRANCH  22  23
ENDBRANCH  21  22
ENDBRANCH  18  21
ENDBRANCH  14  17
ENDBRANCH  12  14
ENDBRANCH  11  12
ENDBRANCH   6  11
BRANCH   8  36
ATOM     36  N9  MOL d          -4.527  -0.109  10.716  0.00  0.00    -0.294 N 
ATOM     37  C4  MOL d          -5.663  -0.324  11.383  0.00  0.00     0.167 A 
ATOM     38  C5  MOL d          -5.339  -0.520  12.714  0.00  0.00     0.149 A 
ATOM     39  N3  MOL d          -6.958  -0.373  10.994  0.00  0.00    -0.222 NA
ATOM     40  C6  MOL d          -6.358  -0.762  13.624  0.00  0.00     0.155 A 
ATOM     41  N7  MOL d          -3.997  -0.421  12.821  0.00  0.00    -0.236 NA
ATOM     42  N1  MOL d          -7.635  -0.799  13.187  0.00  0.00    -0.222 NA
ATOM     43  C2  MOL d          -7.921  -0.608  11.892  0.00  0.00     0.237 A 
ATOM     44  C8  MOL d          -3.507  -0.172  11.585  0.00  0.00     0.214 A 
BRANCH  40  45
ATOM     45  N6  MOL d          -6.082  -0.959  14.936  0.00  0.00    -0.382 N 
ATOM     46  H27 MOL d          -6.847  -1.138  15.602  0.00  0.00     0.157 HD
ATOM     47  H28 MOL d          -5.107  -0.930  15.267  0.00  0.00     0.157 HD
ENDBRANCH  40  45
ENDBRANCH   8  36
ENDBRANCH   3   4
TORSDOF 13
