REMARK  14 active torsions:
REMARK  status: ('A' for Active; 'I' for Inactive)
REMARK    1  A    between atoms: C2_2  and  N1_1 
REMARK    2  A    between atoms: S8_8  and  C5_5 
REMARK    3  A    between atoms: N11_11  and  S8_8 
REMARK    4  A    between atoms: N11_11  and  C12_12 
REMARK    5  A    between atoms: C16_16  and  N11_11 
REMARK    6  A    between atoms: C12_12  and  C13_13 
REMARK    7  A    between atoms: C17_17  and  C16_16 
REMARK    8  A    between atoms: C17_17  and  O18_18 
REMARK    9  A    between atoms: C19_19  and  C17_17 
REMARK   10  A    between atoms: C19_19  and  N20_20 
REMARK   11  A    between atoms: C32_32  and  C19_19 
REMARK       I    between atoms: N20_20  and  C21_21 
REMARK   12  A    between atoms: C21_21  and  O23_23 
REMARK   13  A    between atoms: O23_23  and  C24_24 
REMARK   14  A    between atoms: C38_38  and  C32_32 
ROOT
ATOM      1  C19 G10 d          14.142  20.246  17.146  0.00  0.00     0.121 C 
ENDROOT
BRANCH   1   2
ATOM      2  C17 G10 d          13.716  19.114  18.082  0.00  0.00     0.160 C 
BRANCH   2   3
ATOM      3  C16 G10 d          12.578  18.244  17.541  0.00  0.00     0.169 C 
BRANCH   3   4
ATOM      4  N11 G10 d          11.309  18.914  17.562  0.00  0.00    -0.304 N 
BRANCH   4   5
ATOM      5  S8  G10 d          10.636  19.281  16.111  0.00  0.00     0.260 S 
ATOM      6  O9  G10 d          11.729  19.589  15.173  0.00  0.00    -0.200 OA
ATOM      7  O10 G10 d           9.670  20.368  16.365  0.00  0.00    -0.200 OA
BRANCH   5   8
ATOM      8  C5  G10 d           9.759  17.881  15.528  0.00  0.00     0.079 A 
ATOM      9  C4  G10 d          10.438  16.977  14.770  0.00  0.00     0.027 A 
ATOM     10  C3  G10 d           9.958  15.791  14.276  0.00  0.00     0.030 A 
ATOM     11  C2  G10 d           8.616  15.527  14.498  0.00  0.00     0.025 A 
ATOM     12  C7  G10 d           7.882  16.407  15.272  0.00  0.00     0.030 A 
ATOM     13  C6  G10 d           8.436  17.595  15.800  0.00  0.00     0.027 A 
BRANCH  11  14
ATOM     14  N1  G10 d           8.120  14.364  14.040  0.00  0.00    -0.399 N 
ATOM     15  H   G10 d           8.709  13.743  13.467  0.00  0.00     0.156 HD
ATOM     16  H   G10 d           7.151  14.094  14.263  0.00  0.00     0.156 HD
ENDBRANCH  11  14
ENDBRANCH   5   8
ENDBRANCH   4   5
BRANCH   4  17
ATOM     17  C12 G10 d          10.387  18.623  18.611  0.00  0.00     0.139 C 
BRANCH  17  18
ATOM     18  C13 G10 d          10.696  19.311  19.955  0.00  0.00    -0.004 C 
ATOM     19  C14 G10 d          10.580  20.828  19.795  0.00  0.00     0.011 C 
ATOM     20  C15 G10 d           9.731  18.815  21.034  0.00  0.00     0.011 C 
ENDBRANCH  17  18
ENDBRANCH   4  17
ENDBRANCH   3   4
ENDBRANCH   2   3
BRANCH   2  21
ATOM     21  O18 G10 d          14.834  18.281  18.418  0.00  0.00    -0.392 OA
ATOM     22  H   G10 d          15.128  17.820  17.642  0.00  0.00     0.210 HD
ENDBRANCH   2  21
ENDBRANCH   1   2
BRANCH   1  23
ATOM     23  N20 G10 d          15.023  21.171  17.850  0.00  0.00    -0.329 N 
ATOM     24  C21 G10 d          14.709  22.415  18.209  0.00  0.00     0.361 C 
ATOM     25  O22 G10 d          13.623  22.995  18.024  0.00  0.00    -0.238 OA
ATOM     26  H   G10 d          15.939  20.844  18.083  0.00  0.00     0.165 HD
BRANCH  24  27
ATOM     27  O23 G10 d          15.735  23.014  18.863  0.00  0.00    -0.296 OA
BRANCH  27  28
ATOM     28  C24 G10 d          15.547  24.412  19.132  0.00  0.00     0.172 C 
ATOM     29  C25 G10 d          16.142  24.635  20.526  0.00  0.00     0.204 C 
ATOM     30  O26 G10 d          17.559  24.686  20.333  0.00  0.00    -0.358 OA
ATOM     31  C27 G10 d          17.834  25.179  19.021  0.00  0.00     0.272 C 
ATOM     32  O28 G10 d          18.648  24.223  18.339  0.00  0.00    -0.355 OA
ATOM     33  C31 G10 d          16.517  25.251  18.283  0.00  0.00     0.147 C 
ATOM     34  C29 G10 d          18.017  23.751  17.164  0.00  0.00     0.250 C 
ATOM     35  C30 G10 d          16.866  24.683  16.919  0.00  0.00     0.275 C 
ATOM     36  F39 G10 d          15.816  24.123  16.317  0.00  0.00    -0.203 F 
ATOM     37  F40 G10 d          17.335  25.628  16.103  0.00  0.00    -0.203 F 
ENDBRANCH  27  28
ENDBRANCH  24  27
ENDBRANCH   1  23
BRANCH   1  38
ATOM     38  C32 G10 d          14.867  19.686  15.925  0.00  0.00     0.066 C 
BRANCH  38  39
ATOM     39  C38 G10 d          15.295  20.802  14.970  0.00  0.00    -0.056 A 
ATOM     40  C33 G10 d          16.638  21.115  14.807  0.00  0.00     0.007 A 
ATOM     41  C34 G10 d          17.034  22.165  13.985  0.00  0.00     0.001 A 
ATOM     42  C35 G10 d          16.078  22.924  13.308  0.00  0.00     0.000 A 
ATOM     43  C36 G10 d          14.766  22.539  13.427  0.00  0.00     0.001 A 
ATOM     44  C37 G10 d          14.336  21.519  14.262  0.00  0.00     0.007 A 
ENDBRANCH  38  39
ENDBRANCH   1  38
TORSDOF 14
