REMARK  5 active torsions:
REMARK  status: ('A' for Active; 'I' for Inactive)
REMARK    1  A    between atoms: O1_2  and  C10_3 
REMARK    2  A    between atoms: C7_8  and  C3_9 
REMARK    3  A    between atoms: C6_13  and  N4_18 
REMARK    4  A    between atoms: N4_18  and  C13_19 
REMARK    5  A    between atoms: C16_22  and  N5_25 
ROOT
ATOM      1  C3  1K3 d          14.544 -26.782 -20.377  0.00  0.00     0.071 A 
ATOM      2  C2  1K3 d          15.644 -27.626 -20.258  0.00  0.00     0.032 A 
ATOM      3  N1  1K3 d          13.325 -27.253 -20.047  0.00  0.00    -0.201 N 
ATOM      4  N2  1K3 d          12.169 -26.491 -20.129  0.00  0.00     0.026 NA
ATOM      5  C6  1K3 d          11.273 -27.385 -19.704  0.00  0.00     0.723 A 
ATOM      6  N3  1K3 d          11.788 -28.599 -19.397  0.00  0.00    -0.172 N 
ATOM      7  C4  1K3 d          13.118 -28.500 -19.626  0.00  0.00     0.145 A 
ATOM      8  C5  1K3 d          14.186 -29.371 -19.486  0.00  0.00     0.051 A 
ATOM      9  C1  1K3 d          15.463 -28.925 -19.812  0.00  0.00     0.006 A 
ATOM     10  H9  1K3 d          11.274 -29.426 -19.059  0.00  0.00     0.186 HD
ENDROOT
BRANCH   5  11
ATOM     11  N4  1K3 d           9.926 -27.142 -19.611  0.00  0.00    -0.189 N 
ATOM     12  H12 1K3 d           9.367 -27.907 -19.207  0.00  0.00     0.184 HD
BRANCH  11  13
ATOM     13  C13 1K3 d           9.221 -26.032 -19.977  0.00  0.00     0.049 A 
ATOM     14  C18 1K3 d           9.810 -24.875 -20.457  0.00  0.00     0.032 A 
ATOM     15  C17 1K3 d           9.044 -23.771 -20.788  0.00  0.00     0.031 A 
ATOM     16  C16 1K3 d           7.654 -23.781 -20.651  0.00  0.00     0.030 A 
ATOM     17  C15 1K3 d           7.063 -24.952 -20.160  0.00  0.00     0.031 A 
ATOM     18  C14 1K3 d           7.841 -26.058 -19.833  0.00  0.00     0.032 A 
BRANCH  16  19
ATOM     19  N5  1K3 d           6.910 -22.671 -20.993  0.00  0.00    -0.378 N 
ATOM     20  C22 1K3 d           7.579 -21.463 -21.485  0.00  0.00     0.150 C 
ATOM     21  C21 1K3 d           6.781 -20.879 -22.637  0.00  0.00     0.254 C 
ATOM     22  N6  1K3 d           5.462 -20.623 -22.087  0.00  0.00    -0.072 N 
ATOM     23  C23 1K3 d           4.734 -19.748 -23.000  0.00  0.00     0.269 C 
ATOM     24  C20 1K3 d           4.773 -21.899 -21.965  0.00  0.00     0.254 C 
ATOM     25  H21 1K3 d           5.540 -20.185 -21.183  0.00  0.00     0.279 HD
ATOM     26  C19 1K3 d           5.450 -22.656 -20.824  0.00  0.00     0.150 C 
ENDBRANCH  16  19
ENDBRANCH  11  13
ENDBRANCH   5  11
BRANCH   1  27
ATOM     27  C7  1K3 d          14.725 -25.391 -20.885  0.00  0.00    -0.007 A 
ATOM     28  C8  1K3 d          15.827 -24.596 -20.545  0.00  0.00     0.016 A 
ATOM     29  C9  1K3 d          15.948 -23.307 -21.071  0.00  0.00     0.037 A 
ATOM     30  C10 1K3 d          14.985 -22.806 -21.964  0.00  0.00     0.068 A 
ATOM     31  C11 1K3 d          13.899 -23.606 -22.309  0.00  0.00     0.037 A 
ATOM     32  C12 1K3 d          13.782 -24.888 -21.790  0.00  0.00     0.016 A 
BRANCH  30  33
ATOM     33  O1  1K3 d          15.044 -21.542 -22.517  0.00  0.00    -0.356 OA
ATOM     34  C24 1K3 d          16.107 -20.644 -22.203  0.00  0.00     0.210 C 
ENDBRANCH  30  33
ENDBRANCH   1  27
TORSDOF 5
