REMARK  4 active torsions:
REMARK  status: ('A' for Active; 'I' for Inactive)
REMARK    1  A    between atoms: N1_1  and  C8_2 
REMARK    2  A    between atoms: C9_8  and  N4_9 
REMARK    3  A    between atoms: N4_9  and  C17_10 
REMARK    4  A    between atoms: C17_10  and  C18_11 
ROOT
ATOM      1  C8  S79 d          14.959  16.241  24.042  0.00  0.00     0.700 A 
ATOM      2  N2  S79 d          14.598  16.158  22.744  0.00  0.00    -0.064 NA
ATOM      3  C4  S79 d          15.470  16.536  21.787  0.00  0.00     0.092 A 
ATOM      4  C5  S79 d          15.105  16.469  20.320  0.00  0.00     0.068 A 
ATOM      5  C6  S79 d          16.112  16.901  19.384  0.00  0.00     0.105 A 
ATOM      6  N3  S79 d          15.962  16.932  18.061  0.00  0.00    -0.063 NA
ATOM      7  C9  S79 d          17.069  17.370  17.601  0.00  0.00     0.701 A 
ATOM      8  N5  S79 d          18.020  17.683  18.498  0.00  0.00    -0.188 N 
ATOM      9  C1  S79 d          17.199  17.309  19.700  0.00  0.00     0.079 A 
ATOM     10  C2  S79 d          17.685  17.415  21.056  0.00  0.00     0.051 A 
ATOM     11  C3  S79 d          16.734  16.998  22.151  0.00  0.00     0.050 A 
ATOM     12  C7  S79 d          17.074  17.063  23.504  0.00  0.00     0.206 A 
ATOM     13  O1  S79 d          18.338  17.512  23.879  0.00  0.00    -0.171 OA
ATOM     14  N6  S79 d          16.174  16.684  24.431  0.00  0.00    -0.165 N 
ATOM     15  H14 S79 d          18.977  18.051  18.397  0.00  0.00     0.184 HD
ATOM     16  H16 S79 d          16.404  16.730  25.403  0.00  0.00     0.186 HD
ENDROOT
BRANCH   7  17
ATOM     17  N4  S79 d          17.307  17.530  16.278  0.00  0.00    -0.220 N 
ATOM     18  H4  S79 d          18.258  17.561  15.884  0.00  0.00     0.178 HD
BRANCH  17  19
ATOM     19  C17 S79 d          16.117  17.654  15.460  0.00  0.00     0.177 C 
BRANCH  19  20
ATOM     20  C18 S79 d          16.439  18.428  14.189  0.00  0.00    -0.029 A 
ATOM     21  C20 S79 d          16.912  19.743  14.236  0.00  0.00    -0.018 A 
ATOM     22  C26 S79 d          17.118  20.404  15.450  0.00  0.00     0.013 A 
ATOM     23  C21 S79 d          17.181  20.416  13.038  0.00  0.00    -0.025 A 
ATOM     24  C25 S79 d          17.602  21.715  15.475  0.00  0.00     0.001 A 
ATOM     25  C24 S79 d          17.868  22.386  14.280  0.00  0.00     0.001 A 
ATOM     26  C23 S79 d          17.661  21.729  13.064  0.00  0.00     0.012 A 
ATOM     27  C22 S79 d          16.982  19.776  11.811  0.00  0.00     0.012 A 
ATOM     28  C27 S79 d          16.504  18.461  11.769  0.00  0.00     0.002 A 
ATOM     29  C19 S79 d          16.228  17.787  12.961  0.00  0.00     0.010 A 
ENDBRANCH  19  20
ENDBRANCH  17  19
ENDBRANCH   7  17
BRANCH   1  30
ATOM     30  N1  S79 d          14.024  15.832  25.027  0.00  0.00    -0.233 N 
ATOM     31  H1  S79 d          13.094  15.492  24.744  0.00  0.00     0.174 HD
ATOM     32  H2  S79 d          14.275  15.875  26.025  0.00  0.00     0.174 HD
ENDBRANCH   1  30
TORSDOF 4
