REMARK  2 active torsions:
REMARK  status: ('A' for Active; 'I' for Inactive)
REMARK    1  A    between atoms: C2_2  and  C11_11 
REMARK    2  A    between atoms: C11_11  and  C12_12 
ROOT
ATOM      1  C1  NLA d          67.062  41.412  23.377  0.00  0.00    -0.019 A 
ATOM      2  C2  NLA d          67.356  41.035  24.709  0.00  0.00    -0.037 A 
ATOM      3  C3  NLA d          68.683  41.075  25.179  0.00  0.00     0.008 A 
ATOM      4  C4  NLA d          69.724  41.449  24.294  0.00  0.00     0.001 A 
ATOM      5  C5  NLA d          69.472  41.832  23.022  0.00  0.00     0.012 A 
ATOM      6  C6  NLA d          68.162  41.833  22.509  0.00  0.00    -0.025 A 
ATOM      7  C7  NLA d          67.887  42.194  21.138  0.00  0.00     0.012 A 
ATOM      8  C8  NLA d          66.586  42.176  20.671  0.00  0.00     0.001 A 
ATOM      9  C9  NLA d          65.503  41.794  21.509  0.00  0.00     0.001 A 
ATOM     10  C10 NLA d          65.723  41.425  22.831  0.00  0.00     0.013 A 
ENDROOT
BRANCH   2  11
ATOM     11  C11 NLA d          66.266  40.606  25.745  0.00  0.00     0.152 C 
BRANCH  11  12
ATOM     12  C12 NLA d          66.758  39.624  26.727  0.00  0.00     0.176 C 
ATOM     13  O2  NLA d          67.221  40.164  27.841  0.00  0.00    -0.648 OA
ATOM     14  O1  NLA d          66.801  38.325  26.473  0.00  0.00    -0.648 OA
ENDBRANCH  11  12
ENDBRANCH   2  11
TORSDOF 2
