REMARK  14 active torsions:
REMARK  status: ('A' for Active; 'I' for Inactive)
REMARK    1  A    between atoms: C5_3  and  C27_26 
REMARK    2  A    between atoms: N4_24  and  C6_4 
REMARK    3  A    between atoms: C7_5  and  C8_6 
REMARK    4  A    between atoms: C12_25  and  C7_5 
REMARK    5  A    between atoms: C8_6  and  C9_30 
REMARK    6  A    between atoms: C9_30  and  C10_7 
REMARK    7  A    between atoms: C10_7  and  C11_32 
REMARK    8  A    between atoms: C1_19  and  C32_18 
REMARK    9  A    between atoms: N2_20  and  C1_19 
REMARK       I    between atoms: C3_21  and  N2_20 
REMARK   10  A    between atoms: C2_23  and  C3_21 
REMARK   11  A    between atoms: C9_30  and  O4_31 
REMARK   12  A    between atoms: C11_32  and  O3_33 
REMARK   13  A    between atoms: C11_32  and  C35_34 
REMARK   14  A    between atoms: C35_34  and  C36_35 
ROOT
ATOM      1  N3  MOL d         -16.128   8.700  46.790  0.00  0.00    -0.223 NA
ATOM      2  C5  MOL d         -14.923   8.870  46.263  0.00  0.00     0.092 A 
ATOM      3  C2  MOL d         -16.482   7.422  46.563  0.00  0.00     0.200 A 
ATOM      4  N4  MOL d         -15.514   6.756  45.883  0.00  0.00    -0.325 N 
ATOM      5  C12 MOL d         -14.476   7.592  45.644  0.00  0.00     0.043 A 
ENDROOT
BRANCH   5   6
ATOM      6  C7  MOL d         -13.178   7.307  44.895  0.00  0.00     0.062 C 
BRANCH   6   7
ATOM      7  C8  MOL d         -13.206   8.073  43.560  0.00  0.00     0.038 C 
BRANCH   7   8
ATOM      8  C9  MOL d         -12.311   7.573  42.403  0.00  0.00     0.120 C 
BRANCH   8   9
ATOM      9  C10 MOL d         -12.869   8.073  41.068  0.00  0.00     0.064 C 
BRANCH   9  10
ATOM     10  C11 MOL d         -12.933   9.598  40.968  0.00  0.00     0.130 C 
BRANCH  10  11
ATOM     11  O3  MOL d         -11.648  10.129  41.290  0.00  0.00    -0.395 OA
ATOM     12  H28 MOL d         -11.675  11.077  41.231  0.00  0.00     0.210 HD
ENDBRANCH  10  11
BRANCH  10  13
ATOM     13  C35 MOL d         -13.387  10.003  39.559  0.00  0.00     0.144 C 
BRANCH  13  14
ATOM     14  C36 MOL d         -13.845  11.448  39.466  0.00  0.00     0.175 C 
ATOM     15  O7  MOL d         -13.121  12.303  38.963  0.00  0.00    -0.648 OA
ATOM     16  O6  MOL d         -15.049  11.820  39.910  0.00  0.00    -0.648 OA
ENDBRANCH  13  14
ENDBRANCH  10  13
ENDBRANCH   9  10
ENDBRANCH   8   9
BRANCH   8  17
ATOM     17  O4  MOL d         -12.230   6.151  42.310  0.00  0.00    -0.395 OA
ATOM     18  H26 MOL d         -11.886   5.801  43.123  0.00  0.00     0.210 HD
ENDBRANCH   8  17
ENDBRANCH   7   8
ENDBRANCH   6   7
ENDBRANCH   5   6
BRANCH   2  19
ATOM     19  C27 MOL d         -14.098  10.100  46.250  0.00  0.00    -0.005 A 
ATOM     20  C21 MOL d         -14.666  11.262  45.749  0.00  0.00     0.017 A 
ATOM     21  C24 MOL d         -13.934  12.447  45.738  0.00  0.00     0.043 A 
ATOM     22  C30 MOL d         -12.643  12.479  46.253  0.00  0.00     0.116 A 
ATOM     23  C15 MOL d         -12.078  11.316  46.778  0.00  0.00     0.043 A 
ATOM     24  F1  MOL d         -11.946  13.634  46.238  0.00  0.00    -0.206 F 
ATOM     25  C18 MOL d         -12.813  10.129  46.788  0.00  0.00     0.017 A 
ENDBRANCH   2  19
BRANCH   4  26
ATOM     26  C6  MOL d         -15.627   5.317  45.506  0.00  0.00     0.083 C 
ATOM     27  C4  MOL d         -14.456   4.547  46.125  0.00  0.00     0.032 C 
ATOM     28  C13 MOL d         -15.768   5.140  43.992  0.00  0.00     0.032 C 
ENDBRANCH   4  26
BRANCH   3  29
ATOM     29  C3  MOL d         -17.793   6.896  47.030  0.00  0.00     0.288 C 
ATOM     30  N2  MOL d         -18.273   7.390  48.168  0.00  0.00    -0.350 N 
ATOM     31  H23 MOL d         -17.659   7.910  48.762  0.00  0.00     0.163 HD
ATOM     32  O2  MOL d         -18.498   6.275  46.241  0.00  0.00    -0.264 OA
BRANCH  30  33
ATOM     33  C1  MOL d         -19.654   7.206  48.585  0.00  0.00     0.161 C 
BRANCH  33  34
ATOM     34  C32 MOL d         -19.874   5.871  49.273  0.00  0.00    -0.040 A 
ATOM     35  C17 MOL d         -18.826   5.100  49.792  0.00  0.00     0.012 A 
ATOM     36  C20 MOL d         -19.094   3.876  50.415  0.00  0.00     0.043 A 
ATOM     37  C29 MOL d         -20.411   3.423  50.525  0.00  0.00     0.116 A 
ATOM     38  F2  MOL d         -20.697   2.249  51.122  0.00  0.00    -0.206 F 
ATOM     39  C23 MOL d         -21.451   4.192  50.010  0.00  0.00     0.043 A 
ATOM     40  C26 MOL d         -21.179   5.411  49.388  0.00  0.00     0.012 A 
ENDBRANCH  33  34
ENDBRANCH  30  33
ENDBRANCH   3  29
TORSDOF 14
