REMARK  9 active torsions:
REMARK  status: ('A' for Active; 'I' for Inactive)
REMARK    1  A    between atoms: PA_1  and  O3A_4 
REMARK    2  A    between atoms: PA_1  and  O5'_5 
REMARK    3  A    between atoms: O3A_4  and  PB_6 
REMARK    4  A    between atoms: O5'_5  and  C5'_10 
REMARK    5  A    between atoms: C5'_10  and  C4'_11 
REMARK    6  A    between atoms: C3'_13  and  O3'_14 
REMARK    7  A    between atoms: C2'_15  and  O2'_16 
REMARK    8  A    between atoms: C1'_17  and  N9_18 
REMARK    9  A    between atoms: C2_26  and  N2_27 
ROOT
ATOM      1  C4' M7G d          42.002   3.336  29.087  0.00  0.00     0.180 C 
ATOM      2  O4' M7G d          42.703   2.455  28.183  0.00  0.00    -0.353 OA
ATOM      3  C3' M7G d          41.263   2.458  30.095  0.00  0.00     0.182 C 
ATOM      4  C2' M7G d          41.710   1.026  29.758  0.00  0.00     0.198 C 
ATOM      5  C1' M7G d          42.129   1.139  28.306  0.00  0.00     0.262 C 
ENDROOT
BRANCH   5   6
ATOM      6  N9  M7G d          43.171   0.191  27.902  0.00  0.00    -0.296 N 
ATOM      7  C8  M7G d          44.322  -0.071  28.745  0.00  0.00     0.190 A 
ATOM      8  N7  M7G d          45.182  -0.813  27.828  0.00  0.00    -0.340 N 
ATOM      9  CM7 M7G d          46.516  -1.309  28.264  0.00  0.00     0.157 C 
ATOM     10  C5  M7G d          44.577  -0.985  26.641  0.00  0.00     0.149 A 
ATOM     11  C6  M7G d          44.978  -1.635  25.474  0.00  0.00     0.290 A 
ATOM     12  C4  M7G d          43.322  -0.389  26.679  0.00  0.00     0.159 A 
ATOM     13  O6  M7G d          46.048  -2.212  25.282  0.00  0.00    -0.265 OA
ATOM     14  N1  M7G d          44.022  -1.583  24.444  0.00  0.00    -0.154 N 
ATOM     15  C2  M7G d          42.803  -0.961  24.578  0.00  0.00     0.680 A 
ATOM     16  H13 M7G d          44.239  -2.020  23.571  0.00  0.00     0.187 HD
ATOM     17  N3  M7G d          42.412  -0.338  25.699  0.00  0.00    -0.174 N 
ATOM     18  H16 M7G d          41.501   0.133  25.796  0.00  0.00     0.186 HD
BRANCH  15  19
ATOM     19  N2  M7G d          41.982  -0.987  23.532  0.00  0.00    -0.234 N 
ATOM     20  H14 M7G d          41.059  -0.533  23.590  0.00  0.00     0.174 HD
ATOM     21  H15 M7G d          42.269  -1.461  22.664  0.00  0.00     0.174 HD
ENDBRANCH  15  19
ENDBRANCH   5   6
BRANCH   4  22
ATOM     22  O2' M7G d          40.590   0.154  29.796  0.00  0.00    -0.388 OA
ATOM     23  H7  M7G d          39.945   0.441  29.160  0.00  0.00     0.210 HD
ENDBRANCH   4  22
BRANCH   1  24
ATOM     24  C5' M7G d          43.135   4.056  29.791  0.00  0.00     0.216 C 
BRANCH  24  25
ATOM     25  O5' M7G d          42.655   5.189  30.492  0.00  0.00    -0.287 OA
BRANCH  25  26
ATOM     26  PA  M7G d          43.258   5.518  31.931  0.00  0.00     0.418 P 
ATOM     27  O1A M7G d          44.711   5.782  31.870  0.00  0.00    -0.624 OA
ATOM     28  O2A M7G d          42.346   6.511  32.541  0.00  0.00    -0.624 OA
BRANCH  26  29
ATOM     29  O3A M7G d          43.148   4.053  32.598  0.00  0.00    -0.173 OA
BRANCH  29  30
ATOM     30  PB  M7G d          42.233   3.676  33.853  0.00  0.00     0.431 P 
ATOM     31  O1B M7G d          40.776   3.811  33.601  0.00  0.00    -0.616 OA
ATOM     32  O2B M7G d          42.748   4.648  35.006  0.00  0.00    -0.616 OA
ATOM     33  O3B M7G d          42.613   2.223  34.195  0.00  0.00    -0.616 OA
ENDBRANCH  29  30
ENDBRANCH  26  29
ENDBRANCH  25  26
ENDBRANCH  24  25
ENDBRANCH   1  24
BRANCH   3  34
ATOM     34  O3' M7G d          39.849   2.620  29.887  0.00  0.00    -0.390 OA
ATOM     35  H5  M7G d          39.628   2.356  29.002  0.00  0.00     0.210 HD
ENDBRANCH   3  34
TORSDOF 9
