REMARK  10 active torsions:
REMARK  status: ('A' for Active; 'I' for Inactive)
REMARK    1  A    between atoms: CA_3  and  C_1 
REMARK    2  A    between atoms: CA_3  and  N_2 
REMARK    3  A    between atoms: CB_4  and  CA_3 
REMARK    4  A    between atoms: CG_7  and  CB_4 
REMARK    5  A    between atoms: NE_6  and  CD_5 
REMARK    6  A    between atoms: CD_5  and  CG_7 
REMARK    7  A    between atoms: CZ_8  and  NE_6 
REMARK    8  A    between atoms: CH1_11  and  CZ_8 
REMARK    9  A    between atoms: CT1_15  and  CH1_11 
REMARK   10  A    between atoms: CI1_13  and  CT1_15 
ROOT
ATOM      1  CD  LN6 d          -1.501  -2.358  18.797  0.00  0.00     0.121 C 
ENDROOT
BRANCH   1   2
ATOM      2  NE  LN6 d          -1.753  -3.724  18.314  0.00  0.00    -0.380 N 
ATOM      3  H9  LN6 d          -1.173  -4.499  18.666  0.00  0.00     0.160 HD
BRANCH   2   4
ATOM      4  CZ  LN6 d          -2.715  -3.978  17.431  0.00  0.00     0.070 C 
ATOM      5  NH2 LN6 d          -3.445  -2.986  16.928  0.00  0.00    -0.389 N 
ATOM      6  H14 LN6 d          -4.189  -3.189  16.245  0.00  0.00     0.157 HD
ATOM      7  H15 LN6 d          -3.267  -2.015  17.222  0.00  0.00     0.157 HD
BRANCH   4   8
ATOM      8  CH1 LN6 d          -2.947  -5.412  16.951  0.00  0.00     0.075 C 
BRANCH   8   9
ATOM      9  CT1 LN6 d          -1.749  -5.928  16.151  0.00  0.00     0.007 C 
BRANCH   9  10
ATOM     10  CI1 LN6 d          -1.529  -5.088  14.891  0.00  0.00    -0.004 C 
ATOM     11  CK1 LN6 d          -0.349  -5.620  14.074  0.00  0.00     0.005 C 
ENDBRANCH   9  10
ENDBRANCH   8   9
ENDBRANCH   4   8
ENDBRANCH   2   4
ENDBRANCH   1   2
BRANCH   1  12
ATOM     12  CG  LN6 d          -2.641  -1.853  19.685  0.00  0.00     0.022 C 
BRANCH  12  13
ATOM     13  CB  LN6 d          -2.606  -2.513  21.065  0.00  0.00     0.045 C 
BRANCH  13  14
ATOM     14  CA  LN6 d          -3.589  -1.846  22.030  0.00  0.00     0.283 C 
BRANCH  14  15
ATOM     15  C   LN6 d          -5.029  -2.170  21.625  0.00  0.00     0.204 C 
ATOM     16  OA1 LN6 d          -5.461  -1.651  20.573  0.00  0.00    -0.646 OA
ATOM     17  OA2 LN6 d          -5.671  -2.927  22.384  0.00  0.00    -0.646 OA
ENDBRANCH  14  15
BRANCH  14  18
ATOM     18  N   LN6 d          -3.351  -2.342  23.393  0.00  0.00    -0.065 N 
ATOM     19  H1  LN6 d          -2.404  -2.132  23.666  0.00  0.00     0.275 HD
ATOM     20  H2  LN6 d          -3.494  -3.340  23.417  0.00  0.00     0.275 HD
ATOM     21  H3  LN6 d          -3.992  -1.895  24.030  0.00  0.00     0.275 HD
ENDBRANCH  14  18
ENDBRANCH  13  14
ENDBRANCH  12  13
ENDBRANCH   1  12
TORSDOF 10
