REMARK  2 active torsions:
REMARK  status: ('A' for Active; 'I' for Inactive)
REMARK    1  A    between atoms: C8_6  and  C11_8 
REMARK    2  A    between atoms: C11_8  and  N12_9 
ROOT
ATOM      1  F1  JLZ d          26.900  14.845  19.101  0.00  0.00    -0.206 F 
ATOM      2  C2  JLZ d          27.835  14.452  18.238  0.00  0.00     0.123 A 
ATOM      3  C3  JLZ d          28.580  13.302  18.500  0.00  0.00    -0.023 A 
ATOM      4  C4  JLZ d          29.555  12.902  17.586  0.00  0.00     0.011 A 
ATOM      5  C6  JLZ d          29.792  13.637  16.425  0.00  0.00     0.016 A 
ATOM      6  C8  JLZ d          29.049  14.788  16.160  0.00  0.00     0.010 A 
ATOM      7  C9  JLZ d          28.069  15.190  17.077  0.00  0.00     0.058 A 
ATOM      8  C17 JLZ d          28.314  12.501  19.778  0.00  0.00     0.051 C 
ENDROOT
BRANCH   6   9
ATOM      9  C11 JLZ d          29.335  15.559  14.889  0.00  0.00     0.102 C 
ATOM     10  N14 JLZ d          29.955  14.993  13.885  0.00  0.00    -0.385 N 
ATOM     11  H6  JLZ d          30.251  14.009  13.951  0.00  0.00     0.157 HD
ATOM     12  H7  JLZ d          30.147  15.532  13.028  0.00  0.00     0.157 HD
BRANCH   9  13
ATOM     13  N12 JLZ d          28.945  16.772  14.865  0.00  0.00    -0.385 N 
ATOM     14  H4  JLZ d          29.110  17.350  14.028  0.00  0.00     0.157 HD
ATOM     15  H5  JLZ d          28.465  17.175  15.682  0.00  0.00     0.157 HD
ENDBRANCH   9  13
ENDBRANCH   6   9
TORSDOF 2
