REMARK  8 active torsions:
REMARK  status: ('A' for Active; 'I' for Inactive)
REMARK    1  A    between atoms: C6_6  and  C5_5 
REMARK    2  A    between atoms: C7_7  and  C6_6 
REMARK    3  A    between atoms: C24_24  and  C7_7 
REMARK    4  A    between atoms: C10_10  and  N11_11 
REMARK    5  A    between atoms: C17_17  and  N18_18 
REMARK    6  A    between atoms: C20_20  and  O21_21 
REMARK    7  A    between atoms: C25_25  and  O26_26 
REMARK    8  A    between atoms: C27_28  and  O28_29 
ROOT
ATOM      1  C1  MOL d         102.106  16.450  22.166  0.00  0.00     0.063 A 
ATOM      2  C2  MOL d         103.094  16.839  21.257  0.00  0.00     0.054 A 
ATOM      3  C3  MOL d         102.706  16.871  19.922  0.00  0.00     0.104 A 
ATOM      4  C4  MOL d         101.435  16.541  19.481  0.00  0.00     0.087 A 
ATOM      5  C5  MOL d         100.442  16.128  20.398  0.00  0.00    -0.000 A 
ATOM      6  C8  MOL d         100.803  16.096  21.769  0.00  0.00     0.073 A 
ATOM      7  N9  MOL d          99.846  15.699  22.724  0.00  0.00    -0.190 N 
ATOM      8  C10 MOL d         100.166  15.706  23.984  0.00  0.00     0.679 A 
ATOM      9  N12 MOL d         101.408  16.064  24.426  0.00  0.00    -0.156 N 
ATOM     10  C13 MOL d         102.434  16.437  23.602  0.00  0.00     0.272 A 
ATOM     11  O14 MOL d         103.546  16.751  24.034  0.00  0.00    -0.267 OA
ATOM     12  N15 MOL d         103.389  17.203  18.782  0.00  0.00    -0.063 NA
ATOM     13  N16 MOL d         101.348  16.686  18.117  0.00  0.00    -0.187 N 
ATOM     14  C17 MOL d         102.535  17.078  17.717  0.00  0.00     0.701 A 
ATOM     15  H   MOL d          98.904  15.407  22.427  0.00  0.00     0.184 HD
ATOM     16  H   MOL d         101.577  16.053  25.412  0.00  0.00     0.187 HD
ATOM     17  H   MOL d         100.519  16.521  17.528  0.00  0.00     0.184 HD
ENDROOT
BRANCH   5  18
ATOM     18  C6  MOL d          99.046  15.810  19.919  0.00  0.00     0.046 C 
BRANCH  18  19
ATOM     19  C7  MOL d          98.805  14.384  19.448  0.00  0.00     0.039 C 
BRANCH  19  20
ATOM     20  C24 MOL d          97.344  14.254  19.024  0.00  0.00     0.156 C 
ATOM     21  O23 MOL d          97.136  15.100  17.892  0.00  0.00    -0.351 OA
ATOM     22  C20 MOL d          95.896  14.679  17.321  0.00  0.00     0.290 C 
ATOM     23  C27 MOL d          95.823  13.171  17.541  0.00  0.00     0.204 C 
ATOM     24  C25 MOL d          96.891  12.867  18.594  0.00  0.00     0.183 C 
BRANCH  22  25
ATOM     25  O21 MOL d          95.931  14.985  15.931  0.00  0.00    -0.363 OA
ATOM     26  C22 MOL d          95.489  16.311  15.665  0.00  0.00     0.204 C 
ENDBRANCH  22  25
BRANCH  23  27
ATOM     27  O28 MOL d          94.532  12.845  18.055  0.00  0.00    -0.388 OA
ATOM     28  H   MOL d          93.873  13.036  17.398  0.00  0.00     0.210 HD
ENDBRANCH  23  27
BRANCH  24  29
ATOM     29  O26 MOL d          96.345  12.237  19.751  0.00  0.00    -0.385 OA
ATOM     30  C26 MOL d          96.416  10.815  19.757  0.00  0.00     0.202 C 
ENDBRANCH  24  29
ENDBRANCH  19  20
ENDBRANCH  18  19
ENDBRANCH   5  18
BRANCH  14  31
ATOM     31  N18 MOL d         102.939  17.349  16.463  0.00  0.00    -0.229 N 
ATOM     32  C19 MOL d         101.948  17.477  15.414  0.00  0.00     0.165 C 
ATOM     33  H   MOL d         103.940  17.464  16.251  0.00  0.00     0.177 HD
ENDBRANCH  14  31
BRANCH   8  34
ATOM     34  N11 MOL d          99.280  15.343  24.935  0.00  0.00    -0.234 N 
ATOM     35  H   MOL d          99.555  15.356  25.927  0.00  0.00     0.174 HD
ATOM     36  H   MOL d          98.328  15.053  24.668  0.00  0.00     0.174 HD
ENDBRANCH   8  34
TORSDOF 8
