3f3u_ligand

Created by X-TOOL on Fri Sep 26 17:34:45 2014
 49 51  0  0  0  0  0  0  0  0999 V2000
   -5.1810   35.2550   -8.6540  C 0  0  0  2  0  3
   -6.2590   36.1180   -8.3890  C 0  0  0  2  0  3
   -6.7010   36.3220   -7.0720  C 0  0  0  2  0  3
   -6.0470   35.6660   -6.0310  C 0  0  0  2  0  3
   -4.9730   34.8050   -6.2990  C 0  0  0  2  0  3
   -4.5310   34.5940   -7.6100  C 0  0  0  1  0  3
   -3.5130   33.7850   -7.9020  N 0  0  0  2  0  3
   -3.0360   32.7990   -7.1270  C 0  0  0  1  0  3
   -3.4930   32.5360   -6.0070  O 0  0  0  1  0  1
   -1.9960   32.1470   -7.6780  N 0  0  0  2  0  3
   -1.3100   31.1030   -7.1560  C 0  0  0  1  0  3
   -1.8380   30.0230   -6.5880  C 0  0  0  2  0  3
   -0.7930   29.2670   -6.2560  C 0  0  0  1  0  3
   -0.8490   27.8950   -5.5550  C 0  0  0  1  0  4
   -1.9290   27.0950   -6.2720  C 0  0  0  4  0  4
    0.5120   27.2090   -5.6210  C 0  0  0  4  0  4
   -1.2040   28.0140   -4.0750  C 0  0  0  4  0  4
    0.3170   29.8740   -6.6260  N 0  0  0  1  0  2
    0.0160   30.9420   -7.1570  N 0  0  0  1  0  3
    0.9390   31.7760   -7.6610  C 0  0  0  1  0  3
    0.9690   33.1570   -7.3770  C 0  0  0  2  0  3
    1.9050   31.2140   -8.5200  C 0  0  0  2  0  3
    2.8970   32.0070   -9.0760  C 0  0  0  2  0  3
    2.9200   33.3710   -8.7830  C 0  0  0  2  0  3
    1.9750   33.9560   -7.9460  C 0  0  0  1  0  3
    2.0510   35.2700   -7.6990  N 0  0  0  3  0  3
   -4.8524   35.1019   -9.6756  H 0  0  0  1  0  1
   -6.7524   36.6296   -9.2075  H 0  0  0  1  0  1
   -7.5382   36.9797   -6.8682  H 0  0  0  1  0  1
   -6.3703   35.8221   -5.0082  H 0  0  0  1  0  1
   -4.4785   34.2960   -5.4796  H 0  0  0  1  0  1
   -3.0614   33.9263   -8.7830  H 0  0  0  1  0  1
   -1.6955   32.4704   -8.5753  H 0  0  0  1  0  1
   -2.8930   29.8046   -6.4292  H 0  0  0  1  0  1
   -2.0145   26.0996   -5.8116  H 0  0  0  1  0  1
   -1.6611   26.9863   -7.3333  H 0  0  0  1  0  1
   -2.8913   27.6213   -6.1888  H 0  0  0  1  0  1
    1.2572   27.8212   -5.0919  H 0  0  0  1  0  1
    0.8133   27.0924   -6.6725  H 0  0  0  1  0  1
    0.4470   26.2189   -5.1462  H 0  0  0  1  0  1
   -2.1828   28.5050   -3.9711  H 0  0  0  1  0  1
   -0.4373   28.6122   -3.5609  H 0  0  0  1  0  1
   -1.2478   27.0105   -3.6266  H 0  0  0  1  0  1
    0.2229   33.5980   -6.7258  H 0  0  0  1  0  1
    1.8720   30.1546   -8.7474  H 0  0  0  1  0  1
    3.6449   31.5731   -9.7298  H 0  0  0  1  0  1
    3.6947   33.9913   -9.2190  H 0  0  0  1  0  1
    1.3594   35.7188   -7.0816  H 0  0  0  1  0  1
    2.8011   35.8318   -8.1264  H 0  0  0  1  0  1
  1  2  4  0  0  1
  1  6  4  0  0  1
  2  3  4  0  0  1
  3  4  4  0  0  1
  4  5  4  0  0  1
  5  6  4  0  0  1
  6  7  1  0  0  2
  7  8  1  0  0  2
  8  9  2  0  0  2
  8 10  1  0  0  2
 10 11  1  0  0  2
 11 12  2  0  0  1
 11 19  1  0  0  1
 12 13  1  0  0  1
 13 14  1  0  0  2
 13 18  2  0  0  1
 14 15  1  0  0  2
 14 16  1  0  0  2
 14 17  1  0  0  2
 18 19  1  0  0  1
 19 20  1  0  0  2
 20 21  4  0  0  1
 20 22  4  0  0  1
 21 25  4  0  0  1
 22 23  4  0  0  1
 23 24  4  0  0  1
 24 25  4  0  0  1
 25 26  1  0  0  2
  1 27  1  0  0  2
  2 28  1  0  0  2
  3 29  1  0  0  2
  4 30  1  0  0  2
  5 31  1  0  0  2
  7 32  1  0  0  2
 10 33  1  0  0  2
 12 34  1  0  0  2
 15 35  1  0  0  2
 15 36  1  0  0  2
 15 37  1  0  0  2
 16 38  1  0  0  2
 16 39  1  0  0  2
 16 40  1  0  0  2
 17 41  1  0  0  2
 17 42  1  0  0  2
 17 43  1  0  0  2
 21 44  1  0  0  2
 22 45  1  0  0  2
 23 46  1  0  0  2
 24 47  1  0  0  2
 26 48  1  0  0  2
 26 49  1  0  0  2
M  END
> <MOLECULAR_FORMULA>
C20H23N5O

> <MOLECULAR_WEIGHT>
349.2

> <NUM_HB_ATOMS>
6  

> <NUM_ROTOR>
0  

> <XLOGP2>
3.00 

$$$$
