REMARK  5 active torsions:
REMARK  status: ('A' for Active; 'I' for Inactive)
REMARK    1  A    between atoms: CAX_6  and  NAS_7 
REMARK       I    between atoms: NAS_7  and  CAU_8 
REMARK       I    between atoms: CAU_8  and  NAT_10 
REMARK    2  A    between atoms: NAT_10  and  CAZ_11 
REMARK    3  A    between atoms: CAY_13  and  CBD_14 
REMARK    4  A    between atoms: NBC_19  and  CAW_20 
REMARK    5  A    between atoms: CAV_25  and  NAD_26 
ROOT
ATOM      1  CAZ MOL d          -1.310  31.103  -7.156  0.00  0.00     0.135 A 
ATOM      2  CAQ MOL d          -1.838  30.023  -6.588  0.00  0.00     0.080 A 
ATOM      3  CAY MOL d          -0.793  29.267  -6.256  0.00  0.00     0.066 A 
ATOM      4  NAR MOL d           0.317  29.874  -6.626  0.00  0.00    -0.169 NA
ATOM      5  NBC MOL d           0.016  30.942  -7.157  0.00  0.00    -0.217 N 
ENDROOT
BRANCH   1   6
ATOM      6  NAT MOL d          -1.996  32.147  -7.678  0.00  0.00    -0.293 N 
ATOM      7  CAU MOL d          -3.036  32.799  -7.127  0.00  0.00     0.326 C 
ATOM      8  NAS MOL d          -3.513  33.785  -7.902  0.00  0.00    -0.309 N 
ATOM      9  OAE MOL d          -3.493  32.536  -6.007  0.00  0.00    -0.247 OA
ATOM     10  H6  MOL d          -3.061  33.926  -8.783  0.00  0.00     0.170 HD
ATOM     11  H7  MOL d          -1.696  32.470  -8.575  0.00  0.00     0.172 HD
BRANCH   8  12
ATOM     12  CAX MOL d          -4.531  34.594  -7.610  0.00  0.00     0.036 A 
ATOM     13  CBB MOL d          -5.181  35.255  -8.654  0.00  0.00     0.029 A 
ATOM     14  CBA MOL d          -6.259  36.118  -8.389  0.00  0.00     0.002 A 
ATOM     15  CAN MOL d          -6.701  36.322  -7.072  0.00  0.00     0.000 A 
ATOM     16  CAI MOL d          -6.047  35.666  -6.031  0.00  0.00     0.002 A 
ATOM     17  CAL MOL d          -4.973  34.805  -6.299  0.00  0.00     0.029 A 
ENDBRANCH   8  12
ENDBRANCH   1   6
BRANCH   5  18
ATOM     18  CAW MOL d           0.939  31.776  -7.661  0.00  0.00     0.062 A 
ATOM     19  CAP MOL d           0.969  33.157  -7.377  0.00  0.00     0.060 A 
ATOM     20  CAV MOL d           1.975  33.956  -7.946  0.00  0.00     0.027 A 
ATOM     21  CAJ MOL d           2.920  33.371  -8.783  0.00  0.00     0.029 A 
ATOM     22  CAH MOL d           2.897  32.007  -9.076  0.00  0.00     0.005 A 
ATOM     23  CAK MOL d           1.905  31.214  -8.520  0.00  0.00     0.032 A 
BRANCH  20  24
ATOM     24  NAD MOL d           2.051  35.270  -7.699  0.00  0.00    -0.399 N 
ATOM     25  H22 MOL d           1.359  35.719  -7.082  0.00  0.00     0.156 HD
ATOM     26  H23 MOL d           2.801  35.832  -8.126  0.00  0.00     0.156 HD
ENDBRANCH  20  24
ENDBRANCH   5  18
BRANCH   3  27
ATOM     27  CBD MOL d          -0.849  27.895  -5.555  0.00  0.00    -0.005 C 
ATOM     28  CAB MOL d          -1.929  27.095  -6.272  0.00  0.00     0.021 C 
ATOM     29  CAC MOL d           0.512  27.209  -5.621  0.00  0.00     0.021 C 
ATOM     30  CAA MOL d          -1.204  28.014  -4.075  0.00  0.00     0.021 C 
ENDBRANCH   3  27
TORSDOF 5
