REMARK  11 active torsions:
REMARK  status: ('A' for Active; 'I' for Inactive)
REMARK    1  A    between atoms: C2_2  and  NA2_3 
REMARK    2  A    between atoms: C4_5  and  NA4_6 
REMARK    3  A    between atoms: C9_13  and  C6_9 
REMARK    4  A    between atoms: N10_14  and  C9_13 
REMARK    5  A    between atoms: C14_19  and  N10_14 
REMARK    6  A    between atoms: C11_16  and  C_22 
REMARK    7  A    between atoms: N_24  and  CA_25 
REMARK    8  A    between atoms: CA_25  and  CT_26 
REMARK    9  A    between atoms: CA_25  and  CB_29 
REMARK   10  A    between atoms: CB_29  and  CG_30 
REMARK   11  A    between atoms: CG_30  and  CD_31 
ROOT
ATOM      1  C11 MTX d          39.915 -43.269  -8.988  0.00  0.00     0.018 A 
ATOM      2  C12 MTX d          38.677 -43.896  -9.129  0.00  0.00     0.018 A 
ATOM      3  C13 MTX d          37.487 -43.079  -9.253  0.00  0.00     0.030 A 
ATOM      4  C14 MTX d          37.668 -41.715  -9.207  0.00  0.00     0.030 A 
ATOM      5  C15 MTX d          38.887 -41.074  -9.159  0.00  0.00     0.030 A 
ATOM      6  C16 MTX d          40.070 -41.874  -9.001  0.00  0.00     0.018 A 
ENDROOT
BRANCH   4   7
ATOM      7  N10 MTX d          36.479 -40.906  -9.352  0.00  0.00    -0.379 N 
ATOM      8  CM  MTX d          36.565 -39.470  -9.284  0.00  0.00     0.150 C 
BRANCH   7   9
ATOM      9  C9  MTX d          35.191 -41.371  -9.669  0.00  0.00     0.183 C 
BRANCH   9  10
ATOM     10  C6  MTX d          34.196 -41.203  -8.568  0.00  0.00     0.070 A 
ATOM     11  N5  MTX d          32.876 -41.123  -8.968  0.00  0.00    -0.242 NA
ATOM     12  C4A MTX d          31.893 -41.071  -7.959  0.00  0.00     0.151 A 
ATOM     13  C4  MTX d          30.548 -41.039  -8.276  0.00  0.00     0.173 A 
ATOM     14  C8A MTX d          32.229 -41.031  -6.608  0.00  0.00     0.201 A 
ATOM     15  N3  MTX d          29.587 -41.085  -7.348  0.00  0.00    -0.043 NA
ATOM     16  C2  MTX d          29.940 -41.030  -6.021  0.00  0.00     0.724 A 
ATOM     17  N1  MTX d          31.249 -41.008  -5.650  0.00  0.00    -0.041 NA
ATOM     18  N8  MTX d          33.536 -41.023  -6.165  0.00  0.00    -0.237 NA
ATOM     19  C7  MTX d          34.503 -41.146  -7.180  0.00  0.00     0.148 A 
BRANCH  13  20
ATOM     20  NA4 MTX d          30.147 -41.023  -9.614  0.00  0.00    -0.381 N 
ATOM     21  H3  MTX d          30.853 -40.988 -10.363  0.00  0.00     0.157 HD
ATOM     22  H4  MTX d          29.145 -41.046  -9.852  0.00  0.00     0.157 HD
ENDBRANCH  13  20
BRANCH  16  23
ATOM     23  NA2 MTX d          29.088 -41.069  -5.058  0.00  0.00    -0.231 N 
ATOM     24  H1  MTX d          29.412 -41.024  -4.081  0.00  0.00     0.174 HD
ATOM     25  H2  MTX d          28.082 -41.145  -5.263  0.00  0.00     0.174 HD
ENDBRANCH  16  23
ENDBRANCH   9  10
ENDBRANCH   7   9
ENDBRANCH   4   7
BRANCH   1  26
ATOM     26  C   MTX d          41.187 -44.114  -8.837  0.00  0.00     0.185 C 
ATOM     27  O   MTX d          42.336 -43.415  -9.086  0.00  0.00    -0.172 OA
ATOM     28  N   MTX d          41.101 -45.349  -8.410  0.00  0.00    -0.353 N 
ATOM     29  H15 MTX d          40.213 -45.683  -8.094  0.00  0.00     0.162 HD
BRANCH  28  30
ATOM     30  CA  MTX d          42.251 -46.271  -8.373  0.00  0.00     0.185 C 
BRANCH  30  31
ATOM     31  CT  MTX d          41.848 -47.565  -8.987  0.00  0.00     0.196 C 
ATOM     32  O1  MTX d          42.752 -48.319  -9.368  0.00  0.00    -0.646 OA
ATOM     33  O2  MTX d          40.643 -47.900  -9.186  0.00  0.00    -0.646 OA
ENDBRANCH  30  31
BRANCH  30  34
ATOM     34  CB  MTX d          42.770 -46.601  -6.971  0.00  0.00     0.046 C 
BRANCH  34  35
ATOM     35  CG  MTX d          43.208 -45.377  -6.252  0.00  0.00     0.116 C 
BRANCH  35  36
ATOM     36  CD  MTX d          41.937 -44.876  -5.532  0.00  0.00     0.172 C 
ATOM     37  OE1 MTX d          41.148 -45.670  -4.864  0.00  0.00    -0.648 OA
ATOM     38  OE2 MTX d          41.709 -43.645  -5.612  0.00  0.00    -0.648 OA
ENDBRANCH  35  36
ENDBRANCH  34  35
ENDBRANCH  30  34
ENDBRANCH  28  30
ENDBRANCH   1  26
TORSDOF 11
