REMARK  2 active torsions:
REMARK  status: ('A' for Active; 'I' for Inactive)
REMARK    1  A    between atoms: C1_1  and  O7_7 
REMARK    2  A    between atoms: C2_2  and  O8_8 
ROOT
ATOM      1  C1  MOL d           2.956  -2.518  18.561  0.00  0.00     0.100 A 
ATOM      2  C2  MOL d           3.930  -1.886  19.274  0.00  0.00     0.100 A 
ATOM      3  C3  MOL d           3.651  -1.086  20.383  0.00  0.00     0.065 A 
ATOM      4  C4  MOL d           2.320  -1.030  20.751  0.00  0.00     0.058 A 
ATOM      5  C5  MOL d           1.326  -1.660  20.004  0.00  0.00     0.058 A 
ATOM      6  C6  MOL d           1.623  -2.431  18.911  0.00  0.00     0.065 A 
ATOM      7 CL9  MOL d           1.966  -0.030  22.145  0.00  0.00    -0.082 Cl
ATOM      8 CL10 MOL d          -0.407  -1.560  20.444  0.00  0.00    -0.082 Cl
ENDROOT
BRANCH   1   9
ATOM      9  O7  MOL d           3.278  -3.243  17.474  0.00  0.00    -0.358 OA
ATOM     10  H3  MOL d           4.219  -3.220  17.347  0.00  0.00     0.217 HD
ENDBRANCH   1   9
BRANCH   2  11
ATOM     11  O8  MOL d           5.182  -2.039  18.819  0.00  0.00    -0.358 OA
ATOM     12  H4  MOL d           5.175  -2.615  18.063  0.00  0.00     0.217 HD
ENDBRANCH   2  11
TORSDOF 2
