REMARK  7 active torsions:
REMARK  status: ('A' for Active; 'I' for Inactive)
REMARK    1  A    between atoms: P_1  and  O5'_5 
REMARK    2  A    between atoms: O5'_5  and  C5'_6 
REMARK    3  A    between atoms: C5'_6  and  C4'_7 
REMARK    4  A    between atoms: C3'_9  and  O3'_10 
REMARK    5  A    between atoms: C2'_11  and  O2'_12 
REMARK    6  A    between atoms: C1'_13  and  N9_14 
REMARK    7  A    between atoms: C2_21  and  N2_22 
ROOT
ATOM      1  C4' MOL d          61.894 105.201 116.446  0.00  0.00     0.180 C 
ATOM      2  O4' MOL d          60.616 104.495 116.629  0.00  0.00    -0.353 OA
ATOM      3  C3' MOL d          62.589 104.396 115.367  0.00  0.00     0.182 C 
ATOM      4  C2' MOL d          62.271 102.966 115.781  0.00  0.00     0.198 C 
ATOM      5  C1' MOL d          60.824 103.111 116.257  0.00  0.00     0.262 C 
ENDROOT
BRANCH   5   6
ATOM      6  N9  MOL d          59.755 102.717 115.319  0.00  0.00    -0.293 N 
ATOM      7  C8  MOL d          58.986 103.493 114.496  0.00  0.00     0.214 A 
ATOM      8  N7  MOL d          58.082 102.847 113.810  0.00  0.00    -0.234 NA
ATOM      9  C5  MOL d          58.241 101.522 114.280  0.00  0.00     0.173 A 
ATOM     10  C4  MOL d          59.249 101.435 115.206  0.00  0.00     0.186 A 
ATOM     11  C6  MOL d          57.492 100.382 113.910  0.00  0.00     0.292 A 
ATOM     12  N3  MOL d          59.672 100.331 115.887  0.00  0.00    -0.044 NA
ATOM     13  C2  MOL d          58.954  99.257 115.535  0.00  0.00     0.703 A 
ATOM     14  N1  MOL d          57.923  99.250 114.621  0.00  0.00    -0.152 N 
ATOM     15  H10 MOL d          57.452  98.384 114.453  0.00  0.00     0.187 HD
ATOM     16  O6  MOL d          56.562 100.311 113.117  0.00  0.00    -0.265 OA
BRANCH  13  17
ATOM     17  N2  MOL d          59.176  98.048 116.099  0.00  0.00    -0.233 N 
ATOM     18  H11 MOL d          59.924  97.935 116.798  0.00  0.00     0.174 HD
ATOM     19  H12 MOL d          58.597  97.240 115.830  0.00  0.00     0.174 HD
ENDBRANCH  13  17
ENDBRANCH   5   6
BRANCH   4  20
ATOM     20  O2' MOL d          63.113 102.542 116.867  0.00  0.00    -0.388 OA
ATOM     21  H7  MOL d          64.007 102.456 116.558  0.00  0.00     0.210 HD
ENDBRANCH   4  20
BRANCH   1  22
ATOM     22  C5' MOL d          61.507 106.651 116.180  0.00  0.00     0.217 C 
BRANCH  22  23
ATOM     23  O5' MOL d          60.955 106.858 114.866  0.00  0.00    -0.280 OA
BRANCH  23  24
ATOM     24  P   MOL d          60.519 108.335 114.377  0.00  0.00     0.422 P 
ATOM     25  O3P MOL d          61.453 109.273 115.207  0.00  0.00    -0.617 OA
ATOM     26  O2P MOL d          60.849 108.385 112.896  0.00  0.00    -0.617 OA
ATOM     27  O1P MOL d          59.093 108.574 114.654  0.00  0.00    -0.617 OA
ENDBRANCH  23  24
ENDBRANCH  22  23
ENDBRANCH   1  22
BRANCH   3  28
ATOM     28  O3' MOL d          63.994 104.549 115.385  0.00  0.00    -0.390 OA
ATOM     29  H5  MOL d          64.319 104.379 116.261  0.00  0.00     0.210 HD
ENDBRANCH   3  28
TORSDOF 7
