REMARK  15 active torsions:
REMARK  status: ('A' for Active; 'I' for Inactive)
REMARK    1  A    between atoms: CA_1  and  C3_5 
REMARK    2  A    between atoms: CA_1  and  C_2 
REMARK    3  A    between atoms: C3_5  and  C4_6 
REMARK    4  A    between atoms: C4_6  and  C5_7 
REMARK    5  A    between atoms: C5_7  and  C6_8 
REMARK    6  A    between atoms: C6_8  and  C7_9 
REMARK    7  A    between atoms: C7_9  and  C8_10 
REMARK    8  A    between atoms: C8_10  and  C9_11 
REMARK    9  A    between atoms: C10_12  and  C11_13 
REMARK   10  A    between atoms: C11_13  and  C12_14 
REMARK   11  A    between atoms: C12_14  and  C13_15 
REMARK   12  A    between atoms: C13_15  and  C14_16 
REMARK   13  A    between atoms: C14_16  and  C15_17 
REMARK   14  A    between atoms: C15_17  and  C16_18 
REMARK   15  A    between atoms: C16_18  and  C17_19 
ROOT
ATOM      1  C8  OLA d          22.693  35.032  58.687  0.00  0.00     0.027 C 
ENDROOT
BRANCH   1   2
ATOM      2  C7  OLA d          23.537  34.531  57.514  0.00  0.00     0.004 C 
BRANCH   2   3
ATOM      3  C6  OLA d          23.569  35.534  56.400  0.00  0.00     0.000 C 
BRANCH   3   4
ATOM      4  C5  OLA d          22.341  35.602  55.561  0.00  0.00     0.000 C 
BRANCH   4   5
ATOM      5  C4  OLA d          21.803  34.275  55.060  0.00  0.00     0.001 C 
BRANCH   5   6
ATOM      6  C3  OLA d          20.600  34.503  54.125  0.00  0.00     0.010 C 
BRANCH   6   7
ATOM      7  CA  OLA d          20.002  33.266  53.577  0.00  0.00     0.113 C 
BRANCH   7   8
ATOM      8  C   OLA d          19.030  33.338  52.492  0.00  0.00     0.172 C 
ATOM      9  OXT OLA d          18.321  32.334  52.411  0.00  0.00    -0.648 OA
ATOM     10  O   OLA d          19.014  34.416  51.910  0.00  0.00    -0.648 OA
ENDBRANCH   7   8
ENDBRANCH   6   7
ENDBRANCH   5   6
ENDBRANCH   4   5
ENDBRANCH   3   4
ENDBRANCH   2   3
ENDBRANCH   1   2
BRANCH   1  11
ATOM     11  C9  OLA d          22.642  34.052  59.804  0.00  0.00    -0.031 C 
ATOM     12  C10 OLA d          21.721  34.138  60.860  0.00  0.00    -0.031 C 
BRANCH  12  13
ATOM     13  C11 OLA d          20.778  35.236  61.059  0.00  0.00     0.027 C 
BRANCH  13  14
ATOM     14  C12 OLA d          19.336  34.993  60.903  0.00  0.00     0.004 C 
BRANCH  14  15
ATOM     15  C13 OLA d          18.923  34.610  59.496  0.00  0.00     0.000 C 
BRANCH  15  16
ATOM     16  C14 OLA d          17.506  34.084  59.484  0.00  0.00     0.000 C 
BRANCH  16  17
ATOM     17  C15 OLA d          16.731  34.508  58.278  0.00  0.00     0.000 C 
BRANCH  17  18
ATOM     18  C16 OLA d          17.327  35.668  57.566  0.00  0.00    -0.000 C 
BRANCH  18  19
ATOM     19  C17 OLA d          16.304  36.426  56.732  0.00  0.00    -0.005 C 
ATOM     20  C18 OLA d          16.728  37.892  56.648  0.00  0.00     0.005 C 
ENDBRANCH  18  19
ENDBRANCH  17  18
ENDBRANCH  16  17
ENDBRANCH  15  16
ENDBRANCH  14  15
ENDBRANCH  13  14
ENDBRANCH  12  13
ENDBRANCH   1  11
TORSDOF 15
