REMARK  7 active torsions:
REMARK  status: ('A' for Active; 'I' for Inactive)
REMARK    1  A    between atoms: C15_2  and  C17_4 
REMARK    2  A    between atoms: C17_4  and  C16_5 
REMARK    3  A    between atoms: C17_4  and  N1_9 
REMARK    4  A    between atoms: C16_5  and  C14_6 
REMARK    5  A    between atoms: N1_9  and  S1_10 
REMARK    6  A    between atoms: S1_10  and  C7_13 
REMARK    7  A    between atoms: C1_18  and  C2_19 
ROOT
ATOM      1  S1  BDL d          -0.634  -5.094  -4.883  0.00  0.00     0.259 S 
ATOM      2  O1  BDL d           0.483  -5.378  -5.760  0.00  0.00    -0.201 OA
ATOM      3  O2  BDL d          -0.714  -5.923  -3.708  0.00  0.00    -0.201 OA
ENDROOT
BRANCH   1   4
ATOM      4  N1  BDL d          -0.304  -3.724  -4.058  0.00  0.00    -0.300 N 
ATOM      5  H11 BDL d           0.141  -3.919  -3.184  0.00  0.00     0.173 HD
BRANCH   4   6
ATOM      6  C17 BDL d          -0.483  -2.322  -4.256  0.00  0.00     0.194 C 
BRANCH   6   7
ATOM      7  C15 BDL d          -1.868  -1.968  -4.653  0.00  0.00     0.197 C 
ATOM      8  O4  BDL d          -2.047  -1.551  -5.762  0.00  0.00    -0.646 OA
ATOM      9  O3  BDL d          -2.871  -2.068  -3.817  0.00  0.00    -0.646 OA
ENDBRANCH   6   7
BRANCH   6  10
ATOM     10  C16 BDL d          -0.092  -1.577  -2.989  0.00  0.00     0.040 C 
BRANCH  10  11
ATOM     11  C14 BDL d           1.303  -2.045  -2.565  0.00  0.00    -0.020 C 
ATOM     12  C18 BDL d           2.379  -0.959  -2.638  0.00  0.00     0.009 C 
ATOM     13  C13 BDL d           1.274  -2.623  -1.147  0.00  0.00     0.009 C 
ENDBRANCH  10  11
ENDBRANCH   6  10
ENDBRANCH   4   6
ENDBRANCH   1   4
BRANCH   1  14
ATOM     14  C7  BDL d          -2.019  -5.346  -5.664  0.00  0.00     0.079 A 
ATOM     15  C5  BDL d          -2.079  -5.395  -7.052  0.00  0.00     0.026 A 
ATOM     16  C3  BDL d          -3.265  -5.705  -7.702  0.00  0.00     0.014 A 
ATOM     17  C1  BDL d          -4.427  -5.937  -6.969  0.00  0.00    -0.026 A 
ATOM     18  C4  BDL d          -4.356  -5.896  -5.574  0.00  0.00     0.014 A 
ATOM     19  C6  BDL d          -3.159  -5.618  -4.919  0.00  0.00     0.026 A 
BRANCH  17  20
ATOM     20  C2  BDL d          -5.691  -6.316  -7.647  0.00  0.00    -0.026 A 
ATOM     21  C9  BDL d          -6.814  -6.645  -6.880  0.00  0.00     0.012 A 
ATOM     22  C12 BDL d          -7.983  -7.045  -7.494  0.00  0.00     0.001 A 
ATOM     23  C11 BDL d          -8.028  -7.181  -8.882  0.00  0.00     0.000 A 
ATOM     24  C10 BDL d          -6.910  -6.904  -9.656  0.00  0.00     0.001 A 
ATOM     25  C8  BDL d          -5.746  -6.495  -9.029  0.00  0.00     0.012 A 
ENDBRANCH  17  20
ENDBRANCH   1  14
TORSDOF 7
