REMARK  7 active torsions:
REMARK  status: ('A' for Active; 'I' for Inactive)
REMARK    1  A    between atoms: C1_1  and  S1_12 
REMARK    2  A    between atoms: C2_2  and  O2_3 
REMARK    3  A    between atoms: C3_4  and  O3_5 
REMARK    4  A    between atoms: C4_6  and  O4_7 
REMARK    5  A    between atoms: C5_8  and  C6_10 
REMARK    6  A    between atoms: C6_10  and  O6_11 
REMARK    7  A    between atoms: S1_12  and  C1'_13 
ROOT
ATOM      1  C1  IPT d         -14.670 -27.565 -26.307  0.00  0.00     0.215 C 
ATOM      2  C2  IPT d         -13.356 -27.373 -25.542  0.00  0.00     0.188 C 
ATOM      3  C3  IPT d         -12.160 -27.251 -26.494  0.00  0.00     0.181 C 
ATOM      4  C4  IPT d         -12.182 -28.305 -27.610  0.00  0.00     0.180 C 
ATOM      5  C5  IPT d         -13.571 -28.335 -28.262  0.00  0.00     0.178 C 
ATOM      6  O5  IPT d         -14.528 -28.626 -27.249  0.00  0.00    -0.363 OA
ENDROOT
BRANCH   1   7
ATOM      7  S1  IPT d         -16.012 -27.998 -25.242  0.00  0.00    -0.131 SA
BRANCH   7   8
ATOM      8  C1' IPT d         -17.527 -27.540 -26.043  0.00  0.00     0.041 C 
ATOM      9  C2' IPT d         -17.743 -28.335 -27.333  0.00  0.00     0.021 C 
ATOM     10  C3' IPT d         -18.692 -27.751 -25.082  0.00  0.00     0.021 C 
ENDBRANCH   7   8
ENDBRANCH   1   7
BRANCH   2  11
ATOM     11  O2  IPT d         -13.458 -26.182 -24.759  0.00  0.00    -0.389 OA
ATOM     12  H3  IPT d         -12.649 -26.050 -24.279  0.00  0.00     0.210 HD
ENDBRANCH   2  11
BRANCH   3  13
ATOM     13  O3  IPT d         -10.928 -27.347 -25.759  0.00  0.00    -0.390 OA
ATOM     14  H5  IPT d         -10.889 -28.187 -25.316  0.00  0.00     0.210 HD
ENDBRANCH   3  13
BRANCH   5  15
ATOM     15  C6  IPT d         -13.779 -29.359 -29.373  0.00  0.00     0.198 C 
BRANCH  15  16
ATOM     16  O6  IPT d         -12.691 -29.354 -30.306  0.00  0.00    -0.398 OA
ATOM     17  H11 IPT d         -12.852 -30.001 -30.982  0.00  0.00     0.209 HD
ENDBRANCH  15  16
ENDBRANCH   5  15
BRANCH   4  18
ATOM     18  O4  IPT d         -11.852 -29.585 -27.051  0.00  0.00    -0.390 OA
ATOM     19  H7  IPT d         -10.986 -29.546 -26.663  0.00  0.00     0.210 HD
ENDBRANCH   4  18
TORSDOF 7
