REMARK  6 active torsions:
REMARK  status: ('A' for Active; 'I' for Inactive)
REMARK    1  A    between atoms: C2_2  and  S14_14 
REMARK    2  A    between atoms: S14_14  and  C15_15 
REMARK    3  A    between atoms: C15_15  and  C16_16 
REMARK    4  A    between atoms: C16_16  and  C18_18 
REMARK    5  A    between atoms: C20_20  and  S24_24 
REMARK    6  A    between atoms: S24_24  and  N28_28 
ROOT
ATOM      1  C15 E27 d          -4.334   3.455  10.862  0.00  0.00     0.166 C 
ENDROOT
BRANCH   1   2
ATOM      2  S14 E27 d          -2.973   3.667   9.688  0.00  0.00    -0.084 SA
BRANCH   2   3
ATOM      3  C2  E27 d          -1.932   4.912  10.397  0.00  0.00     0.168 A 
ATOM      4  N1  E27 d          -2.232   5.546  11.540  0.00  0.00    -0.333 N 
ATOM      5  C9  E27 d          -1.244   6.394  11.749  0.00  0.00     0.077 A 
ATOM      6  H1  E27 d          -3.062   5.401  12.132  0.00  0.00     0.168 HD
ATOM      7  C4  E27 d          -0.341   6.278  10.735  0.00  0.00     0.104 A 
ATOM      8  C8  E27 d          -1.037   7.295  12.775  0.00  0.00     0.022 A 
ATOM      9  N3  E27 d          -0.773   5.355   9.894  0.00  0.00    -0.221 NA
ATOM     10  C5  E27 d           0.805   7.057  10.704  0.00  0.00     0.151 A 
ATOM     11  N6  E27 d           0.993   7.925  11.702  0.00  0.00    -0.258 NA
ATOM     12  C7  E27 d           0.124   8.063  12.713  0.00  0.00     0.069 A 
ATOM     13  C10 E27 d           0.377   8.984  13.723  0.00  0.00     0.032 A 
ATOM     14  C11 E27 d          -0.522   9.132  14.774  0.00  0.00     0.002 A 
ATOM     15  C12 E27 d          -1.678   8.359  14.825  0.00  0.00     0.001 A 
ATOM     16  C13 E27 d          -1.940   7.434  13.820  0.00  0.00     0.016 A 
ENDBRANCH   2   3
ENDBRANCH   1   2
BRANCH   1  17
ATOM     17  C16 E27 d          -3.984   2.670  12.188  0.00  0.00     0.169 C 
ATOM     18  O17 E27 d          -3.128   1.723  12.240  0.00  0.00    -0.291 OA
BRANCH  17  19
ATOM     19  C18 E27 d          -4.646   2.928  13.566  0.00  0.00     0.012 A 
ATOM     20  C19 E27 d          -4.921   1.898  14.442  0.00  0.00     0.042 A 
ATOM     21  C20 E27 d          -5.523   2.127  15.630  0.00  0.00     0.101 A 
ATOM     22  C21 E27 d          -5.937   3.403  15.937  0.00  0.00     0.057 A 
ATOM     23  C22 E27 d          -5.719   4.471  15.075  0.00  0.00     0.026 A 
ATOM     24 CL26 E27 d          -6.776   3.831  17.405  0.00  0.00    -0.083 Cl
ATOM     25  C23 E27 d          -5.100   4.195  13.903  0.00  0.00     0.017 A 
BRANCH  21  26
ATOM     26  S24 E27 d          -5.946   0.802  16.741  0.00  0.00     0.258 S 
ATOM     27  O25 E27 d          -7.433   0.774  16.738  0.00  0.00    -0.201 OA
ATOM     28  O27 E27 d          -5.310   1.107  18.023  0.00  0.00    -0.201 OA
BRANCH  26  29
ATOM     29  N28 E27 d          -5.374  -0.555  16.047  0.00  0.00    -0.324 N 
ATOM     30  H12 E27 d          -5.498  -1.438  16.499  0.00  0.00     0.169 HD
ATOM     31  H13 E27 d          -4.899  -0.505  15.168  0.00  0.00     0.169 HD
ENDBRANCH  26  29
ENDBRANCH  21  26
ENDBRANCH  17  19
ENDBRANCH   1  17
TORSDOF 6
