REMARK  15 active torsions:
REMARK  status: ('A' for Active; 'I' for Inactive)
REMARK    1  A    between atoms: N_1  and  CA_2 
REMARK    2  A    between atoms: CA_2  and  C_3 
REMARK    3  A    between atoms: CA_2  and  CB_5 
REMARK       I    between atoms: C_3  and  N_12 
REMARK    4  A    between atoms: CB_5  and  CG_6 
REMARK    5  A    between atoms: CG_6  and  CD_7 
REMARK    6  A    between atoms: CD_7  and  NE_8 
REMARK       I    between atoms: NE_8  and  CZ_9 
REMARK       I    between atoms: CZ_9  and  NH1_10 
REMARK    7  A    between atoms: N_12  and  CA_13 
REMARK    8  A    between atoms: CA_13  and  C_14 
REMARK    9  A    between atoms: CA_13  and  CB_16 
REMARK       I    between atoms: C_14  and  N_21 
REMARK   10  A    between atoms: CB_16  and  CG_17 
REMARK   11  A    between atoms: CG_17  and  CD_18 
REMARK   12  A    between atoms: N_21  and  CA_22 
REMARK   13  A    between atoms: CA_22  and  C_23 
REMARK       I    between atoms: C_23  and  N_26 
REMARK   14  A    between atoms: N_26  and  CA_27 
REMARK   15  A    between atoms: CA_27  and  C_28 
ROOT
ATOM      1  C   ARG d         -41.125  11.681  -6.619  0.00  0.00     0.248 C 
ATOM      2  O   ARG d         -40.472  10.665  -6.406  0.00  0.00    -0.271 OA
ATOM      3  N   ARG d         -42.184  11.701  -7.419  0.00  0.00    -0.346 N 
ATOM      4  H16 ARG d         -42.768  12.513  -7.436  0.00  0.00     0.163 HD
ENDROOT
BRANCH   3   5
ATOM      5  CA  ARG d         -42.514  10.573  -8.269  0.00  0.00     0.177 C 
BRANCH   5   6
ATOM      6  C   ARG d         -43.145  11.108  -9.536  0.00  0.00     0.241 C 
ATOM      7  O   ARG d         -44.139  11.843  -9.493  0.00  0.00    -0.271 OA
ATOM      8  N   ARG d         -42.559  10.734 -10.662  0.00  0.00    -0.346 N 
ATOM      9  H22 ARG d         -41.725  10.183 -10.622  0.00  0.00     0.163 HD
BRANCH   8  10
ATOM     10  CA  ARG d         -43.105  11.109 -11.955  0.00  0.00     0.172 C 
ATOM     11  CB  ARG d         -42.307  12.273 -12.552  0.00  0.00     0.042 C 
BRANCH  10  12
ATOM     12  C   ARG d         -43.068   9.899 -12.864  0.00  0.00     0.240 C 
ATOM     13  O   ARG d         -42.027   9.595 -13.448  0.00  0.00    -0.271 OA
ATOM     14  N   ARG d         -44.199   9.199 -12.952  0.00  0.00    -0.345 N 
ATOM     15  H27 ARG d         -44.985   9.492 -12.408  0.00  0.00     0.163 HD
BRANCH  14  16
ATOM     16  CA  ARG d         -44.343   8.019 -13.810  0.00  0.00     0.181 C 
ATOM     17  CB  ARG d         -45.735   7.410 -13.653  0.00  0.00     0.043 C 
BRANCH  16  18
ATOM     18  C   ARG d         -44.073   8.340 -15.278  0.00  0.00     0.196 C 
ATOM     19  O   ARG d         -44.468   9.386 -15.796  0.00  0.00    -0.646 OA
ATOM     20  OXT ARG d         -43.446   7.553 -15.984  0.00  0.00    -0.646 OA
ENDBRANCH  16  18
ENDBRANCH  14  16
ENDBRANCH  10  12
ENDBRANCH   8  10
ENDBRANCH   5   6
BRANCH   5  21
ATOM     21  CB  ARG d         -43.469   9.595  -7.578  0.00  0.00     0.045 C 
BRANCH  21  22
ATOM     22  CG  ARG d         -43.494   8.196  -8.222  0.00  0.00     0.116 C 
BRANCH  22  23
ATOM     23  CD  ARG d         -44.397   8.094  -9.453  0.00  0.00     0.172 C 
ATOM     24  OE1 ARG d         -45.474   8.721  -9.462  0.00  0.00    -0.648 OA
ATOM     25  OE2 ARG d         -44.038   7.368 -10.408  0.00  0.00    -0.648 OA
ENDBRANCH  22  23
ENDBRANCH  21  22
ENDBRANCH   5  21
ENDBRANCH   3   5
BRANCH   1  26
ATOM     26  CA  ARG d         -40.761  13.004  -5.963  0.00  0.00     0.274 C 
BRANCH  26  27
ATOM     27  N   ARG d         -39.844  12.810  -4.797  0.00  0.00    -0.067 N 
ATOM     28  H1  ARG d         -39.625  13.705  -4.389  0.00  0.00     0.275 HD
ATOM     29  H2  ARG d         -38.994  12.366  -5.108  0.00  0.00     0.275 HD
ATOM     30  H3  ARG d         -40.295  12.228  -4.108  0.00  0.00     0.275 HD
ENDBRANCH  26  27
BRANCH  26  31
ATOM     31  CB  ARG d         -40.121  13.913  -7.020  0.00  0.00     0.044 C 
BRANCH  31  32
ATOM     32  CG  ARG d         -39.646  15.252  -6.520  0.00  0.00     0.023 C 
BRANCH  32  33
ATOM     33  CD  ARG d         -40.796  16.191  -6.136  0.00  0.00     0.138 C 
BRANCH  33  34
ATOM     34  NE  ARG d         -40.322  17.575  -6.082  0.00  0.00    -0.227 N 
ATOM     35  CZ  ARG d         -39.524  18.062  -5.135  0.00  0.00     0.665 C 
ATOM     36  NH1 ARG d         -39.144  19.333  -5.180  0.00  0.00    -0.235 N 
ATOM     37  NH2 ARG d         -39.109  17.289  -4.134  0.00  0.00    -0.235 N 
ATOM     38  H12 ARG d         -38.526  19.712  -4.448  0.00  0.00     0.174 HD
ATOM     39  H13 ARG d         -39.467  19.940  -5.947  0.00  0.00     0.174 HD
ATOM     40  H14 ARG d         -39.399  16.302  -4.091  0.00  0.00     0.174 HD
ATOM     41  H15 ARG d         -38.498  17.678  -3.402  0.00  0.00     0.174 HD
ATOM     42  H11 ARG d         -40.627  18.216  -6.828  0.00  0.00     0.177 HD
ENDBRANCH  33  34
ENDBRANCH  32  33
ENDBRANCH  31  32
ENDBRANCH  26  31
ENDBRANCH   1  26
TORSDOF 15
