REMARK  5 active torsions:
REMARK  status: ('A' for Active; 'I' for Inactive)
REMARK    1  A    between atoms: PAN_2  and  OAJ_3 
REMARK    2  A    between atoms: PAN_2  and  OAK_6 
REMARK    3  A    between atoms: OAK_6  and  CAM_7 
REMARK    4  A    between atoms: CAM_7  and  CAG_9 
REMARK    5  A    between atoms: CAG_9  and  CAL_10 
REMARK       I    between atoms: CAL_10  and  NAH_12 
ROOT
ATOM      1  CAM MVH d          -6.062  15.289   2.899  0.00  0.00     0.139 C 
ATOM      2  CAD MVH d          -6.513  13.894   3.375  0.00  0.00     0.040 C 
ENDROOT
BRANCH   1   3
ATOM      3  OAK MVH d          -5.501  15.942   4.022  0.00  0.00    -0.284 OA
BRANCH   3   4
ATOM      4  PAN MVH d          -3.950  16.045   4.251  0.00  0.00     0.408 P 
ATOM      5  OAI MVH d          -4.305  14.532   4.626  0.00  0.00    -0.624 OA
ATOM      6  OAF MVH d          -3.968  16.493   2.817  0.00  0.00    -0.624 OA
BRANCH   4   7
ATOM      7  OAJ MVH d          -4.497  17.165   5.378  0.00  0.00    -0.295 OA
ATOM      8  CAC MVH d          -3.614  17.626   6.384  0.00  0.00     0.216 C 
ENDBRANCH   4   7
ENDBRANCH   3   4
ENDBRANCH   1   3
BRANCH   1   9
ATOM      9  CAG MVH d          -7.260  16.159   2.470  0.00  0.00     0.135 C 
BRANCH   9  10
ATOM     10  CAL MVH d          -7.828  15.893   1.065  0.00  0.00     0.219 C 
ATOM     11  OAE MVH d          -7.564  14.848   0.509  0.00  0.00    -0.274 OA
ATOM     12  NAH MVH d          -8.628  16.876   0.555  0.00  0.00    -0.365 N 
ATOM     13  CAA MVH d          -9.256  16.768  -0.759  0.00  0.00     0.149 C 
ATOM     14  H   MVH d          -8.789  17.698   1.101  0.00  0.00     0.161 HD
ENDBRANCH   9  10
ENDBRANCH   1   9
TORSDOF 5
