REMARK  2 active torsions:
REMARK  status: ('A' for Active; 'I' for Inactive)
REMARK    1  A    between atoms: C1_1  and  C_7 
REMARK    2  A    between atoms: C_7  and  N1_8 
ROOT
ATOM      1  C   BEN d          -3.825  10.462  19.531  0.00  0.00     0.102 C 
ATOM      2  N2  BEN d          -3.069  11.513  19.249  0.00  0.00    -0.385 N 
ATOM      3  H8  BEN d          -2.053  11.399  19.129  0.00  0.00     0.157 HD
ATOM      4  H9  BEN d          -3.498  12.444  19.150  0.00  0.00     0.157 HD
ENDROOT
BRANCH   1   5
ATOM      5  C1  BEN d          -3.181   9.069  19.677  0.00  0.00     0.007 A 
ATOM      6  C2  BEN d          -1.799   8.830  19.245  0.00  0.00     0.015 A 
ATOM      7  C3  BEN d          -1.197   7.513  19.384  0.00  0.00     0.001 A 
ATOM      8  C4  BEN d          -1.966   6.419  19.958  0.00  0.00     0.000 A 
ATOM      9  C5  BEN d          -3.329   6.641  20.388  0.00  0.00     0.001 A 
ATOM     10  C6  BEN d          -3.937   7.957  20.251  0.00  0.00     0.015 A 
ENDBRANCH   1   5
BRANCH   1  11
ATOM     11  N1  BEN d          -5.129  10.593  19.688  0.00  0.00    -0.385 N 
ATOM     12  H6  BEN d          -5.569  11.520  19.593  0.00  0.00     0.157 HD
ATOM     13  H7  BEN d          -5.707   9.769  19.906  0.00  0.00     0.157 HD
ENDBRANCH   1  11
TORSDOF 2
