REMARK  9 active torsions:
REMARK  status: ('A' for Active; 'I' for Inactive)
REMARK    1  A    between atoms: N_1  and  CA_2 
REMARK    2  A    between atoms: CA_2  and  CB_3 
REMARK    3  A    between atoms: CA_2  and  C_5 
REMARK    4  A    between atoms: CB_3  and  OG_4 
REMARK    5  A    between atoms: C3_11  and  O3_12 
REMARK    6  A    between atoms: C4_13  and  C4A_14 
REMARK    7  A    between atoms: C5_15  and  C5A_17 
REMARK    8  A    between atoms: C5A_17  and  O4P_18 
REMARK    9  A    between atoms: O4P_18  and  P_19 
ROOT
ATOM      1  N1  PLS d           9.705  13.633  30.476  0.00  0.00    -0.262 NA
ATOM      2  C2  PLS d           9.735  13.867  31.797  0.00  0.00     0.064 A 
ATOM      3  C2A PLS d          10.944  13.394  32.576  0.00  0.00     0.073 C 
ATOM      4  C3  PLS d           8.674  14.531  32.404  0.00  0.00     0.102 A 
ATOM      5  C4  PLS d           7.573  14.943  31.642  0.00  0.00     0.026 A 
ATOM      6  C5  PLS d           7.586  14.681  30.272  0.00  0.00    -0.002 A 
ATOM      7  C6  PLS d           8.677  14.028  29.716  0.00  0.00     0.127 A 
ENDROOT
BRANCH   5   8
ATOM      8  C4A PLS d           6.396  15.640  32.236  0.00  0.00     0.126 C 
ATOM      9  N   PLS d           6.316  15.923  33.468  0.00  0.00    -0.282 NA
BRANCH   9  10
ATOM     10  CA  PLS d           5.182  16.549  34.157  0.00  0.00     0.231 C 
BRANCH  10  11
ATOM     11  CB  PLS d           4.216  17.267  33.211  0.00  0.00     0.202 C 
BRANCH  11  12
ATOM     12  OG  PLS d           4.856  18.371  32.565  0.00  0.00    -0.398 OA
ATOM     13  H4  PLS d           5.598  18.056  32.062  0.00  0.00     0.209 HD
ENDBRANCH  11  12
ENDBRANCH  10  11
BRANCH  10  14
ATOM     14  C   PLS d           4.412  15.470  34.900  0.00  0.00     0.201 C 
ATOM     15  O   PLS d           4.693  14.255  34.773  0.00  0.00    -0.646 OA
ATOM     16  OXT PLS d           3.502  15.812  35.690  0.00  0.00    -0.646 OA
ENDBRANCH  10  14
ENDBRANCH   9  10
ENDBRANCH   5   8
BRANCH   4  17
ATOM     17  O3  PLS d           8.725  14.753  33.748  0.00  0.00    -0.358 OA
ATOM     18  H8  PLS d           7.940  15.212  34.022  0.00  0.00     0.217 HD
ENDBRANCH   4  17
BRANCH   6  19
ATOM     19  C5A PLS d           6.452  15.080  29.357  0.00  0.00     0.223 C 
BRANCH  19  20
ATOM     20  O4P PLS d           6.574  16.460  28.997  0.00  0.00    -0.278 OA
BRANCH  20  21
ATOM     21  P   PLS d           5.277  17.416  28.825  0.00  0.00     0.422 P 
ATOM     22  O1P PLS d           4.704  17.574  30.202  0.00  0.00    -0.617 OA
ATOM     23  O2P PLS d           4.387  16.687  27.856  0.00  0.00    -0.617 OA
ATOM     24  O3P PLS d           5.879  18.690  28.317  0.00  0.00    -0.617 OA
ENDBRANCH  20  21
ENDBRANCH  19  20
ENDBRANCH   6  19
TORSDOF 9
