REMARK  5 active torsions:
REMARK  status: ('A' for Active; 'I' for Inactive)
REMARK    1  A    between atoms: C11_6  and  C28_33 
REMARK    2  A    between atoms: C8_9  and  N2_10 
REMARK    3  A    between atoms: C14_15  and  N3_16 
REMARK    4  A    between atoms: N3_16  and  S1_17 
REMARK    5  A    between atoms: S1_17  and  C15_21 
ROOT
ATOM      1  N2  MOL d           6.310   4.886  21.657  0.00  0.00    -0.313 N 
ATOM      2  C25 MOL d           6.827   5.966  22.280  0.00  0.00     0.247 C 
ATOM      3  O3  MOL d           7.951   6.430  22.089  0.00  0.00    -0.271 OA
ATOM      4  C12 MOL d           4.993   4.517  22.191  0.00  0.00     0.135 C 
ATOM      5  C13 MOL d           4.521   5.762  22.924  0.00  0.00     0.056 C 
ATOM      6  C14 MOL d           5.800   6.506  23.278  0.00  0.00     0.187 C 
ENDROOT
BRANCH   6   7
ATOM      7  N3  MOL d           5.652   7.946  23.233  0.00  0.00    -0.301 N 
ATOM      8  H13 MOL d           5.254   8.373  22.421  0.00  0.00     0.173 HD
BRANCH   7   9
ATOM      9  S1  MOL d           6.115   8.868  24.461  0.00  0.00     0.259 S 
ATOM     10  O2  MOL d           5.417   8.492  25.645  0.00  0.00    -0.201 OA
ATOM     11  O1  MOL d           5.919  10.166  23.900  0.00  0.00    -0.201 OA
BRANCH   9  12
ATOM     12  C15 MOL d           7.852   8.621  24.741  0.00  0.00     0.080 A 
ATOM     13  C24 MOL d           8.279   7.923  25.843  0.00  0.00     0.037 A 
ATOM     14  C23 MOL d           9.666   7.725  26.073  0.00  0.00    -0.024 A 
ATOM     15  C18 MOL d          10.581   8.253  25.133  0.00  0.00    -0.024 A 
ATOM     16  C22 MOL d          10.148   7.025  27.210  0.00  0.00     0.014 A 
ATOM     17  C17 MOL d          10.114   8.966  24.003  0.00  0.00     0.014 A 
ATOM     18  C19 MOL d          11.953   8.057  25.343  0.00  0.00     0.036 A 
ATOM     19  C16 MOL d           8.765   9.144  23.810  0.00  0.00     0.026 A 
ATOM     20  C20 MOL d          12.378   7.373  26.456  0.00  0.00     0.034 A 
ATOM     21 CL1  MOL d          14.090   7.152  26.659  0.00  0.00    -0.084 Cl
ATOM     22  C21 MOL d          11.496   6.849  27.393  0.00  0.00     0.024 A 
ENDBRANCH   9  12
ENDBRANCH   7   9
ENDBRANCH   6   7
BRANCH   1  23
ATOM     23  C8  MOL d           6.998   4.159  20.629  0.00  0.00     0.076 A 
ATOM     24  C7  MOL d           7.105   2.769  20.722  0.00  0.00     0.143 A 
ATOM     25  F1  MOL d           6.558   2.128  21.764  0.00  0.00    -0.204 F 
ATOM     26  C6  MOL d           7.751   1.997  19.768  0.00  0.00     0.054 A 
ATOM     27  C11 MOL d           8.328   2.623  18.659  0.00  0.00    -0.025 A 
ATOM     28  C10 MOL d           8.241   4.019  18.551  0.00  0.00     0.012 A 
ATOM     29  C9  MOL d           7.587   4.784  19.522  0.00  0.00     0.033 A 
BRANCH  27  30
ATOM     30  C28 MOL d           9.042   1.817  17.590  0.00  0.00     0.218 C 
ATOM     31  N1  MOL d           8.105   0.976  16.830  0.00  0.00    -0.067 N 
ATOM     32  C1  MOL d           8.643  -0.377  16.714  0.00  0.00     0.233 C 
ATOM     33  H4  MOL d           7.219   0.945  17.309  0.00  0.00     0.277 HD
ATOM     34  H5  MOL d           7.976   1.366  15.909  0.00  0.00     0.277 HD
ATOM     35  C80 MOL d          10.011  -0.416  17.391  0.00  0.00     0.030 C 
ATOM     36  C70 MOL d          10.170   0.917  18.105  0.00  0.00     0.039 C 
ENDBRANCH  27  30
ENDBRANCH   1  23
TORSDOF 5
