REMARK  21 active torsions:
REMARK  status: ('A' for Active; 'I' for Inactive)
REMARK       I    between atoms: C1_1  and  N3_3 
REMARK       I    between atoms: N21_12  and  C1_1 
REMARK    1  A    between atoms: N3_3  and  C5_5 
REMARK    2  A    between atoms: C5_5  and  C6_6 
REMARK    3  A    between atoms: C22_13  and  N21_12 
REMARK    4  A    between atoms: C23_14  and  C22_13 
REMARK    5  A    between atoms: C22_13  and  C25_16 
REMARK       I    between atoms: N37_19  and  C23_14 
REMARK    6  A    between atoms: C38_20  and  N37_19 
REMARK    7  A    between atoms: C38_20  and  C39_21 
REMARK    8  A    between atoms: C46_28  and  C38_20 
REMARK    9  A    between atoms: C39_21  and  C40_22 
REMARK   10  A    between atoms: C49_31  and  C46_28 
REMARK   11  A    between atoms: C49_31  and  O47_32 
REMARK   12  A    between atoms: C49_31  and  O48_33 
REMARK   13  A    between atoms: C51_35  and  C49_31 
REMARK       I    between atoms: N50_34  and  C83_45 
REMARK   14  A    between atoms: C51_35  and  N50_34 
REMARK   15  A    between atoms: C51_35  and  C52_36 
REMARK   16  A    between atoms: C52_36  and  C53_37 
REMARK   17  A    between atoms: C82_44  and  N81_43 
REMARK       I    between atoms: N81_43  and  C97_50 
REMARK   18  A    between atoms: C83_45  and  C82_44 
REMARK   19  A    between atoms: C82_44  and  C85_47 
REMARK       I    between atoms: C97_50  and  N99_52 
REMARK   20  A    between atoms: N99_52  and  C3_54 
REMARK   21  A    between atoms: C3_54  and  C8_55 
ROOT
ATOM      1  C49 A85 d           5.351  -1.075  16.312  0.00  0.00     0.251 C 
ENDROOT
BRANCH   1   2
ATOM      2  C46 A85 d           4.831   0.073  15.435  0.00  0.00     0.320 C 
ATOM      3  F1  A85 d           4.990   1.228  16.118  0.00  0.00    -0.198 F 
ATOM      4  F2  A85 d           3.491  -0.055  15.395  0.00  0.00    -0.198 F 
BRANCH   2   5
ATOM      5  C38 A85 d           5.417   0.204  14.026  0.00  0.00     0.166 C 
BRANCH   5   6
ATOM      6  N37 A85 d           4.471   0.944  13.189  0.00  0.00    -0.348 N 
ATOM      7  C23 A85 d           3.601   0.324  12.392  0.00  0.00     0.241 C 
ATOM      8  O24 A85 d           3.653  -0.876  12.143  0.00  0.00    -0.271 OA
ATOM      9  H19 A85 d           4.478   1.944  13.216  0.00  0.00     0.163 HD
BRANCH   7  10
ATOM     10  C22 A85 d           2.526   1.255  11.840  0.00  0.00     0.181 C 
BRANCH  10  11
ATOM     11  N21 A85 d           3.042   1.938  10.659  0.00  0.00    -0.329 N 
ATOM     12  C1  A85 d           3.371   3.244  10.692  0.00  0.00     0.319 C 
ATOM     13  O2  A85 d           3.158   3.923  11.678  0.00  0.00    -0.247 OA
ATOM     14  N3  A85 d           3.936   3.788   9.588  0.00  0.00    -0.333 N 
ATOM     15  C4  A85 d           4.356   3.041   8.410  0.00  0.00     0.154 C 
ATOM     16  H10 A85 d           3.154   1.426   9.807  0.00  0.00     0.165 HD
BRANCH  14  17
ATOM     17  C5  A85 d           4.208   5.197   9.557  0.00  0.00     0.186 C 
BRANCH  17  18
ATOM     18  C6  A85 d           5.553   5.501  10.164  0.00  0.00     0.052 A 
ATOM     19  C7  A85 d           5.699   5.562  11.575  0.00  0.00     0.029 A 
ATOM     20  C9  A85 d           6.946   5.905  12.110  0.00  0.00     0.003 A 
ATOM     21  C11 A85 d           7.994   6.190  11.234  0.00  0.00     0.019 A 
ATOM     22  C10 A85 d           7.748   6.102   9.844  0.00  0.00     0.117 A 
ATOM     23  N8  A85 d           6.563   5.750   9.295  0.00  0.00    -0.264 NA
ENDBRANCH  17  18
ENDBRANCH  14  17
ENDBRANCH  10  11
BRANCH  10  24
ATOM     24  C25 A85 d           1.212   0.540  11.536  0.00  0.00     0.009 C 
ATOM     25  C26 A85 d           0.690  -0.189  12.781  0.00  0.00     0.012 C 
ATOM     26  C27 A85 d           0.127   1.502  11.010  0.00  0.00     0.012 C 
ENDBRANCH  10  24
ENDBRANCH   7  10
ENDBRANCH   5   6
BRANCH   5  27
ATOM     27  C39 A85 d           6.758   0.906  14.010  0.00  0.00     0.069 C 
BRANCH  27  28
ATOM     28  C40 A85 d           7.191   0.995  12.600  0.00  0.00    -0.056 A 
ATOM     29  C41 A85 d           6.962   2.166  11.877  0.00  0.00     0.007 A 
ATOM     30  C42 A85 d           7.318   2.226  10.529  0.00  0.00     0.001 A 
ATOM     31  C43 A85 d           7.891   1.111   9.916  0.00  0.00     0.000 A 
ATOM     32  C44 A85 d           8.126  -0.059  10.646  0.00  0.00     0.001 A 
ATOM     33  C45 A85 d           7.779  -0.117  11.986  0.00  0.00     0.007 A 
ENDBRANCH  27  28
ENDBRANCH   5  27
ENDBRANCH   2   5
ENDBRANCH   1   2
BRANCH   1  34
ATOM     34  O47 A85 d           6.728  -1.148  16.133  0.00  0.00    -0.359 OA
ATOM     35  H28 A85 d           7.119  -0.309  16.346  0.00  0.00     0.213 HD
ENDBRANCH   1  34
BRANCH   1  36
ATOM     36  O48 A85 d           5.140  -0.754  17.649  0.00  0.00    -0.359 OA
ATOM     37  H29 A85 d           5.552   0.080  17.842  0.00  0.00     0.213 HD
ENDBRANCH   1  36
BRANCH   1  38
ATOM     38  C51 A85 d           4.725  -2.442  15.974  0.00  0.00     0.157 C 
BRANCH  38  39
ATOM     39  C52 A85 d           3.338  -2.744  16.581  0.00  0.00     0.069 C 
BRANCH  39  40
ATOM     40  C53 A85 d           2.969  -4.164  16.273  0.00  0.00    -0.056 A 
ATOM     41  C54 A85 d           2.523  -4.526  14.994  0.00  0.00     0.007 A 
ATOM     42  C55 A85 d           2.246  -5.869  14.683  0.00  0.00     0.001 A 
ATOM     43  C56 A85 d           2.426  -6.858  15.646  0.00  0.00     0.000 A 
ATOM     44  C57 A85 d           2.870  -6.495  16.916  0.00  0.00     0.001 A 
ATOM     45  C58 A85 d           3.135  -5.162  17.234  0.00  0.00     0.007 A 
ENDBRANCH  39  40
ENDBRANCH  38  39
BRANCH  38  46
ATOM     46  N50 A85 d           5.672  -3.451  16.415  0.00  0.00    -0.349 N 
ATOM     47  C83 A85 d           6.508  -4.071  15.586  0.00  0.00     0.241 C 
ATOM     48  O84 A85 d           6.424  -3.960  14.381  0.00  0.00    -0.271 OA
ATOM     49  H30 A85 d           5.697  -3.691  17.386  0.00  0.00     0.163 HD
BRANCH  47  50
ATOM     50  C82 A85 d           7.601  -4.863  16.297  0.00  0.00     0.181 C 
BRANCH  50  51
ATOM     51  N81 A85 d           7.086  -6.163  16.648  0.00  0.00    -0.329 N 
ATOM     52  C97 A85 d           6.860  -6.557  17.931  0.00  0.00     0.319 C 
ATOM     53  O98 A85 d           7.185  -5.867  18.891  0.00  0.00    -0.247 OA
ATOM     54  N99 A85 d           6.294  -7.770  18.131  0.00  0.00    -0.333 N 
ATOM     55  C2  A85 d           5.869  -8.630  17.016  0.00  0.00     0.154 C 
ATOM     56  H39 A85 d           6.885  -6.808  15.911  0.00  0.00     0.165 HD
BRANCH  54  57
ATOM     57  C3  A85 d           6.061  -8.257  19.487  0.00  0.00     0.186 C 
BRANCH  57  58
ATOM     58  C8  A85 d           4.668  -7.893  19.962  0.00  0.00     0.052 A 
ATOM     59  C12 A85 d           4.429  -6.626  20.536  0.00  0.00     0.029 A 
ATOM     60  C13 A85 d           3.130  -6.316  20.958  0.00  0.00     0.003 A 
ATOM     61  C15 A85 d           2.128  -7.274  20.783  0.00  0.00     0.019 A 
ATOM     62  C14 A85 d           2.462  -8.500  20.203  0.00  0.00     0.117 A 
ATOM     63  N10 A85 d           3.696  -8.820  19.807  0.00  0.00    -0.264 NA
ENDBRANCH  57  58
ENDBRANCH  54  57
ENDBRANCH  50  51
BRANCH  50  64
ATOM     64  C85 A85 d           8.908  -4.976  15.521  0.00  0.00     0.009 C 
ATOM     65  C86 A85 d           9.812  -5.917  16.329  0.00  0.00     0.012 C 
ATOM     66  C87 A85 d           9.558  -3.593  15.278  0.00  0.00     0.012 C 
ENDBRANCH  50  64
ENDBRANCH  47  50
ENDBRANCH  38  46
ENDBRANCH   1  38
TORSDOF 21
