REMARK  1 active torsions:
REMARK  status: ('A' for Active; 'I' for Inactive)
REMARK    1  A    between atoms: C5_6  and  N10_10 
ROOT
ATOM      1  C6  MOL d           5.412  11.067  43.201  0.00  0.00     0.038 A 
ATOM      2  C7  MOL d           4.779  12.168  43.781  0.00  0.00     0.037 A 
ATOM      3  C8  MOL d           4.118  13.039  42.909  0.00  0.00     0.088 A 
ATOM      4  C9  MOL d           4.092  12.823  41.531  0.00  0.00     0.014 A 
ATOM      5  C4  MOL d           4.726  11.724  40.955  0.00  0.00     0.051 A 
ATOM      6  C5  MOL d           5.392  10.845  41.816  0.00  0.00     0.103 A 
ATOM      7  N1  MOL d           3.415  14.173  43.132  0.00  0.00    -0.175 NA
ATOM      8  N2  MOL d           2.965  14.668  41.976  0.00  0.00    -0.288 N 
ATOM      9  C3  MOL d           3.360  13.863  40.966  0.00  0.00     0.123 A 
ATOM     10  H   MOL d           2.406  15.527  41.871  0.00  0.00     0.188 HD
ENDROOT
BRANCH   6  11
ATOM     11  N10 MOL d           6.018   9.773  41.270  0.00  0.00    -0.116 N 
ATOM     12  O11 MOL d           7.217   9.574  41.477  0.00  0.00    -0.532 OA
ATOM     13  O12 MOL d           5.396   9.000  40.558  0.00  0.00    -0.532 OA
ENDBRANCH   6  11
TORSDOF 1
