REMARK  14 active torsions:
REMARK  status: ('A' for Active; 'I' for Inactive)
REMARK    1  A    between atoms: C2_3  and  O39_1 
REMARK    2  A    between atoms: S8_9  and  C5_6 
REMARK    3  A    between atoms: N11_12  and  S8_9 
REMARK    4  A    between atoms: N11_12  and  C12_13 
REMARK    5  A    between atoms: C16_20  and  N11_12 
REMARK    6  A    between atoms: C12_13  and  C13_14 
REMARK    7  A    between atoms: C17_21  and  C16_20 
REMARK    8  A    between atoms: C17_21  and  O18_22 
REMARK    9  A    between atoms: C19_23  and  C17_21 
REMARK   10  A    between atoms: C19_23  and  N20_24 
REMARK   11  A    between atoms: C32_36  and  C19_23 
REMARK       I    between atoms: N20_24  and  C21_25 
REMARK   12  A    between atoms: C21_25  and  O23_27 
REMARK   13  A    between atoms: O23_27  and  C25_29 
REMARK   14  A    between atoms: C38_42  and  C32_36 
ROOT
ATOM      1  C17 MOL d         -13.814 -18.835  17.938  0.00  0.00     0.160 C 
ENDROOT
BRANCH   1   2
ATOM      2  C16 MOL d         -12.686 -17.988  17.376  0.00  0.00     0.169 C 
BRANCH   2   3
ATOM      3  N11 MOL d         -11.412 -18.691  17.382  0.00  0.00    -0.302 N 
BRANCH   3   4
ATOM      4  S8  MOL d         -10.702 -18.953  15.923  0.00  0.00     0.261 S 
ATOM      5  O9  MOL d         -11.784 -19.080  14.943  0.00  0.00    -0.200 OA
ATOM      6  O10 MOL d          -9.779 -20.087  16.105  0.00  0.00    -0.200 OA
BRANCH   4   7
ATOM      7  C5  MOL d          -9.697 -17.576  15.500  0.00  0.00     0.079 A 
ATOM      8  C4  MOL d          -8.351 -17.575  15.820  0.00  0.00     0.028 A 
ATOM      9  C3  MOL d          -7.583 -16.424  15.618  0.00  0.00     0.038 A 
ATOM     10  C2  MOL d          -8.164 -15.295  15.074  0.00  0.00     0.068 A 
ATOM     11  C7  MOL d          -9.498 -15.350  14.645  0.00  0.00     0.038 A 
ATOM     12  C6  MOL d         -10.265 -16.462  14.923  0.00  0.00     0.028 A 
BRANCH  10  13
ATOM     13  O39 MOL d          -7.483 -14.143  14.848  0.00  0.00    -0.356 OA
ATOM     14  C40 MOL d          -6.117 -14.183  15.161  0.00  0.00     0.210 C 
ENDBRANCH  10  13
ENDBRANCH   4   7
ENDBRANCH   3   4
BRANCH   3  15
ATOM     15  C12 MOL d         -10.503 -18.383  18.478  0.00  0.00     0.160 C 
BRANCH  15  16
ATOM     16  C13 MOL d         -10.927 -18.887  19.838  0.00  0.00     0.103 C 
ATOM     17  C14 MOL d         -11.248 -20.377  19.953  0.00  0.00     0.036 C 
ATOM     18  C47 MOL d          -9.957 -20.982  20.522  0.00  0.00     0.105 C 
ATOM     19  C45 MOL d          -9.267 -19.808  21.165  0.00  0.00     0.218 C 
ATOM     20  N15 MOL d          -9.859 -18.677  20.845  0.00  0.00    -0.355 N 
ATOM     21  O46 MOL d          -8.306 -19.958  21.931  0.00  0.00    -0.274 OA
ATOM     22  H13 MOL d          -9.619 -17.787  21.233  0.00  0.00     0.162 HD
ENDBRANCH  15  16
ENDBRANCH   3  15
ENDBRANCH   2   3
ENDBRANCH   1   2
BRANCH   1  23
ATOM     23  O18 MOL d         -15.002 -18.060  18.211  0.00  0.00    -0.392 OA
ATOM     24  H19 MOL d         -15.677 -18.630  18.559  0.00  0.00     0.210 HD
ENDBRANCH   1  23
BRANCH   1  25
ATOM     25  C19 MOL d         -14.213 -19.995  17.039  0.00  0.00     0.121 C 
BRANCH  25  26
ATOM     26  N20 MOL d         -15.050 -20.914  17.771  0.00  0.00    -0.329 N 
ATOM     27  C21 MOL d         -14.669 -22.110  18.221  0.00  0.00     0.361 C 
ATOM     28  O22 MOL d         -13.497 -22.541  18.110  0.00  0.00    -0.238 OA
ATOM     29  H21 MOL d         -15.991 -20.631  17.956  0.00  0.00     0.165 HD
BRANCH  27  30
ATOM     30  O23 MOL d         -15.640 -22.776  18.855  0.00  0.00    -0.299 OA
BRANCH  30  31
ATOM     31  C25 MOL d         -15.342 -24.160  19.136  0.00  0.00     0.136 C 
ATOM     32  C24 MOL d         -15.413 -25.017  17.864  0.00  0.00     0.040 C 
ATOM     33  C31 MOL d         -16.839 -25.522  17.733  0.00  0.00     0.019 C 
ATOM     34  C27 MOL d         -17.598 -25.038  18.969  0.00  0.00     0.128 C 
ATOM     35  C30 MOL d         -17.605 -24.936  16.578  0.00  0.00     0.033 C 
ATOM     36  C26 MOL d         -16.516 -24.661  19.972  0.00  0.00     0.065 C 
ATOM     37  O28 MOL d         -18.369 -23.909  18.546  0.00  0.00    -0.385 OA
ATOM     38  C29 MOL d         -18.202 -23.665  17.142  0.00  0.00     0.168 C 
ENDBRANCH  30  31
ENDBRANCH  27  30
ENDBRANCH  25  26
BRANCH  25  39
ATOM     39  C32 MOL d         -14.921 -19.541  15.750  0.00  0.00     0.066 C 
BRANCH  39  40
ATOM     40  C38 MOL d         -15.266 -20.767  14.899  0.00  0.00    -0.056 A 
ATOM     41  C33 MOL d         -16.554 -21.224  14.760  0.00  0.00     0.007 A 
ATOM     42  C34 MOL d         -16.909 -22.302  13.977  0.00  0.00     0.001 A 
ATOM     43  C35 MOL d         -15.879 -23.036  13.366  0.00  0.00     0.000 A 
ATOM     44  C36 MOL d         -14.572 -22.572  13.451  0.00  0.00     0.001 A 
ATOM     45  C37 MOL d         -14.230 -21.453  14.222  0.00  0.00     0.007 A 
ENDBRANCH  39  40
ENDBRANCH  25  39
ENDBRANCH   1  25
TORSDOF 14
