REMARK  4 active torsions:
REMARK  status: ('A' for Active; 'I' for Inactive)
REMARK    1  A    between atoms: C9_2  and  C8_4 
REMARK       I    between atoms: N_8  and  C4_9 
REMARK    2  A    between atoms: C4_9  and  C2_11 
REMARK    3  A    between atoms: C2_11  and  C1_13 
REMARK    4  A    between atoms: C1_13  and  S_14 
ROOT
ATOM      1  C8  MCO d          13.929  -2.484  19.032  0.00  0.00     0.188 A 
ATOM      2  C7  MCO d          14.785  -2.797  20.228  0.00  0.00     0.038 A 
ATOM      3  C6  MCO d          14.239  -4.025  20.900  0.00  0.00     0.022 A 
ATOM      4  C5  MCO d          13.081  -4.523  20.127  0.00  0.00     0.127 A 
ATOM      5  N   MCO d          12.886  -3.553  18.996  0.00  0.00    -0.337 N 
ATOM      6  C4  MCO d          11.924  -3.590  18.066  0.00  0.00     0.225 C 
ATOM      7  O1  MCO d          11.878  -2.699  17.168  0.00  0.00    -0.273 OA
ENDROOT
BRANCH   1   8
ATOM      8  C9  MCO d          14.746  -2.409  17.741  0.00  0.00     0.196 C 
ATOM      9  O2  MCO d          15.303  -1.261  17.510  0.00  0.00    -0.646 OA
ATOM     10  O3  MCO d          14.854  -3.340  16.983  0.00  0.00    -0.646 OA
ENDBRANCH   1   8
BRANCH   6  11
ATOM     11  C2  MCO d          10.873  -4.698  18.103  0.00  0.00     0.083 C 
ATOM     12  C3  MCO d          11.097  -5.651  16.924  0.00  0.00     0.020 C 
BRANCH  11  13
ATOM     13  C1  MCO d           9.500  -4.010  18.113  0.00  0.00     0.084 C 
BRANCH  13  14
ATOM     14  S   MCO d           8.118  -5.166  18.162  0.00  0.00    -0.181 SA
ATOM     15  H14 MCO d           7.251  -4.652  18.167  0.00  0.00     0.101 HD
ENDBRANCH  13  14
ENDBRANCH  11  13
ENDBRANCH   6  11
TORSDOF 4
