REMARK  5 active torsions:
REMARK  status: ('A' for Active; 'I' for Inactive)
REMARK    1  A    between atoms: C3_6  and  N1_7 
REMARK    2  A    between atoms: N1_7  and  C2_8 
REMARK    3  A    between atoms: C2_8  and  C1_9 
REMARK    4  A    between atoms: C1_9  and  P1_10 
REMARK    5  A    between atoms: C1_9  and  P2_14 
ROOT
ATOM      1  C2  MOL d          15.989  43.932  48.273  0.00  0.00     0.154 C 
ENDROOT
BRANCH   1   2
ATOM      2  N1  MOL d          15.110  44.257  47.147  0.00  0.00    -0.373 N 
ATOM      3  H5  MOL d          14.757  45.219  47.045  0.00  0.00     0.161 HD
BRANCH   2   4
ATOM      4  C3  MOL d          14.762  43.347  46.264  0.00  0.00     0.122 A 
ATOM      5  C4  MOL d          15.243  42.103  46.413  0.00  0.00     0.050 A 
ATOM      6  C5  MOL d          14.886  41.029  45.480  0.00  0.00     0.005 A 
ATOM      7  C6  MOL d          14.102  41.321  44.444  0.00  0.00     0.019 A 
ATOM      8  C7  MOL d          13.610  42.696  44.274  0.00  0.00     0.119 A 
ATOM      9  N2  MOL d          13.898  43.602  45.124  0.00  0.00    -0.244 NA
ENDBRANCH   2   4
ENDBRANCH   1   2
BRANCH   1  10
ATOM     10  C1  MOL d          16.854  45.150  48.660  0.00  0.00     0.263 C 
BRANCH  10  11
ATOM     11  P1  MOL d          17.405  45.053  50.398  0.00  0.00     0.279 P 
ATOM     12  O1  MOL d          16.263  44.560  51.221  0.00  0.00    -0.639 OA
ATOM     13  O2  MOL d          18.552  44.109  50.511  0.00  0.00    -0.639 OA
ATOM     14  O3  MOL d          17.814  46.404  50.866  0.00  0.00    -0.639 OA
ENDBRANCH  10  11
BRANCH  10  15
ATOM     15  P2  MOL d          18.293  45.438  47.567  0.00  0.00     0.279 P 
ATOM     16  O4  MOL d          19.163  44.236  47.477  0.00  0.00    -0.639 OA
ATOM     17  O5  MOL d          17.800  45.798  46.199  0.00  0.00    -0.639 OA
ATOM     18  O6  MOL d          19.093  46.572  48.138  0.00  0.00    -0.639 OA
ENDBRANCH  10  15
ENDBRANCH   1  10
TORSDOF 5
