REMARK  14 active torsions:
REMARK  status: ('A' for Active; 'I' for Inactive)
REMARK       I    between atoms: N1_26  and  C3_3 
REMARK    1  A    between atoms: C3_3  and  O1_29 
REMARK    2  A    between atoms: O1_29  and  C4_4 
REMARK    3  A    between atoms: C6_6  and  C5_5 
REMARK    4  A    between atoms: C5_5  and  C7_7 
REMARK    5  A    between atoms: C5_5  and  N1_26 
REMARK    6  A    between atoms: C14_14  and  C6_6 
REMARK    7  A    between atoms: C6_6  and  O3_31 
REMARK    8  A    between atoms: C7_7  and  C8_8 
REMARK    9  A    between atoms: N2_27  and  C14_14 
REMARK   10  A    between atoms: C15_15  and  C16_16 
REMARK   11  A    between atoms: N2_27  and  C15_15 
REMARK   12  A    between atoms: S1_35  and  C17_17 
REMARK   13  A    between atoms: C20_20  and  N3_28 
REMARK   14  A    between atoms: N2_27  and  S1_35 
ROOT
ATOM      1  C6  MOL d          13.773  19.442  17.477  0.00  0.00     0.160 C 
ENDROOT
BRANCH   1   2
ATOM      2  C5  MOL d          14.186  20.520  16.472  0.00  0.00     0.121 C 
BRANCH   2   3
ATOM      3  C7  MOL d          14.827  19.986  15.178  0.00  0.00     0.066 C 
BRANCH   3   4
ATOM      4  C8  MOL d          15.193  21.135  14.264  0.00  0.00    -0.056 A 
ATOM      5  C9  MOL d          16.497  21.627  14.247  0.00  0.00     0.007 A 
ATOM      6  C11 MOL d          16.842  22.694  13.416  0.00  0.00     0.001 A 
ATOM      7  C13 MOL d          15.857  23.275  12.604  0.00  0.00     0.000 A 
ATOM      8  C12 MOL d          14.545  22.792  12.611  0.00  0.00     0.001 A 
ATOM      9  C10 MOL d          14.220  21.713  13.440  0.00  0.00     0.007 A 
ENDBRANCH   3   4
ENDBRANCH   2   3
BRANCH   2  10
ATOM     10  N1  MOL d          15.099  21.432  17.139  0.00  0.00    -0.329 N 
ATOM     11  C3  MOL d          14.822  22.701  17.417  0.00  0.00     0.361 C 
ATOM     12  O2  MOL d          13.719  23.235  17.323  0.00  0.00    -0.238 OA
ATOM     13  H32 MOL d          15.996  21.081  17.407  0.00  0.00     0.165 HD
BRANCH  11  14
ATOM     14  O1  MOL d          15.982  23.447  17.892  0.00  0.00    -0.296 OA
BRANCH  14  15
ATOM     15  C4  MOL d          15.723  24.733  18.445  0.00  0.00     0.159 C 
ATOM     16  C1  MOL d          17.105  25.357  18.660  0.00  0.00     0.200 C 
ATOM     17  O6  MOL d          17.478  24.972  19.986  0.00  0.00    -0.389 OA
ATOM     18  C25 MOL d          16.299  24.932  20.800  0.00  0.00     0.170 C 
ATOM     19  C2  MOL d          15.158  24.554  19.852  0.00  0.00     0.061 C 
ENDBRANCH  14  15
ENDBRANCH  11  14
ENDBRANCH   2  10
ENDBRANCH   1   2
BRANCH   1  20
ATOM     20  C14 MOL d          12.642  18.516  17.012  0.00  0.00     0.169 C 
BRANCH  20  21
ATOM     21  N2  MOL d          11.300  19.112  16.959  0.00  0.00    -0.304 N 
BRANCH  21  22
ATOM     22  C15 MOL d          10.425  19.155  18.122  0.00  0.00     0.139 C 
BRANCH  22  23
ATOM     23  C16 MOL d          11.004  19.763  19.399  0.00  0.00    -0.004 C 
ATOM     24  C23 MOL d          11.194  21.272  19.311  0.00  0.00     0.011 C 
ATOM     25  C24 MOL d           9.995  19.442  20.490  0.00  0.00     0.011 C 
ENDBRANCH  22  23
ENDBRANCH  21  22
BRANCH  21  26
ATOM     26  S1  MOL d          10.706  19.496  15.571  0.00  0.00     0.260 S 
ATOM     27  O4  MOL d          11.790  19.781  14.657  0.00  0.00    -0.200 OA
ATOM     28  O5  MOL d           9.718  20.524  15.698  0.00  0.00    -0.200 OA
BRANCH  26  29
ATOM     29  C17 MOL d           9.934  18.141  15.086  0.00  0.00     0.079 A 
ATOM     30  C18 MOL d          10.589  17.181  14.307  0.00  0.00     0.027 A 
ATOM     31  C19 MOL d           9.947  16.009  13.890  0.00  0.00     0.030 A 
ATOM     32  C20 MOL d           8.635  15.753  14.270  0.00  0.00     0.025 A 
ATOM     33  C21 MOL d           7.955  16.710  15.028  0.00  0.00     0.030 A 
ATOM     34  C22 MOL d           8.608  17.894  15.435  0.00  0.00     0.027 A 
BRANCH  32  35
ATOM     35  N3  MOL d           8.005  14.609  13.858  0.00  0.00    -0.399 N 
ATOM     36  H33 MOL d           8.517  13.911  13.300  0.00  0.00     0.156 HD
ATOM     37  H34 MOL d           7.019  14.446  14.106  0.00  0.00     0.156 HD
ENDBRANCH  32  35
ENDBRANCH  26  29
ENDBRANCH  21  26
ENDBRANCH  20  21
ENDBRANCH   1  20
BRANCH   1  38
ATOM     38  O3  MOL d          14.921  18.619  17.761  0.00  0.00    -0.392 OA
ATOM     39  H35 MOL d          15.639  19.169  18.052  0.00  0.00     0.210 HD
ENDBRANCH   1  38
TORSDOF 14
