REMARK  9 active torsions:
REMARK  status: ('A' for Active; 'I' for Inactive)
REMARK    1  A    between atoms: C8_11  and  S_1 
REMARK    2  A    between atoms: S_1  and  N1_15 
REMARK    3  A    between atoms: N1_15  and  CA_16 
REMARK    4  A    between atoms: CA_16  and  C_17 
REMARK    5  A    between atoms: CA_16  and  CB_19 
REMARK       I    between atoms: C_17  and  N2_26 
REMARK    6  A    between atoms: CB_19  and  CG_20 
REMARK    7  A    between atoms: CG_20  and  CD_21 
REMARK    8  A    between atoms: CD_21  and  NE_22 
REMARK       I    between atoms: NE_22  and  CZ_23 
REMARK       I    between atoms: CZ_23  and  NH1_24 
REMARK    9  A    between atoms: C11_27  and  C61_32 
ROOT
ATOM      1  CA  15U d           5.221  14.265  -0.031  0.00  0.00     0.185 C 
ENDROOT
BRANCH   1   2
ATOM      2  N1  15U d           4.146  13.289  -0.092  0.00  0.00    -0.301 N 
ATOM      3  H13 15U d           4.355  12.325  -0.258  0.00  0.00     0.173 HD
BRANCH   2   4
ATOM      4  S   15U d           2.627  13.756   0.106  0.00  0.00     0.261 S 
ATOM      5  O1  15U d           1.796  12.587   0.188  0.00  0.00    -0.200 OA
ATOM      6  O2  15U d           2.519  14.499   1.336  0.00  0.00    -0.200 OA
BRANCH   4   7
ATOM      7  C8  15U d           2.227  14.690  -1.137  0.00  0.00     0.106 A 
ATOM      8  C7  15U d           1.709  15.964  -0.914  0.00  0.00     0.028 A 
ATOM      9  C6  15U d           1.357  16.810  -1.970  0.00  0.00     0.002 A 
ATOM     10  C5  15U d           1.504  16.435  -3.308  0.00  0.00     0.009 A 
ATOM     11  C4  15U d           2.018  15.182  -3.641  0.00  0.00    -0.030 A 
ATOM     12  C3  15U d           2.180  14.779  -5.095  0.00  0.00     0.046 C 
ATOM     13  C9  15U d           2.410  14.244  -2.548  0.00  0.00     0.058 A 
ATOM     14  C2  15U d           3.206  13.656  -5.211  0.00  0.00     0.003 C 
ATOM     15  C1  15U d           2.859  12.535  -4.232  0.00  0.00     0.124 C 
ATOM     16  C10 15U d           3.304  13.130  -6.640  0.00  0.00     0.012 C 
ATOM     17  N   15U d           2.910  13.024  -2.861  0.00  0.00    -0.388 N 
ATOM     18  H12 15U d           3.329  12.438  -2.124  0.00  0.00     0.159 HD
ENDBRANCH   4   7
ENDBRANCH   2   4
ENDBRANCH   1   2
BRANCH   1  19
ATOM     19  C   15U d           5.782  14.569  -1.402  0.00  0.00     0.244 C 
ATOM     20  O   15U d           5.719  13.709  -2.264  0.00  0.00    -0.271 OA
ATOM     21  N2  15U d           6.333  15.765  -1.651  0.00  0.00    -0.336 N 
ATOM     22  C11 15U d           6.421  16.796  -0.597  0.00  0.00     0.188 C 
ATOM     23  C51 15U d           6.918  16.153  -2.946  0.00  0.00     0.127 C 
ATOM     24  C21 15U d           5.855  18.129  -1.110  0.00  0.00     0.040 C 
ATOM     25  C31 15U d           6.396  18.520  -2.484  0.00  0.00    -0.015 C 
ATOM     26  C41 15U d           6.145  17.369  -3.452  0.00  0.00     0.024 C 
ATOM     27  C71 15U d           5.805  19.833  -2.986  0.00  0.00     0.010 C 
BRANCH  22  28
ATOM     28  C61 15U d           7.828  16.905  -0.060  0.00  0.00     0.196 C 
ATOM     29  O11 15U d           8.602  15.936  -0.216  0.00  0.00    -0.646 OA
ATOM     30  O21 15U d           8.178  17.951   0.530  0.00  0.00    -0.646 OA
ENDBRANCH  22  28
ENDBRANCH   1  19
BRANCH   1  31
ATOM     31  CB  15U d           6.286  13.781   0.959  0.00  0.00     0.037 C 
BRANCH  31  32
ATOM     32  CG  15U d           7.159  12.658   0.411  0.00  0.00     0.023 C 
BRANCH  32  33
ATOM     33  CD  15U d           8.411  12.495   1.256  0.00  0.00     0.138 C 
BRANCH  33  34
ATOM     34  NE  15U d           8.707  11.093   1.473  0.00  0.00    -0.227 N 
ATOM     35  CZ  15U d           9.512  10.378   0.684  0.00  0.00     0.665 C 
ATOM     36  NH1 15U d           9.637   9.072   0.924  0.00  0.00    -0.235 N 
ATOM     37  NH2 15U d          10.149  10.912  -0.274  0.00  0.00    -0.235 N 
ATOM     38  H22 15U d          10.251   8.496   0.331  0.00  0.00     0.174 HD
ATOM     39  H23 15U d           9.119   8.639   1.702  0.00  0.00     0.174 HD
ATOM     40  H24 15U d          10.052  11.921  -0.458  0.00  0.00     0.174 HD
ATOM     41  H25 15U d          10.764  10.337  -0.868  0.00  0.00     0.174 HD
ATOM     42  H21 15U d           8.273  10.623   2.280  0.00  0.00     0.177 HD
ENDBRANCH  33  34
ENDBRANCH  32  33
ENDBRANCH  31  32
ENDBRANCH   1  31
TORSDOF 9
