REMARK  13 active torsions:
REMARK  status: ('A' for Active; 'I' for Inactive)
REMARK    1  A    between atoms: N1_8  and  C1'_9 
REMARK    2  A    between atoms: C1'_9  and  C1_10 
REMARK    3  A    between atoms: C1_10  and  C38_11 
REMARK    4  A    between atoms: C1_10  and  C4'_17 
REMARK       I    between atoms: C38_11  and  N34_12 
REMARK    5  A    between atoms: N34_12  and  C39_13 
REMARK    6  A    between atoms: C39_13  and  C40_14 
REMARK    7  A    between atoms: C40_14  and  O37_15 
REMARK    8  A    between atoms: C4'_17  and  C5'_18 
REMARK    9  A    between atoms: C5'_18  and  O1_19 
REMARK   10  A    between atoms: O1_19  and  C17_20 
REMARK   11  A    between atoms: C17_20  and  C30_21 
REMARK   12  A    between atoms: C17_20  and  C24_27 
REMARK   13  A    between atoms: C17_20  and  C18_33 
ROOT
ATOM      1  C5' DUQ d          -8.343  28.028  -1.847  0.00  0.00     0.171 C 
ENDROOT
BRANCH   1   2
ATOM      2  C4' DUQ d          -7.624  26.895  -1.097  0.00  0.00     0.042 C 
BRANCH   2   3
ATOM      3  C1  DUQ d          -7.834  26.822   0.388  0.00  0.00     0.098 C 
BRANCH   3   4
ATOM      4  C1' DUQ d          -7.129  25.618   1.046  0.00  0.00     0.147 C 
BRANCH   4   5
ATOM      5  N1  DUQ d          -5.718  25.578   0.579  0.00  0.00    -0.309 N 
ATOM      6  C2  DUQ d          -5.295  24.428  -0.104  0.00  0.00     0.329 A 
ATOM      7  N3  DUQ d          -4.047  24.363  -0.621  0.00  0.00    -0.275 N 
ATOM      8  O2  DUQ d          -6.141  23.502  -0.176  0.00  0.00    -0.246 OA
ATOM      9  C4  DUQ d          -3.192  25.413  -0.462  0.00  0.00     0.250 A 
ATOM     10  H1  DUQ d          -3.752  23.547  -1.119  0.00  0.00     0.173 HD
ATOM     11  O4  DUQ d          -2.033  25.404  -0.916  0.00  0.00    -0.268 OA
ATOM     12  C5  DUQ d          -3.581  26.545   0.204  0.00  0.00     0.092 A 
ATOM     13  C6  DUQ d          -4.891  26.624   0.708  0.00  0.00     0.101 A 
ENDBRANCH   4   5
ENDBRANCH   3   4
BRANCH   3  14
ATOM     14  C38 DUQ d          -9.283  27.075   0.780  0.00  0.00     0.223 C 
ATOM     15  N34 DUQ d         -10.330  26.626   0.097  0.00  0.00    -0.359 N 
ATOM     16  H7  DUQ d         -10.155  26.093  -0.731  0.00  0.00     0.162 HD
ATOM     17  O38 DUQ d          -9.424  27.781   1.729  0.00  0.00    -0.273 OA
BRANCH  15  18
ATOM     18  C39 DUQ d         -11.730  26.863   0.480  0.00  0.00     0.148 C 
BRANCH  18  19
ATOM     19  C40 DUQ d         -12.536  25.967  -0.456  0.00  0.00     0.183 C 
BRANCH  19  20
ATOM     20  O37 DUQ d         -12.590  26.645  -1.731  0.00  0.00    -0.399 OA
ATOM     21  H12 DUQ d         -13.086  26.119  -2.347  0.00  0.00     0.209 HD
ENDBRANCH  19  20
ENDBRANCH  18  19
ENDBRANCH  15  18
ENDBRANCH   3  14
ENDBRANCH   2   3
ENDBRANCH   1   2
BRANCH   1  22
ATOM     22  O1  DUQ d          -9.022  27.266  -2.881  0.00  0.00    -0.365 OA
BRANCH  22  23
ATOM     23  C17 DUQ d          -8.463  27.200  -4.217  0.00  0.00     0.142 C 
BRANCH  23  24
ATOM     24  C30 DUQ d          -9.272  26.090  -4.862  0.00  0.00    -0.015 A 
ATOM     25  C31 DUQ d         -10.461  25.646  -4.245  0.00  0.00     0.011 A 
ATOM     26  C32 DUQ d         -11.188  24.595  -4.847  0.00  0.00     0.001 A 
ATOM     27  C33 DUQ d         -10.801  24.014  -6.058  0.00  0.00     0.000 A 
ATOM     28  C34 DUQ d          -9.632  24.486  -6.678  0.00  0.00     0.001 A 
ATOM     29  C35 DUQ d          -8.916  25.518  -6.086  0.00  0.00     0.011 A 
ENDBRANCH  23  24
BRANCH  23  30
ATOM     30  C24 DUQ d          -8.861  28.492  -4.918  0.00  0.00    -0.015 A 
ATOM     31  C25 DUQ d          -9.890  29.292  -4.352  0.00  0.00     0.011 A 
ATOM     32  C26 DUQ d         -10.302  30.490  -4.978  0.00  0.00     0.001 A 
ATOM     33  C27 DUQ d          -9.710  30.858  -6.200  0.00  0.00     0.000 A 
ATOM     34  C28 DUQ d          -8.700  30.065  -6.789  0.00  0.00     0.001 A 
ATOM     35  C29 DUQ d          -8.277  28.883  -6.144  0.00  0.00     0.011 A 
ENDBRANCH  23  30
BRANCH  23  36
ATOM     36  C18 DUQ d          -6.931  26.917  -4.130  0.00  0.00    -0.015 A 
ATOM     37  C19 DUQ d          -6.450  25.625  -3.804  0.00  0.00     0.011 A 
ATOM     38  C20 DUQ d          -5.040  25.350  -3.660  0.00  0.00     0.001 A 
ATOM     39  C21 DUQ d          -4.128  26.382  -3.875  0.00  0.00     0.000 A 
ATOM     40  C22 DUQ d          -4.585  27.688  -4.196  0.00  0.00     0.001 A 
ATOM     41  C23 DUQ d          -5.969  27.943  -4.314  0.00  0.00     0.011 A 
ENDBRANCH  23  36
ENDBRANCH  22  23
ENDBRANCH   1  22
TORSDOF 13
