REMARK  0 active torsions:
REMARK  status: ('A' for Active; 'I' for Inactive)
ROOT
ATOM      1  CAK MOL d          21.148   0.297   7.173  0.00  0.00     0.104 A 
ATOM      2  NAG MOL d          20.275  -0.672   6.855  0.00  0.00    -0.256 N 
ATOM      3  NAE MOL d          19.865  -0.437   5.697  0.00  0.00    -0.067 NA
ATOM      4  NAF MOL d          20.372   0.602   5.192  0.00  0.00    -0.130 NA
ATOM      5  CAJ MOL d          21.200   1.148   6.071  0.00  0.00     0.112 A 
ATOM      6  CAD MOL d          21.995   2.276   6.066  0.00  0.00     0.059 A 
ATOM      7  CAH MOL d          22.746   2.502   7.205  0.00  0.00     0.038 A 
ATOM      8 CLA  MOL d          23.734   3.894   7.252  0.00  0.00    -0.084 Cl
ATOM      9  CAC MOL d          22.726   1.661   8.315  0.00  0.00     0.050 A 
ATOM     10  CAI MOL d          21.892   0.555   8.317  0.00  0.00     0.066 A 
ATOM     11 CLB  MOL d          21.818  -0.564   9.656  0.00  0.00    -0.082 Cl
ATOM     12  H1  MOL d          19.995  -1.462   7.453  0.00  0.00     0.191 HD
ENDROOT
TORSDOF 0
