REMARK  3 active torsions:
REMARK  status: ('A' for Active; 'I' for Inactive)
REMARK    1  A    between atoms: C1_1  and  C2_2 
REMARK    2  A    between atoms: C2_2  and  C1'_3 
REMARK    3  A    between atoms: C3'_5  and  N3'_6 
ROOT
ATOM      1  C1' MNP d          12.670  35.908  35.237  0.00  0.00    -0.046 A 
ATOM      2  C2' MNP d          12.428  36.461  34.003  0.00  0.00     0.043 A 
ATOM      3  C3' MNP d          11.259  36.071  33.405  0.00  0.00     0.103 A 
ATOM      4  C4' MNP d          10.314  35.187  33.896  0.00  0.00     0.036 A 
ATOM      5  C5' MNP d          10.590  34.632  35.109  0.00  0.00     0.003 A 
ATOM      6  C6' MNP d          11.754  35.015  35.791  0.00  0.00     0.008 A 
ENDROOT
BRANCH   1   7
ATOM      7  C2  MNP d          13.949  36.324  35.879  0.00  0.00     0.151 C 
BRANCH   7   8
ATOM      8  C1  MNP d          14.016  37.768  36.370  0.00  0.00     0.176 C 
ATOM      9  O2  MNP d          13.532  38.781  35.929  0.00  0.00    -0.648 OA
ATOM     10  O1  MNP d          14.584  37.940  37.432  0.00  0.00    -0.648 OA
ENDBRANCH   7   8
ENDBRANCH   1   7
BRANCH   3  11
ATOM     11  N3' MNP d          10.948  36.544  32.119  0.00  0.00    -0.116 N 
ATOM     12  O4' MNP d          11.646  37.431  31.312  0.00  0.00    -0.532 OA
ATOM     13  O3' MNP d           9.715  35.900  31.861  0.00  0.00    -0.532 OA
ENDBRANCH   3  11
TORSDOF 3
