REMARK  4 active torsions:
REMARK  status: ('A' for Active; 'I' for Inactive)
REMARK    1  A    between atoms: N_1  and  CA_2 
REMARK    2  A    between atoms: CA_2  and  C_3 
REMARK    3  A    between atoms: CA_2  and  CB_5 
REMARK    4  A    between atoms: CB_5  and  CG_6 
ROOT
ATOM      1  CA  PHE d           6.310  -7.663 -16.082  0.00  0.00     0.287 C 
ENDROOT
BRANCH   1   2
ATOM      2  N   PHE d           5.160  -7.930 -16.948  0.00  0.00    -0.065 N 
ATOM      3  H1  PHE d           4.332  -7.522 -16.542  0.00  0.00     0.275 HD
ATOM      4  H2  PHE d           5.033  -8.926 -17.041  0.00  0.00     0.275 HD
ATOM      5  H3  PHE d           5.323  -7.526 -17.857  0.00  0.00     0.275 HD
ENDBRANCH   1   2
BRANCH   1   6
ATOM      6  C   PHE d           7.595  -8.256 -16.644  0.00  0.00     0.204 C 
ATOM      7  O   PHE d           7.678  -8.604 -17.816  0.00  0.00    -0.646 OA
ATOM      8  OXT PHE d           8.595  -8.394 -15.952  0.00  0.00    -0.646 OA
ENDBRANCH   1   6
BRANCH   1   9
ATOM      9  CB  PHE d           6.051  -8.180 -14.662  0.00  0.00     0.082 C 
BRANCH   9  10
ATOM     10  CG  PHE d           5.114  -7.312 -13.878  0.00  0.00    -0.056 A 
ATOM     11  CD1 PHE d           5.547  -6.098 -13.344  0.00  0.00     0.007 A 
ATOM     12  CE1 PHE d           4.677  -5.291 -12.628  0.00  0.00     0.001 A 
ATOM     13  CZ  PHE d           3.358  -5.680 -12.452  0.00  0.00     0.000 A 
ATOM     14  CE2 PHE d           2.924  -6.876 -12.984  0.00  0.00     0.001 A 
ATOM     15  CD2 PHE d           3.799  -7.682 -13.697  0.00  0.00     0.007 A 
ENDBRANCH   9  10
ENDBRANCH   1   9
TORSDOF 4
