REMARK  9 active torsions:
REMARK  status: ('A' for Active; 'I' for Inactive)
REMARK    1  A    between atoms: C1_1  and  O7_7 
REMARK    2  A    between atoms: C2_2  and  O8_8 
REMARK    3  A    between atoms: C5_5  and  C6_6 
REMARK    4  A    between atoms: C9_9  and  C10_10 
REMARK    5  A    between atoms: C10_10  and  N11_11 
REMARK       I    between atoms: N11_11  and  C12_12 
REMARK    6  A    between atoms: C12_12  and  C13_13 
REMARK    7  A    between atoms: C14_14  and  O20_20 
REMARK    8  A    between atoms: C15_15  and  O21_21 
REMARK    9  A    between atoms: C17_17  and  N19_19 
ROOT
ATOM      1  N11 OZR d         -21.333  29.086   8.273  0.00  0.00    -0.353 N 
ATOM      2  C12 OZR d         -22.152  29.643   7.349  0.00  0.00     0.254 C 
ATOM      3  O22 OZR d         -22.005  30.840   7.022  0.00  0.00    -0.268 OA
ATOM      4  H12 OZR d         -21.500  28.154   8.594  0.00  0.00     0.163 HD
ENDROOT
BRANCH   2   5
ATOM      5  C13 OZR d         -23.259  28.855   6.740  0.00  0.00     0.070 A 
ATOM      6  C14 OZR d         -23.312  27.451   6.925  0.00  0.00     0.114 A 
ATOM      7  C15 OZR d         -24.372  26.735   6.365  0.00  0.00     0.102 A 
ATOM      8  C16 OZR d         -25.363  27.359   5.600  0.00  0.00     0.075 A 
ATOM      9  C17 OZR d         -25.283  28.760   5.437  0.00  0.00     0.106 A 
ATOM     10  C18 OZR d         -24.262  29.499   6.005  0.00  0.00     0.056 A 
BRANCH   6  11
ATOM     11  O20 OZR d         -22.380  26.739   7.604  0.00  0.00    -0.357 OA
ATOM     12  H15 OZR d         -21.713  27.328   7.937  0.00  0.00     0.217 HD
ENDBRANCH   6  11
BRANCH   7  13
ATOM     13  O21 OZR d         -24.463  25.368   6.500  0.00  0.00    -0.358 OA
ATOM     14  H16 OZR d         -23.743  25.055   7.035  0.00  0.00     0.217 HD
ENDBRANCH   7  13
BRANCH   9  15
ATOM     15  N19 OZR d         -26.275  29.541   4.682  0.00  0.00    -0.116 N 
ATOM     16  O23 OZR d         -27.114  29.005   3.992  0.00  0.00    -0.532 OA
ATOM     17  O24 OZR d         -26.178  30.730   4.801  0.00  0.00    -0.532 OA
ENDBRANCH   9  15
ENDBRANCH   2   5
BRANCH   1  18
ATOM     18  C10 OZR d         -20.222  29.838   8.792  0.00  0.00     0.150 C 
BRANCH  18  19
ATOM     19  C9  OZR d         -20.530  30.530  10.071  0.00  0.00    -0.009 C 
ATOM     20  C6  OZR d         -19.609  30.701  11.020  0.00  0.00     0.005 C 
BRANCH  20  21
ATOM     21  C5  OZR d         -19.887  31.384  12.322  0.00  0.00     0.175 C 
ATOM     22  C1  OZR d         -20.171  30.313  13.417  0.00  0.00     0.181 C 
ATOM     23  C2  OZR d         -21.015  31.148  14.428  0.00  0.00     0.173 C 
ATOM     24  C3  OZR d         -21.894  31.960  13.460  0.00  0.00     0.203 C 
ATOM     25  O4  OZR d         -21.080  32.213  12.291  0.00  0.00    -0.377 OA
BRANCH  22  26
ATOM     26  O7  OZR d         -18.930  29.713  13.808  0.00  0.00    -0.390 OA
ATOM     27  H7  OZR d         -19.093  29.058  14.476  0.00  0.00     0.210 HD
ENDBRANCH  22  26
BRANCH  23  28
ATOM     28  O8  OZR d         -20.155  32.021  15.137  0.00  0.00    -0.391 OA
ATOM     29  H8  OZR d         -19.614  31.516  15.733  0.00  0.00     0.210 HD
ENDBRANCH  23  28
ENDBRANCH  20  21
ENDBRANCH  18  19
ENDBRANCH   1  18
TORSDOF 9
