REMARK  7 active torsions:
REMARK  status: ('A' for Active; 'I' for Inactive)
REMARK    1  A    between atoms: C1_2  and  O1_3 
REMARK    2  A    between atoms: C1_2  and  C2_5 
REMARK    3  A    between atoms: C7_6  and  O3_7 
REMARK    4  A    between atoms: C5_12  and  O4_13 
REMARK    5  A    between atoms: O4_13  and  C10_14 
REMARK    6  A    between atoms: C11_16  and  O5_17 
REMARK    7  A    between atoms: C12_18  and  O6_19 
ROOT
ATOM      1  C2  MGI d          45.372  29.812  58.592  0.00  0.00     0.078 A 
ATOM      2  C7  MGI d          44.419  28.761  58.701  0.00  0.00     0.085 A 
ATOM      3  C6  MGI d          43.068  29.046  58.755  0.00  0.00     0.074 A 
ATOM      4  C3  MGI d          44.887  31.185  58.532  0.00  0.00    -0.040 A 
ATOM      5  C8  MGI d          45.766  32.414  58.404  0.00  0.00     0.049 C 
ATOM      6  C4  MGI d          43.517  31.434  58.592  0.00  0.00     0.045 A 
ATOM      7  C5  MGI d          42.598  30.393  58.704  0.00  0.00     0.079 A 
ENDROOT
BRANCH   7   8
ATOM      8  O4  MGI d          41.282  30.738  58.763  0.00  0.00    -0.308 OA
BRANCH   8   9
ATOM      9  C10 MGI d          40.247  29.887  59.127  0.00  0.00     0.112 A 
ATOM     10  C15 MGI d          40.208  29.226  60.403  0.00  0.00     0.047 A 
ATOM     11  C14 MGI d          39.134  28.359  60.708  0.00  0.00    -0.057 A 
ATOM     12  C13 MGI d          38.115  28.150  59.760  0.00  0.00     0.046 A 
ATOM     13  C16 MGI d          39.068  27.660  62.028  0.00  0.00     0.048 C 
ATOM     14  C12 MGI d          38.158  28.812  58.493  0.00  0.00     0.102 A 
ATOM     15  C11 MGI d          39.220  29.672  58.195  0.00  0.00     0.133 A 
BRANCH  14  16
ATOM     16  O6  MGI d          37.156  28.599  57.565  0.00  0.00    -0.358 OA
ATOM     17  H12 MGI d          36.518  27.993  57.923  0.00  0.00     0.217 HD
ENDBRANCH  14  16
BRANCH  15  18
ATOM     18  O5  MGI d          39.259  30.300  57.002  0.00  0.00    -0.356 OA
ATOM     19  H11 MGI d          38.499  30.051  56.489  0.00  0.00     0.218 HD
ENDBRANCH  15  18
ENDBRANCH   8   9
ENDBRANCH   7   8
BRANCH   2  20
ATOM     20  O3  MGI d          44.810  27.461  58.759  0.00  0.00    -0.360 OA
ATOM     21  H4  MGI d          45.291  27.241  57.970  0.00  0.00     0.217 HD
ENDBRANCH   2  20
BRANCH   1  22
ATOM     22  C1  MGI d          46.842  29.444  58.545  0.00  0.00     0.296 C 
ATOM     23  O2  MGI d          47.177  28.268  58.500  0.00  0.00    -0.259 OA
BRANCH  22  24
ATOM     24  O1  MGI d          47.888  30.453  58.582  0.00  0.00    -0.322 OA
ATOM     25  C9  MGI d          49.284  30.142  58.754  0.00  0.00     0.213 C 
ENDBRANCH  22  24
ENDBRANCH   1  22
TORSDOF 7
