REMARK  4 active torsions:
REMARK  status: ('A' for Active; 'I' for Inactive)
REMARK    1  A    between atoms: N_1  and  CA_2 
REMARK    2  A    between atoms: CA_2  and  C_3 
REMARK    3  A    between atoms: CA_2  and  CB_5 
REMARK    4  A    between atoms: CB_5  and  SG_6 
ROOT
ATOM      1  CA  CYS d          -7.963  81.746 -29.892  0.00  0.00     0.292 C 
ENDROOT
BRANCH   1   2
ATOM      2  N   CYS d          -8.732  82.312 -31.062  0.00  0.00    -0.065 N 
ATOM      3  H1  CYS d          -8.475  83.277 -31.198  0.00  0.00     0.275 HD
ATOM      4  H2  CYS d          -9.721  82.250 -30.876  0.00  0.00     0.275 HD
ATOM      5  H3  CYS d          -8.513  81.786 -31.894  0.00  0.00     0.275 HD
ENDBRANCH   1   2
BRANCH   1   6
ATOM      6  C   CYS d          -8.311  80.284 -29.638  0.00  0.00     0.205 C 
ATOM      7  O   CYS d          -7.946  79.708 -28.610  0.00  0.00    -0.646 OA
ATOM      8  OXT CYS d          -8.977  79.639 -30.456  0.00  0.00    -0.646 OA
ENDBRANCH   1   6
BRANCH   1   9
ATOM      9  CB  CYS d          -8.228  82.559 -28.633  0.00  0.00     0.114 C 
BRANCH   9  10
ATOM     10  SG  CYS d          -9.977  82.587 -28.141  0.00  0.00    -0.180 SA
ATOM     11  H7  CYS d         -10.081  83.140 -27.305  0.00  0.00     0.101 HD
ENDBRANCH   9  10
ENDBRANCH   1   9
TORSDOF 4
