REMARK  20 active torsions:
REMARK  status: ('A' for Active; 'I' for Inactive)
REMARK    1  A    between atoms: C2_1  and  O2_36 
REMARK    2  A    between atoms: C3_2  and  O3_33 
REMARK    3  A    between atoms: C7_4  and  O4_3 
REMARK    4  A    between atoms: O4_3  and  C4_32 
REMARK    5  A    between atoms: O8_18  and  C8_5 
REMARK    6  A    between atoms: C9_6  and  O9_19 
REMARK    7  A    between atoms: C10_7  and  O10_23 
REMARK    8  A    between atoms: C11_8  and  C12_9 
REMARK    9  A    between atoms: C12_9  and  O12_27 
REMARK   10  A    between atoms: O2_36  and  C14_11 
REMARK   11  A    between atoms: O3_33  and  C16_12 
REMARK   12  A    between atoms: C5_13  and  C6_14 
REMARK   13  A    between atoms: C6_14  and  O6_44 
REMARK   14  A    between atoms: C23_16  and  O8_18 
REMARK   15  A    between atoms: O9_19  and  C25_20 
REMARK   16  A    between atoms: O10_23  and  C29_24 
REMARK   17  A    between atoms: O12_27  and  C31_28 
REMARK   18  A    between atoms: C1_38  and  SAI_39 
REMARK   19  A    between atoms: SAI_39  and  NAJ_42 
REMARK   20  A    between atoms: O6_44  and  C19_45 
ROOT
ATOM      1  C2  MFS d          16.114   4.146  13.867  0.00  0.00     0.209 C 
ATOM      2  C3  MFS d          16.756   5.200  12.979  0.00  0.00     0.196 C 
ATOM      3  C5  MFS d          17.326   6.391  15.035  0.00  0.00     0.179 C 
ATOM      4  C4  MFS d          16.587   6.517  13.715  0.00  0.00     0.188 C 
ATOM      5  C1  MFS d          16.791   4.031  15.224  0.00  0.00     0.296 C 
ATOM      6  O5  MFS d          16.773   5.332  15.832  0.00  0.00    -0.356 OA
ENDROOT
BRANCH   4   7
ATOM      7  O4  MFS d          16.880   7.660  12.893  0.00  0.00    -0.348 OA
BRANCH   7   8
ATOM      8  C7  MFS d          18.217   8.177  12.987  0.00  0.00     0.293 C 
ATOM      9  C8  MFS d          18.591   8.824  11.663  0.00  0.00     0.219 C 
ATOM     10  C9  MFS d          20.035   9.290  11.717  0.00  0.00     0.198 C 
ATOM     11  C10 MFS d          20.183  10.295  12.843  0.00  0.00     0.189 C 
ATOM     12  C11 MFS d          19.666   9.626  14.103  0.00  0.00     0.180 C 
ATOM     13  O11 MFS d          18.289   9.255  13.933  0.00  0.00    -0.348 OA
BRANCH   9  14
ATOM     14  O8  MFS d          18.481   7.912  10.564  0.00  0.00    -0.308 OA
BRANCH  14  15
ATOM     15  C23 MFS d          19.300   6.834  10.680  0.00  0.00     0.255 C 
ATOM     16  C22 MFS d          20.178   6.592  11.911  0.00  0.00     0.126 C 
ATOM     17  O24 MFS d          19.366   6.060   9.726  0.00  0.00    -0.266 OA
ENDBRANCH  14  15
ENDBRANCH   9  14
BRANCH  10  18
ATOM     18  O9  MFS d          20.468   9.862  10.474  0.00  0.00    -0.311 OA
BRANCH  18  19
ATOM     19  C25 MFS d          21.817   9.751  10.330  0.00  0.00     0.255 C 
ATOM     20  C26 MFS d          22.660   9.031  11.385  0.00  0.00     0.126 C 
ATOM     21  O27 MFS d          22.366  10.214   9.331  0.00  0.00    -0.266 OA
ENDBRANCH  18  19
ENDBRANCH  10  18
BRANCH  11  22
ATOM     22  O10 MFS d          19.425  11.481  12.568  0.00  0.00    -0.338 OA
BRANCH  22  23
ATOM     23  C29 MFS d          20.280  12.503  12.034  0.00  0.00     0.253 C 
ATOM     24  C28 MFS d          20.448  13.828  12.782  0.00  0.00     0.088 C 
ATOM     25  O30 MFS d          20.979  12.298  10.804  0.00  0.00    -0.192 OA
ENDBRANCH  22  23
ENDBRANCH  11  22
BRANCH  12  26
ATOM     26  C12 MFS d          19.858  10.568  15.282  0.00  0.00     0.213 C 
BRANCH  26  27
ATOM     27  O12 MFS d          20.452  11.809  14.870  0.00  0.00    -0.319 OA
BRANCH  27  28
ATOM     28  C31 MFS d          21.784  11.866  15.153  0.00  0.00     0.254 C 
ATOM     29  C32 MFS d          22.449  10.710  15.887  0.00  0.00     0.126 C 
ATOM     30  O33 MFS d          22.448  12.854  14.839  0.00  0.00    -0.266 OA
ENDBRANCH  27  28
ENDBRANCH  26  27
ENDBRANCH  12  26
ENDBRANCH   7   8
ENDBRANCH   4   7
BRANCH   2  31
ATOM     31  O3  MFS d          16.123   5.293  11.696  0.00  0.00    -0.311 OA
BRANCH  31  32
ATOM     32  C16 MFS d          16.990   4.901  10.723  0.00  0.00     0.255 C 
ATOM     33  C17 MFS d          18.331   4.261  11.084  0.00  0.00     0.126 C 
ATOM     34  O18 MFS d          16.669   5.016   9.542  0.00  0.00    -0.266 OA
ENDBRANCH  31  32
ENDBRANCH   2  31
BRANCH   3  35
ATOM     35  C6  MFS d          17.191   7.679  15.826  0.00  0.00     0.213 C 
BRANCH  35  36
ATOM     36  O6  MFS d          16.053   8.394  15.325  0.00  0.00    -0.319 OA
BRANCH  36  37
ATOM     37  C19 MFS d          14.854   7.922  15.763  0.00  0.00     0.254 C 
ATOM     38  C20 MFS d          14.763   6.764  16.760  0.00  0.00     0.126 C 
ATOM     39  O21 MFS d          13.831   8.467  15.354  0.00  0.00    -0.266 OA
ENDBRANCH  36  37
ENDBRANCH  35  36
ENDBRANCH   3  35
BRANCH   1  40
ATOM     40  O2  MFS d          15.940   2.877  13.213  0.00  0.00    -0.310 OA
BRANCH  40  41
ATOM     41  C14 MFS d          17.058   2.195  12.837  0.00  0.00     0.255 C 
ATOM     42  C13 MFS d          18.455   2.742  13.130  0.00  0.00     0.126 C 
ATOM     43  O15 MFS d          16.938   1.115  12.261  0.00  0.00    -0.266 OA
ENDBRANCH  40  41
ENDBRANCH   1  40
BRANCH   5  44
ATOM     44  SAI MFS d          15.897   2.887  16.343  0.00  0.00     0.254 S 
ATOM     45  OAM MFS d          16.341   3.134  17.755  0.00  0.00    -0.203 OA
ATOM     46  OAE MFS d          14.419   3.127  16.254  0.00  0.00    -0.203 OA
BRANCH  44  47
ATOM     47  NAJ MFS d          16.225   1.340  15.948  0.00  0.00    -0.326 N 
ATOM     48  H33 MFS d          15.811   0.593  16.468  0.00  0.00     0.168 HD
ATOM     49  H34 MFS d          16.840   1.138  15.186  0.00  0.00     0.168 HD
ENDBRANCH  44  47
ENDBRANCH   5  44
TORSDOF 20
