2xy9_ligand

Created by X-TOOL on Fri Sep 26 17:34:52 2014
 87 91  0  0  0  0  0  0  0  0999 V2000
   16.4580    2.6720  -17.9990  C 0  0  0  2  0  3
   16.3180    4.0510  -17.8150  C 0  0  0  2  0  3
   16.3360    4.5890  -16.5310  C 0  0  0  2  0  3
   16.4890    3.7450  -15.4330  C 0  0  0  2  0  3
   16.6270    2.3660  -15.6130  C 0  0  0  2  0  3
   16.6180    1.8260  -16.8970  C 0  0  0  1  0  3
   16.7370    0.4420  -17.1050  C 0  0  0  3  0  4
   15.6900   -0.1350  -17.9080  O 0  0  0  1  0  2
   15.6310   -1.4700  -18.1670  C 0  0  0  1  0  3
   16.3820   -2.2750  -17.6060  O 0  0  0  1  0  1
   14.6880   -1.8110  -19.0440  N 0  0  0  2  0  3
   14.4160   -3.1870  -19.4720  C 0  0  0  2  0  4
   12.8980   -3.4150  -19.4940  C 0  0  0  3  0  4
   12.2780   -3.1620  -18.1070  C 0  0  0  1  0  3
   12.1460   -4.2180  -17.2010  C 0  0  0  2  0  3
   11.5880   -3.9910  -15.9410  C 0  0  0  2  0  3
   11.1660   -2.7100  -15.5820  C 0  0  0  2  0  3
   11.3050   -1.6500  -16.4820  C 0  0  0  2  0  3
   11.8590   -1.8800  -17.7440  C 0  0  0  2  0  3
   15.1970   -3.4250  -21.1190  P 0  0  0  1  0  4
   16.7240   -3.0640  -20.8720  O 0  0  0  1  0  1
   14.5190   -2.5610  -22.1160  O 0  0  0  1  0  1
   13.8020   -4.7290  -24.9210  N 0  0  0  2  0  3
   12.5610   -4.4410  -25.6530  C 0  0  0  2  0  4
   11.8850   -5.7950  -25.9640  C 0  5  0  1  0  3
   12.4890   -6.8160  -25.5880  O 0  0  0  1  0  1
   10.7580   -5.7970  -26.5040  O 0  0  0  1  0  1
   12.8010   -3.6380  -26.9380  C 0  0  0  3  0  4
   14.0920   -3.9370  -27.7090  C 0  0  0  1  0  3
   14.0910   -4.8880  -28.7290  C 0  0  0  2  0  3
   15.2660   -5.1510  -29.4420  C 0  0  0  2  0  3
   16.4350   -4.4490  -29.1390  C 0  0  0  1  0  3
   17.5850   -4.6890  -29.8340  O 0  0  0  2  0  2
   16.4340   -3.4920  -28.1260  C 0  0  0  2  0  3
   15.2640   -3.2350  -27.4110  C 0  0  0  2  0  3
   15.1930   -5.1960  -21.5210  C 0  0  0  3  0  4
   15.1470   -5.5000  -23.0340  C 0  0  0  2  0  4
   13.7910   -5.0760  -23.6320  C 0  0  0  1  0  3
   12.7710   -5.0980  -22.9430  O 0  0  0  1  0  1
   16.3400   -4.8820  -23.7840  C 0  0  0  3  0  4
   16.8200   -5.6400  -25.0390  C 0  0  0  1  0  3
   16.2980   -6.6560  -25.7330  C 0  0  0  2  0  3
   17.9840   -5.2760  -25.6370  O 0  0  0  1  0  2
   18.1460   -6.1230  -26.7410  N 0  0  0  1  0  2
   17.1050   -6.9470  -26.7720  C 0  0  0  1  0  3
   16.9370   -7.9420  -27.7400  C 0  0  0  1  0  3
   16.1740   -9.0770  -27.4800  C 0  0  0  2  0  3
   16.0220  -10.0700  -28.4490  C 0  0  0  2  0  3
   16.6350   -9.9360  -29.6920  C 0  0  0  2  0  3
   17.4040   -8.8000  -29.9600  C 0  0  0  2  0  3
   17.5600   -7.8120  -28.9830  C 0  0  0  2  0  3
   16.4424    2.2569  -19.0002  H 0  0  0  1  0  1
   16.1953    4.7020  -18.6731  H 0  0  0  1  0  1
   16.2316    5.6582  -16.3864  H 0  0  0  1  0  1
   16.5011    4.1609  -14.4320  H 0  0  0  1  0  1
   16.7411    1.7162  -14.7529  H 0  0  0  1  0  1
   16.7299   -0.0545  -16.1235  H 0  0  0  1  0  1
   17.6979    0.2514  -17.6054  H 0  0  0  1  0  1
   14.1288   -1.0806  -19.4363  H 0  0  0  1  0  1
   14.8670   -3.8924  -18.7586  H 0  0  0  1  0  1
   12.6952   -4.4537  -19.7938  H 0  0  0  1  0  1
   12.4422   -2.7276  -20.2218  H 0  0  0  1  0  1
   12.4766   -5.2130  -17.4762  H 0  0  0  1  0  1
   11.4824   -4.8114  -15.2404  H 0  0  0  1  0  1
   10.7302   -2.5372  -14.6046  H 0  0  0  1  0  1
   10.9842   -0.6531  -16.2021  H 0  0  0  1  0  1
   11.9641   -1.0596  -18.4446  H 0  0  0  1  0  1
   14.6771   -4.6634  -25.4006  H 0  0  0  1  0  1
   11.8984   -3.8504  -25.0034  H 0  0  0  1  0  1
   12.8148   -2.5721  -26.6667  H 0  0  0  1  0  1
   11.9563   -3.8332  -27.6151  H 0  0  0  1  0  1
   13.1798   -5.4236  -28.9696  H 0  0  0  1  0  1
   15.2690   -5.8978  -30.2277  H 0  0  0  1  0  1
   18.2773   -4.1298  -29.5014  H 0  0  0  1  0  1
   17.3421   -2.9475  -27.8937  H 0  0  0  1  0  1
   15.2635   -2.4902  -26.6234  H 0  0  0  1  0  1
   14.3114   -5.6550  -21.0497  H 0  0  0  1  0  1
   16.1068   -5.6463  -21.1061  H 0  0  0  1  0  1
   15.2266   -6.5909  -23.1504  H 0  0  0  1  0  1
   17.1851   -4.8252  -23.0822  H 0  0  0  1  0  1
   16.0522   -3.8667  -24.0944  H 0  0  0  1  0  1
   15.3667   -7.1682  -25.4959  H 0  0  0  1  0  1
   15.6931   -9.1907  -26.5152  H 0  0  0  1  0  1
   15.4247  -10.9485  -28.2332  H 0  0  0  1  0  1
   16.5168  -10.7062  -30.4455  H 0  0  0  1  0  1
   17.8803   -8.6848  -30.9269  H 0  0  0  1  0  1
   18.1685   -6.9395  -29.1918  H 0  0  0  1  0  1
  1  2  4  0  0  1
  6  1  4  0  0  1
  2  3  4  0  0  1
  4  3  4  0  0  1
  5  4  4  0  0  1
  6  5  4  0  0  1
  7  6  1  0  0  2
  8  7  1  0  0  2
  9  8  1  0  0  2
  9 10  2  0  0  2
 11  9  1  0  0  2
 12 11  1  0  0  2
 12 13  1  0  0  2
 20 12  1  0  0  2
 13 14  1  0  0  2
 14 15  4  0  0  1
 14 19  4  0  0  1
 15 16  4  0  0  1
 16 17  4  0  0  1
 18 17  4  0  0  1
 19 18  4  0  0  1
 20 21  2  0  0  2
 20 22  2  0  0  2
 36 20  1  0  0  2
 23 24  1  0  0  2
 38 23  1  0  0  2
 24 25  1  0  0  2
 24 28  1  0  0  2
 25 26  2  0  0  2
 25 27  2  0  0  2
 28 29  1  0  0  2
 29 30  4  0  0  1
 29 35  4  0  0  1
 30 31  4  0  0  1
 31 32  4  0  0  1
 32 33  1  0  0  2
 34 32  4  0  0  1
 35 34  4  0  0  1
 37 36  1  0  0  2
 37 38  1  0  0  2
 37 40  1  0  0  2
 38 39  2  0  0  2
 40 41  1  0  0  2
 41 42  2  0  0  1
 41 43  1  0  0  1
 42 45  1  0  0  1
 43 44  1  0  0  1
 44 45  2  0  0  1
 45 46  1  0  0  2
 46 47  4  0  0  1
 46 51  4  0  0  1
 47 48  4  0  0  1
 48 49  4  0  0  1
 49 50  4  0  0  1
 50 51  4  0  0  1
  1 52  1  0  0  2
  2 53  1  0  0  2
  3 54  1  0  0  2
  4 55  1  0  0  2
  5 56  1  0  0  2
  7 57  1  0  0  2
  7 58  1  0  0  2
 11 59  1  0  0  2
 12 60  1  0  0  2
 13 61  1  0  0  2
 13 62  1  0  0  2
 15 63  1  0  0  2
 16 64  1  0  0  2
 17 65  1  0  0  2
 18 66  1  0  0  2
 19 67  1  0  0  2
 23 68  1  0  0  2
 24 69  1  0  0  2
 28 70  1  0  0  2
 28 71  1  0  0  2
 30 72  1  0  0  2
 31 73  1  0  0  2
 33 74  1  0  0  2
 34 75  1  0  0  2
 35 76  1  0  0  2
 36 77  1  0  0  2
 36 78  1  0  0  2
 37 79  1  0  0  2
 40 80  1  0  0  2
 40 81  1  0  0  2
 42 82  1  0  0  2
 47 83  1  0  0  2
 48 84  1  0  0  2
 49 85  1  0  0  2
 50 86  1  0  0  2
 51 87  1  0  0  2
M  END
> <MOLECULAR_FORMULA>
C38H36N3O9P

> <MOLECULAR_WEIGHT>
709.4

> <NUM_HB_ATOMS>
11 

> <NUM_ROTOR>
15 

> <XLOGP2>
4.96 

$$$$
