REMARK  18 active torsions:
REMARK  status: ('A' for Active; 'I' for Inactive)
REMARK    1  A    between atoms: CBB_7  and  CBP_6 
REMARK    2  A    between atoms: OBJ_8  and  CBB_7 
REMARK    3  A    between atoms: CBM_9  and  OBJ_8 
REMARK       I    between atoms: NBI_11  and  CBM_9 
REMARK    4  A    between atoms: CBX_12  and  NBI_11 
REMARK    5  A    between atoms: CBX_12  and  CBE_13 
REMARK    6  A    between atoms: PBY_20  and  CBX_12 
REMARK    7  A    between atoms: CBE_13  and  CBQ_14 
REMARK    8  A    between atoms: CBF_36  and  PBY_20 
REMARK    9  A    between atoms: N_23  and  CA_24 
REMARK       I    between atoms: CBN_38  and  N_23 
REMARK   10  A    between atoms: CA_24  and  C_25 
REMARK   11  A    between atoms: CA_24  and  CB_28 
REMARK   12  A    between atoms: CB_28  and  CG_29 
REMARK   13  A    between atoms: CZ_32  and  OH_33 
REMARK   14  A    between atoms: CBV_37  and  CBF_36 
REMARK   15  A    between atoms: CBV_37  and  CBN_38 
REMARK   16  A    between atoms: CBV_37  and  CBC_40 
REMARK   17  A    between atoms: CBC_40  and  CBS_41 
REMARK   18  A    between atoms: CBU_45  and  CBT_46 
ROOT
ATOM      1  CBV MOL d          15.147  -5.500 -23.034  0.00  0.00     0.093 C 
ENDROOT
BRANCH   1   2
ATOM      2  CBF MOL d          15.193  -5.196 -21.521  0.00  0.00     0.120 C 
BRANCH   2   3
ATOM      3  PBY MOL d          15.197  -3.425 -21.119  0.00  0.00     0.130 P 
ATOM      4  OAG MOL d          16.724  -3.064 -20.872  0.00  0.00    -0.666 OA
ATOM      5  OAD MOL d          14.519  -2.561 -22.116  0.00  0.00    -0.666 OA
BRANCH   3   6
ATOM      6  CBX MOL d          14.416  -3.187 -19.472  0.00  0.00     0.182 C 
BRANCH   6   7
ATOM      7  NBI MOL d          14.688  -1.811 -19.044  0.00  0.00    -0.322 N 
ATOM      8  CBM MOL d          15.631  -1.470 -18.167  0.00  0.00     0.361 C 
ATOM      9  OAB MOL d          16.382  -2.275 -17.606  0.00  0.00    -0.238 OA
ATOM     10  H8  MOL d          14.129  -1.081 -19.436  0.00  0.00     0.165 HD
BRANCH   8  11
ATOM     11  OBJ MOL d          15.690  -0.135 -17.908  0.00  0.00    -0.299 OA
BRANCH  11  12
ATOM     12  CBB MOL d          16.737   0.442 -17.105  0.00  0.00     0.219 C 
BRANCH  12  13
ATOM     13  CBP MOL d          16.618   1.826 -16.897  0.00  0.00    -0.034 A 
ATOM     14  CAQ MOL d          16.458   2.672 -17.999  0.00  0.00     0.009 A 
ATOM     15  CAK MOL d          16.318   4.051 -17.815  0.00  0.00     0.001 A 
ATOM     16  CAH MOL d          16.336   4.589 -16.531  0.00  0.00     0.000 A 
ATOM     17  CAL MOL d          16.489   3.745 -15.433  0.00  0.00     0.001 A 
ATOM     18  CAR MOL d          16.627   2.366 -15.613  0.00  0.00     0.009 A 
ENDBRANCH  12  13
ENDBRANCH  11  12
ENDBRANCH   8  11
ENDBRANCH   6   7
BRANCH   6  19
ATOM     19  CBE MOL d          12.898  -3.415 -19.494  0.00  0.00     0.074 C 
BRANCH  19  20
ATOM     20  CBQ MOL d          12.278  -3.162 -18.107  0.00  0.00    -0.056 A 
ATOM     21  CAS MOL d          12.146  -4.218 -17.201  0.00  0.00     0.007 A 
ATOM     22  CAM MOL d          11.588  -3.991 -15.941  0.00  0.00     0.001 A 
ATOM     23  CAI MOL d          11.166  -2.710 -15.582  0.00  0.00     0.000 A 
ATOM     24  CAN MOL d          11.305  -1.650 -16.482  0.00  0.00     0.001 A 
ATOM     25  CAT MOL d          11.859  -1.880 -17.744  0.00  0.00     0.007 A 
ENDBRANCH  19  20
ENDBRANCH   6  19
ENDBRANCH   3   6
ENDBRANCH   2   3
ENDBRANCH   1   2
BRANCH   1  26
ATOM     26  CBN MOL d          13.791  -5.076 -23.632  0.00  0.00     0.223 C 
ATOM     27  N   MOL d          13.802  -4.729 -24.921  0.00  0.00    -0.346 N 
ATOM     28  H17 MOL d          14.677  -4.663 -25.401  0.00  0.00     0.163 HD
ATOM     29  OAC MOL d          12.771  -5.098 -22.943  0.00  0.00    -0.273 OA
BRANCH  27  30
ATOM     30  CA  MOL d          12.561  -4.441 -25.653  0.00  0.00     0.189 C 
BRANCH  30  31
ATOM     31  C   MOL d          11.885  -5.795 -25.964  0.00  0.00     0.197 C 
ATOM     32  OXT MOL d          12.489  -6.816 -25.588  0.00  0.00    -0.646 OA
ATOM     33  O   MOL d          10.758  -5.797 -26.504  0.00  0.00    -0.646 OA
ENDBRANCH  30  31
BRANCH  30  34
ATOM     34  CB  MOL d          12.801  -3.638 -26.938  0.00  0.00     0.074 C 
BRANCH  34  35
ATOM     35  CG  MOL d          14.092  -3.937 -27.709  0.00  0.00    -0.056 A 
ATOM     36  CD1 MOL d          14.091  -4.888 -28.729  0.00  0.00     0.010 A 
ATOM     37  CE1 MOL d          15.266  -5.151 -29.442  0.00  0.00     0.037 A 
ATOM     38  CZ  MOL d          16.435  -4.449 -29.139  0.00  0.00     0.065 A 
ATOM     39  CE2 MOL d          16.434  -3.492 -28.126  0.00  0.00     0.037 A 
ATOM     40  CD2 MOL d          15.264  -3.235 -27.411  0.00  0.00     0.010 A 
BRANCH  38  41
ATOM     41  OH  MOL d          17.585  -4.689 -29.834  0.00  0.00    -0.361 OA
ATOM     42  H23 MOL d          18.277  -4.130 -29.501  0.00  0.00     0.217 HD
ENDBRANCH  38  41
ENDBRANCH  34  35
ENDBRANCH  30  34
ENDBRANCH  27  30
ENDBRANCH   1  26
BRANCH   1  43
ATOM     43  CBC MOL d          16.340  -4.882 -23.784  0.00  0.00     0.082 C 
BRANCH  43  44
ATOM     44  CBS MOL d          16.820  -5.640 -25.039  0.00  0.00     0.082 A 
ATOM     45  CBA MOL d          16.298  -6.656 -25.733  0.00  0.00     0.069 A 
ATOM     46  CBU MOL d          17.105  -6.947 -26.772  0.00  0.00     0.097 A 
ATOM     47  NBG MOL d          18.146  -6.123 -26.741  0.00  0.00    -0.128 NA
ATOM     48  OBK MOL d          17.984  -5.276 -25.637  0.00  0.00    -0.217 OA
BRANCH  46  49
ATOM     49  CBT MOL d          16.937  -7.942 -27.740  0.00  0.00    -0.005 A 
ATOM     50  CAU MOL d          16.174  -9.077 -27.480  0.00  0.00     0.014 A 
ATOM     51  CAO MOL d          16.022 -10.070 -28.449  0.00  0.00     0.001 A 
ATOM     52  CAJ MOL d          16.635  -9.936 -29.692  0.00  0.00     0.000 A 
ATOM     53  CAP MOL d          17.404  -8.800 -29.960  0.00  0.00     0.001 A 
ATOM     54  CAV MOL d          17.560  -7.812 -28.983  0.00  0.00     0.014 A 
ENDBRANCH  46  49
ENDBRANCH  43  44
ENDBRANCH   1  43
TORSDOF 18
