REMARK  3 active torsions:
REMARK  status: ('A' for Active; 'I' for Inactive)
REMARK    1  A    between atoms: C1'_1  and  C2_7 
REMARK    2  A    between atoms: C2_7  and  C1_8 
REMARK    3  A    between atoms: C1_8  and  N_9 
ROOT
ATOM      1  C1' PEA d          93.935  77.883 -16.731  0.00  0.00    -0.057 A 
ATOM      2  C6' PEA d          94.812  78.233 -17.754  0.00  0.00     0.007 A 
ATOM      3  C5' PEA d          94.646  77.729 -19.043  0.00  0.00     0.001 A 
ATOM      4  C4' PEA d          93.585  76.864 -19.316  0.00  0.00     0.000 A 
ATOM      5  C3' PEA d          92.704  76.511 -18.300  0.00  0.00     0.001 A 
ATOM      6  C2' PEA d          92.883  77.021 -17.015  0.00  0.00     0.007 A 
ENDROOT
BRANCH   1   7
ATOM      7  C2  PEA d          94.127  78.420 -15.337  0.00  0.00     0.065 C 
BRANCH   7   8
ATOM      8  C1  PEA d          94.660  79.840 -15.293  0.00  0.00     0.234 C 
BRANCH   8   9
ATOM      9  N   PEA d          94.893  80.277 -13.897  0.00  0.00    -0.079 N 
ATOM     10  H10 PEA d          95.246  81.221 -13.895  0.00  0.00     0.274 HD
ATOM     11  H11 PEA d          95.566  79.666 -13.461  0.00  0.00     0.274 HD
ATOM     12  H12 PEA d          94.026  80.242 -13.385  0.00  0.00     0.274 HD
ENDBRANCH   8   9
ENDBRANCH   7   8
ENDBRANCH   1   7
TORSDOF 3
