REMARK  5 active torsions:
REMARK  status: ('A' for Active; 'I' for Inactive)
REMARK    1  A    between atoms: C5'_2  and  O5'_1 
REMARK    2  A    between atoms: C5'_2  and  C4'_3 
REMARK    3  A    between atoms: C3'_5  and  O3'_6 
REMARK    4  A    between atoms: C2'_7  and  O2'_8 
REMARK    5  A    between atoms: C1'_9  and  C9_10 
ROOT
ATOM      1  C4' IMH d          20.221  88.713  75.698  0.00  0.00     0.241 C 
ATOM      2  N4' IMH d          20.068  89.702  74.626  0.00  0.00    -0.055 N 
ATOM      3  C3' IMH d          20.189  87.353  74.951  0.00  0.00     0.182 C 
ATOM      4  C2' IMH d          20.701  87.680  73.491  0.00  0.00     0.184 C 
ATOM      5  C1' IMH d          20.618  89.215  73.368  0.00  0.00     0.254 C 
ATOM      6  H5  IMH d          20.550  90.547  74.889  0.00  0.00     0.278 HD
ATOM      7  H6  IMH d          19.088  89.900  74.500  0.00  0.00     0.278 HD
ENDROOT
BRANCH   5   8
ATOM      8  C9  IMH d          22.050  89.952  73.112  0.00  0.00     0.022 A 
ATOM      9  C4  IMH d          23.278  89.313  72.716  0.00  0.00     0.100 A 
ATOM     10  C5  IMH d          24.205  90.285  72.646  0.00  0.00     0.130 A 
ATOM     11  N3  IMH d          23.491  87.997  72.459  0.00  0.00    -0.241 NA
ATOM     12  N7  IMH d          23.662  91.548  72.946  0.00  0.00    -0.359 N 
ATOM     13  C6  IMH d          25.600  90.006  72.264  0.00  0.00     0.275 A 
ATOM     14  C8  IMH d          22.284  91.271  73.243  0.00  0.00     0.100 A 
ATOM     15  H13 IMH d          24.141  92.460  72.951  0.00  0.00     0.165 HD
ATOM     16  N1  IMH d          25.742  88.625  72.015  0.00  0.00    -0.316 N 
ATOM     17  O6  IMH d          26.552  90.796  72.207  0.00  0.00    -0.266 OA
ATOM     18  C2  IMH d          24.718  87.648  72.105  0.00  0.00     0.210 A 
ATOM     19  H14 IMH d          26.651  88.304  71.750  0.00  0.00     0.170 HD
ENDBRANCH   5   8
BRANCH   4  20
ATOM     20  O2' IMH d          19.895  87.071  72.458  0.00  0.00    -0.390 OA
ATOM     21  H10 IMH d          18.992  87.349  72.557  0.00  0.00     0.210 HD
ENDBRANCH   4  20
BRANCH   1  22
ATOM     22  C5' IMH d          21.538  89.154  76.412  0.00  0.00     0.199 C 
BRANCH  22  23
ATOM     23  O5' IMH d          21.748  90.564  76.598  0.00  0.00    -0.399 OA
ATOM     24  H1  IMH d          22.577  90.704  77.040  0.00  0.00     0.209 HD
ENDBRANCH  22  23
ENDBRANCH   1  22
BRANCH   3  25
ATOM     25  O3' IMH d          18.859  86.764  74.862  0.00  0.00    -0.391 OA
ATOM     26  H8  IMH d          18.901  85.966  74.349  0.00  0.00     0.210 HD
ENDBRANCH   3  25
TORSDOF 5
