REMARK  19 active torsions:
REMARK  status: ('A' for Active; 'I' for Inactive)
REMARK    1  A    between atoms: OBI_2  and  CBK_3 
REMARK       I    between atoms: CBK_3  and  N_5 
REMARK    2  A    between atoms: N_5  and  CA_6 
REMARK    3  A    between atoms: CA_6  and  CB_7 
REMARK    4  A    between atoms: CA_6  and  C_11 
REMARK       I    between atoms: C_11  and  NBG_13 
REMARK    5  A    between atoms: NBG_13  and  CBT_14 
REMARK    6  A    between atoms: CBT_14  and  CBA_15 
REMARK    7  A    between atoms: CBT_14  and  CBS_22 
REMARK    8  A    between atoms: CBA_15  and  CBO_16 
REMARK    9  A    between atoms: CBS_22  and  OAM_23 
REMARK   10  A    between atoms: CBS_22  and  CBC_24 
REMARK   11  A    between atoms: CBC_24  and  NBW_25 
REMARK   12  A    between atoms: NBW_25  and  NBH_26 
REMARK   13  A    between atoms: NBW_25  and  CBB_39 
REMARK       I    between atoms: NBH_26  and  CBN_27 
REMARK   14  A    between atoms: CBN_27  and  CBV_29 
REMARK   15  A    between atoms: CBV_29  and  CBY_30 
REMARK   16  A    between atoms: CBV_29  and  NBF_34 
REMARK       I    between atoms: NBF_34  and  CBL_35 
REMARK   17  A    between atoms: CBL_35  and  OBJ_37 
REMARK   18  A    between atoms: CBB_39  and  CBP_40 
REMARK   19  A    between atoms: CBQ_45  and  CBR_46 
ROOT
ATOM      1  NBW DR7 d          19.686   0.580  18.065  0.00  0.00     0.017 N 
ATOM      2  H28 DR7 d          20.054  -0.344  18.230  0.00  0.00     0.309 HD
ENDROOT
BRANCH   1   3
ATOM      3  CBC DR7 d          19.326   0.601  16.656  0.00  0.00     0.296 C 
BRANCH   3   4
ATOM      4  CBS DR7 d          20.487   0.009  15.851  0.00  0.00     0.169 C 
BRANCH   4   5
ATOM      5  CBT DR7 d          20.682  -1.496  16.101  0.00  0.00     0.119 C 
BRANCH   5   6
ATOM      6  NBG DR7 d          19.630  -2.290  15.463  0.00  0.00    -0.352 N 
ATOM      7  C   DR7 d          18.790  -3.073  16.149  0.00  0.00     0.241 C 
ATOM      8  O   DR7 d          18.793  -3.215  17.356  0.00  0.00    -0.271 OA
ATOM      9  H15 DR7 d          19.535  -2.245  14.469  0.00  0.00     0.163 HD
BRANCH   7  10
ATOM     10  CA  DR7 d          17.812  -3.843  15.315  0.00  0.00     0.186 C 
BRANCH  10  11
ATOM     11  N   DR7 d          18.300  -5.193  15.126  0.00  0.00    -0.323 N 
ATOM     12  CBK DR7 d          18.475  -5.764  13.937  0.00  0.00     0.360 C 
ATOM     13  OAI DR7 d          18.264  -5.258  12.850  0.00  0.00    -0.239 OA
ATOM     14  H4  DR7 d          18.519  -5.730  15.941  0.00  0.00     0.165 HD
BRANCH  12  15
ATOM     15  OBI DR7 d          18.993  -7.112  14.020  0.00  0.00    -0.309 OA
ATOM     16  CAA DR7 d          19.319  -7.833  12.836  0.00  0.00     0.215 C 
ENDBRANCH  12  15
ENDBRANCH  10  11
BRANCH  10  17
ATOM     17  CB  DR7 d          16.385  -3.915  15.865  0.00  0.00    -0.022 C 
ATOM     18  CAE DR7 d          15.893  -2.491  16.147  0.00  0.00     0.017 C 
ATOM     19  CG2 DR7 d          16.224  -4.770  17.110  0.00  0.00     0.017 C 
ATOM     20  CG1 DR7 d          15.518  -4.544  14.774  0.00  0.00     0.017 C 
ENDBRANCH  10  17
ENDBRANCH   7  10
ENDBRANCH   5   6
BRANCH   5  21
ATOM     21  CBA DR7 d          22.003  -1.982  15.505  0.00  0.00     0.066 C 
BRANCH  21  22
ATOM     22  CBO DR7 d          22.150  -3.481  15.644  0.00  0.00    -0.056 A 
ATOM     23  CAT DR7 d          22.036  -4.308  14.532  0.00  0.00     0.007 A 
ATOM     24  CAP DR7 d          22.167  -5.692  14.689  0.00  0.00     0.001 A 
ATOM     25  CAN DR7 d          22.400  -6.229  15.954  0.00  0.00     0.000 A 
ATOM     26  CAQ DR7 d          22.530  -5.393  17.051  0.00  0.00     0.001 A 
ATOM     27  CAU DR7 d          22.400  -4.017  16.893  0.00  0.00     0.007 A 
ENDBRANCH  21  22
ENDBRANCH   5  21
ENDBRANCH   4   5
BRANCH   4  28
ATOM     28  OAM DR7 d          20.275   0.293  14.480  0.00  0.00    -0.392 OA
ATOM     29  H25 DR7 d          20.159   1.229  14.366  0.00  0.00     0.210 HD
ENDBRANCH   4  28
ENDBRANCH   3   4
ENDBRANCH   1   3
BRANCH   1  30
ATOM     30  NBH DR7 d          20.686   1.400  18.375  0.00  0.00    -0.184 N 
ATOM     31  CBN DR7 d          21.510   1.117  19.370  0.00  0.00     0.265 C 
ATOM     32  OAL DR7 d          21.414   0.124  20.076  0.00  0.00    -0.269 OA
ATOM     33  H29 DR7 d          20.817   2.241  17.849  0.00  0.00     0.197 HD
BRANCH  31  34
ATOM     34  CBV DR7 d          22.572   2.152  19.615  0.00  0.00     0.188 C 
BRANCH  34  35
ATOM     35  CBY DR7 d          23.990   1.596  19.800  0.00  0.00    -0.022 C 
ATOM     36  CAH DR7 d          24.935   2.798  19.804  0.00  0.00     0.017 C 
ATOM     37  CAF DR7 d          24.291   0.710  18.599  0.00  0.00     0.017 C 
ATOM     38  CAG DR7 d          24.193   0.852  21.116  0.00  0.00     0.017 C 
ENDBRANCH  34  35
BRANCH  34  39
ATOM     39  NBF DR7 d          22.142   2.910  20.758  0.00  0.00    -0.323 N 
ATOM     40  CBL DR7 d          22.002   4.230  20.781  0.00  0.00     0.360 C 
ATOM     41  OAJ DR7 d          22.216   5.000  19.853  0.00  0.00    -0.239 OA
ATOM     42  H40 DR7 d          21.933   2.407  21.596  0.00  0.00     0.165 HD
BRANCH  40  43
ATOM     43  OBJ DR7 d          21.554   4.706  22.067  0.00  0.00    -0.309 OA
ATOM     44  CAB DR7 d          21.236   6.096  22.159  0.00  0.00     0.215 C 
ENDBRANCH  40  43
ENDBRANCH  34  39
ENDBRANCH  31  34
ENDBRANCH   1  30
BRANCH   1  45
ATOM     45  CBB DR7 d          18.518   0.679  18.927  0.00  0.00     0.301 C 
BRANCH  45  46
ATOM     46  CBP DR7 d          18.260   2.019  19.580  0.00  0.00    -0.030 A 
ATOM     47  CAW DR7 d          18.273   1.991  20.909  0.00  0.00     0.010 A 
ATOM     48  CAY DR7 d          18.048   3.112  21.559  0.00  0.00     0.014 A 
ATOM     49  CBQ DR7 d          17.820   4.225  20.854  0.00  0.00    -0.007 A 
ATOM     50  CAZ DR7 d          17.806   4.138  19.590  0.00  0.00     0.014 A 
ATOM     51  CAX DR7 d          18.021   3.116  18.997  0.00  0.00     0.010 A 
BRANCH  49  52
ATOM     52  CBR DR7 d          17.521   5.471  21.648  0.00  0.00     0.066 A 
ATOM     53  CAV DR7 d          18.006   5.640  22.947  0.00  0.00     0.032 A 
ATOM     54  CAR DR7 d          17.685   6.781  23.665  0.00  0.00     0.004 A 
ATOM     55  CAO DR7 d          16.857   7.730  23.084  0.00  0.00     0.019 A 
ATOM     56  CAS DR7 d          16.373   7.519  21.800  0.00  0.00     0.117 A 
ATOM     57  NBD DR7 d          16.699   6.409  21.118  0.00  0.00    -0.260 NA
ENDBRANCH  49  52
ENDBRANCH  45  46
ENDBRANCH   1  45
TORSDOF 19
