REMARK  4 active torsions:
REMARK  status: ('A' for Active; 'I' for Inactive)
REMARK    1  A    between atoms: C1_1  and  C7_7 
REMARK    2  A    between atoms: C7_7  and  N1_8 
REMARK    3  A    between atoms: C8_12  and  C1'_13 
REMARK    4  A    between atoms: C6'_18  and  O6'_19 
ROOT
ATOM      1  C1  CR4 d          16.370  -6.158  25.267  0.00  0.00     0.009 A 
ATOM      2  C2  CR4 d          15.410  -5.181  24.818  0.00  0.00     0.017 A 
ATOM      3  C3  CR4 d          15.009  -4.092  25.618  0.00  0.00     0.033 A 
ATOM      4  C4  CR4 d          15.591  -4.025  26.849  0.00  0.00     0.062 A 
ATOM      5  C5  CR4 d          16.499  -4.917  27.308  0.00  0.00     0.086 A 
ATOM      6  C6  CR4 d          16.919  -5.994  26.561  0.00  0.00     0.049 A 
ATOM      7  N3  CR4 d          15.426  -3.165  27.785  0.00  0.00    -0.338 N 
ATOM      8  N4  CR4 d          16.924  -4.645  28.528  0.00  0.00    -0.228 NA
ATOM      9  C8  CR4 d          16.216  -3.553  28.752  0.00  0.00     0.141 A 
ATOM     10  H8  CR4 d          14.804  -2.344  27.777  0.00  0.00     0.167 HD
ENDROOT
BRANCH   9  11
ATOM     11  C1' CR4 d          16.296  -2.869  29.973  0.00  0.00     0.043 A 
ATOM     12  C2' CR4 d          17.284  -3.124  30.947  0.00  0.00     0.018 A 
ATOM     13  C3' CR4 d          17.293  -2.450  32.155  0.00  0.00     0.001 A 
ATOM     14  C4' CR4 d          16.311  -1.495  32.427  0.00  0.00     0.003 A 
ATOM     15  C5' CR4 d          15.326  -1.221  31.480  0.00  0.00     0.037 A 
ATOM     16  C6' CR4 d          15.325  -1.902  30.267  0.00  0.00     0.079 A 
BRANCH  16  17
ATOM     17  O6' CR4 d          14.368  -1.637  29.300  0.00  0.00    -0.360 OA
ATOM     18  H13 CR4 d          14.521  -2.192  28.544  0.00  0.00     0.217 HD
ENDBRANCH  16  17
ENDBRANCH   9  11
BRANCH   1  19
ATOM     19  C7  CR4 d          16.752  -7.237  24.451  0.00  0.00     0.102 C 
ATOM     20  N2  CR4 d          16.036  -7.598  23.434  0.00  0.00    -0.385 N 
ATOM     21  H6  CR4 d          15.168  -7.092  23.210  0.00  0.00     0.157 HD
ATOM     22  H7  CR4 d          16.335  -8.392  22.849  0.00  0.00     0.157 HD
BRANCH  19  23
ATOM     23  N1  CR4 d          17.835  -7.911  24.685  0.00  0.00    -0.385 N 
ATOM     24  H4  CR4 d          18.094  -8.698  24.073  0.00  0.00     0.157 HD
ATOM     25  H5  CR4 d          18.436  -7.660  25.483  0.00  0.00     0.157 HD
ENDBRANCH  19  23
ENDBRANCH   1  19
TORSDOF 4
