REMARK  4 active torsions:
REMARK  status: ('A' for Active; 'I' for Inactive)
REMARK    1  A    between atoms: C1_1  and  C2_2 
REMARK       I    between atoms: C1_1  and  N2_3 
REMARK    2  A    between atoms: C2_2  and  O1P_6 
REMARK    3  A    between atoms: N2_3  and  O2_4 
REMARK    4  A    between atoms: O1P_6  and  P_10 
ROOT
ATOM      1  C1  PGH d           2.570   1.610   5.097  0.00  0.00     0.265 C 
ATOM      2  N2  PGH d           2.948   0.338   5.700  0.00  0.00    -0.236 N 
ATOM      3  O1  PGH d           2.721   1.783   3.932  0.00  0.00    -0.269 OA
ATOM      4  H3  PGH d           2.349  -0.093   6.374  0.00  0.00     0.197 HD
ENDROOT
BRANCH   1   5
ATOM      5  C2  PGH d           1.977   2.725   5.967  0.00  0.00     0.287 C 
BRANCH   5   6
ATOM      6  O1P PGH d           1.749   3.865   5.178  0.00  0.00    -0.273 OA
BRANCH   6   7
ATOM      7  P   PGH d           1.187   5.251   5.887  0.00  0.00     0.422 P 
ATOM      8  O2P PGH d           0.231   6.068   4.818  0.00  0.00    -0.617 OA
ATOM      9  O3P PGH d           0.306   4.864   7.228  0.00  0.00    -0.617 OA
ATOM     10  O4P PGH d           2.318   6.095   6.273  0.00  0.00    -0.617 OA
ENDBRANCH   6   7
ENDBRANCH   5   6
ENDBRANCH   1   5
BRANCH   2  11
ATOM     11  O2  PGH d           4.154  -0.282   5.334  0.00  0.00    -0.287 OA
ATOM     12  H4  PGH d           4.249  -1.096   5.815  0.00  0.00     0.244 HD
ENDBRANCH   2  11
TORSDOF 4
