REMARK  8 active torsions:
REMARK  status: ('A' for Active; 'I' for Inactive)
REMARK    1  A    between atoms: C6_3  and  NAX_15 
REMARK    2  A    between atoms: CAT_10  and  CBN_7 
REMARK    3  A    between atoms: CBD_11  and  CAT_10 
REMARK    4  A    between atoms: NAX_15  and  CBK_16 
REMARK    5  A    between atoms: NBL_21  and  CAR_22 
REMARK    6  A    between atoms: CAR_22  and  CBE_23 
REMARK    7  A    between atoms: NBM_34  and  CAS_35 
REMARK    8  A    between atoms: CAS_35  and  CBA_36 
ROOT
ATOM      1  CBE 3XW d          10.193  17.291  11.301  0.00  0.00    -0.026 A 
ATOM      2  CBB 3XW d           9.046  17.777  11.937  0.00  0.00    -0.042 A 
ATOM      3  CAA 3XW d           7.864  17.053  11.841  0.00  0.00     0.049 C 
ATOM      4  CAH 3XW d          11.347  18.055  11.411  0.00  0.00     0.012 A 
ATOM      5  CAI 3XW d          11.298  19.233  12.159  0.00  0.00     0.031 A 
ATOM      6  CBJ 3XW d          10.175  19.646  12.755  0.00  0.00     0.046 A 
ATOM      7  CBG 3XW d           9.054  18.926  12.646  0.00  0.00     0.000 A 
ATOM      8  CAL 3XW d           8.099  19.578  13.340  0.00  0.00     0.055 A 
ATOM      9  CBC 3XW d           8.640  20.689  13.858  0.00  0.00     0.117 A 
ATOM     10  CAF 3XW d           8.033  21.632  14.638  0.00  0.00     0.118 C 
ATOM     11  NAB 3XW d           7.600  22.358  15.228  0.00  0.00    -0.190 NA
ATOM     12  NBM 3XW d           9.901  20.731  13.494  0.00  0.00    -0.333 N 
ENDROOT
BRANCH  12  13
ATOM     13  CAS 3XW d          10.787  21.798  13.917  0.00  0.00     0.171 C 
BRANCH  13  14
ATOM     14  CBA 3XW d          10.898  22.977  12.964  0.00  0.00    -0.004 A 
ATOM     15  CAJ 3XW d           9.966  23.820  12.596  0.00  0.00     0.148 A 
ATOM     16  NAU 3XW d          10.614  24.630  11.765  0.00  0.00    -0.187 NA
ATOM     17  NAY 3XW d          11.759  24.349  11.629  0.00  0.00    -0.289 N 
ATOM     18  CAK 3XW d          12.036  23.288  12.370  0.00  0.00     0.119 A 
ATOM     19  H27 3XW d          12.430  24.851  11.030  0.00  0.00     0.188 HD
ENDBRANCH  13  14
ENDBRANCH  12  13
BRANCH   1  20
ATOM     20  CAR 3XW d          10.148  16.089  10.542  0.00  0.00     0.274 C 
BRANCH  20  21
ATOM     21  NBL 3XW d          11.116  15.003  10.872  0.00  0.00    -0.067 N 
ATOM     22  CAQ 3XW d          10.709  14.404  12.139  0.00  0.00     0.237 C 
ATOM     23  CAO 3XW d          11.690  13.328  12.500  0.00  0.00     0.053 C 
ATOM     24  CBK 3XW d          11.621  12.146  11.547  0.00  0.00     0.086 C 
ATOM     25  CAN 3XW d          11.854  12.702  10.139  0.00  0.00     0.053 C 
ATOM     26  CAP 3XW d          10.959  13.944   9.871  0.00  0.00     0.237 C 
ATOM     27  H15 3XW d          12.061  15.351  10.907  0.00  0.00     0.280 HD
BRANCH  24  28
ATOM     28  NAX 3XW d          12.656  11.139  11.923  0.00  0.00    -0.369 N 
ATOM     29  H5  3XW d          13.601  11.489  12.134  0.00  0.00     0.161 HD
BRANCH  28  30
ATOM     30  C6  3XW d          12.454   9.801  12.010  0.00  0.00     0.138 A 
ATOM     31  C5  3XW d          13.472   8.979  12.390  0.00  0.00     0.046 A 
ATOM     32  C4  3XW d          13.219   7.646  12.476  0.00  0.00     0.113 A 
ATOM     33  CAM 3XW d          14.774   9.230  12.723  0.00  0.00     0.033 A 
ATOM     34  N3  3XW d          12.034   7.103  12.177  0.00  0.00    -0.234 NA
ATOM     35  SAZ 3XW d          14.540   6.888  12.986  0.00  0.00    -0.074 SA
ATOM     36  C2  3XW d          10.985   7.942  11.816  0.00  0.00     0.236 A 
ATOM     37  N1  3XW d          11.242   9.310  11.723  0.00  0.00    -0.224 NA
ATOM     38  CBD 3XW d          15.459   8.137  13.041  0.00  0.00    -0.006 A 
BRANCH  38  39
ATOM     39  CAT 3XW d          16.921   8.096  13.428  0.00  0.00     0.163 C 
BRANCH  39  40
ATOM     40  CBN 3XW d          17.813   7.679  12.181  0.00  0.00     0.392 C 
ATOM     41  FAC 3XW d          17.589   8.518  11.175  0.00  0.00    -0.171 F 
ATOM     42  FAD 3XW d          19.097   7.726  12.519  0.00  0.00    -0.171 F 
ATOM     43  FAE 3XW d          17.499   6.443  11.805  0.00  0.00    -0.171 F 
ENDBRANCH  39  40
ENDBRANCH  38  39
ENDBRANCH  28  30
ENDBRANCH  24  28
ENDBRANCH  20  21
ENDBRANCH   1  20
TORSDOF 8
