REMARK  0 active torsions:
REMARK  status: ('A' for Active; 'I' for Inactive)
ROOT
ATOM      1  C1  HUB d           1.068  68.771  61.163  0.00  0.00     0.245 A 
ATOM      2  O1  HUB d           0.440  69.208  60.196  0.00  0.00    -0.268 OA
ATOM      3  N1  HUB d           2.353  68.265  60.983  0.00  0.00    -0.327 N 
ATOM      4  C2  HUB d           0.544  68.745  62.517  0.00  0.00     0.075 A 
ATOM      5  C3  HUB d           1.302  68.245  63.545  0.00  0.00     0.017 A 
ATOM      6  C4  HUB d           2.635  67.728  63.356  0.00  0.00     0.001 A 
ATOM      7  C5  HUB d           3.149  67.734  62.013  0.00  0.00     0.021 A 
ATOM      8  C6  HUB d           4.520  67.211  61.630  0.00  0.00     0.066 C 
ATOM      9  C7  HUB d           5.312  66.528  62.852  0.00  0.00     0.021 C 
ATOM     10  C8  HUB d           4.889  65.046  63.024  0.00  0.00    -0.019 C 
ATOM     11  C9  HUB d           5.125  69.456  65.431  0.00  0.00     0.028 C 
ATOM     12  C10 HUB d           5.432  68.738  64.106  0.00  0.00     0.010 C 
ATOM     13  C11 HUB d           5.024  67.256  64.187  0.00  0.00     0.035 C 
ATOM     14  C12 HUB d           3.516  67.141  64.569  0.00  0.00     0.162 C 
ATOM     15  N2  HUB d           3.239  67.879  65.858  0.00  0.00    -0.061 N 
ATOM     16  C13 HUB d           3.112  65.642  64.749  0.00  0.00     0.078 C 
ATOM     17  C14 HUB d           3.887  64.648  63.892  0.00  0.00    -0.084 C 
ATOM     18  C15 HUB d           3.465  63.214  64.087  0.00  0.00     0.043 C 
ATOM     19  C90 HUB d           3.651  69.386  65.801  0.00  0.00     0.233 C 
ATOM     20  H1  HUB d           2.735  68.280  60.059  0.00  0.00     0.169 HD
ATOM     21  H13 HUB d           3.755  67.433  66.600  0.00  0.00     0.278 HD
ATOM     22  H14 HUB d           2.252  67.823  66.054  0.00  0.00     0.278 HD
ENDROOT
TORSDOF 0
