1oth_ligand

Created by X-TOOL on Fri Sep 26 17:34:15 2014
 29 28  0  0  0  0  0  0  0  0999 V2000
    5.1240    4.3770  -23.5400  N 0  3  0  4  0  4
    3.9640    4.1260  -22.7050  C 0  0  0  2  0  4
    3.0140    3.1880  -23.4580  C 0  0  0  3  0  4
    1.6420    2.9820  -22.8120  C 0  0  0  3  0  4
    0.8040    1.9740  -23.6080  C 0  0  0  3  0  4
   -0.6030    2.0950  -23.2570  N 0  0  0  2  0  3
    4.4530    3.4980  -21.4060  C 0  5  0  1  0  3
    4.0350    3.9450  -20.3410  O 0  0  0  1  0  1
    5.2710    2.5840  -21.4690  O 0  0  0  1  0  1
   -1.4600    1.0690  -23.2840  C 0  0  0  1  0  3
   -1.1480   -0.0840  -23.5820  O 0  0  0  1  0  1
   -2.8640    1.4360  -22.8430  C 0  0  0  3  0  4
   -3.1060    0.8570  -21.1450  P 0  0  0  1  0  4
   -1.8480    1.2590  -20.2430  O 0  0  0  1  0  1
   -3.2630   -0.7220  -21.1320  O 0  0  0  1  0  1
   -4.4170    1.5340  -20.5410  O 0  0  0  1  0  1
    4.8286    4.7938  -24.4090  H 0  0  0  1  0  1
    5.5970    3.5070  -23.7284  H 0  0  0  1  0  1
    5.7521    5.0045  -23.0628  H 0  0  0  1  0  1
    3.4453    5.0706  -22.4843  H 0  0  0  1  0  1
    3.5015    2.2052  -23.5386  H 0  0  0  1  0  1
    2.8558    3.6025  -24.4645  H 0  0  0  1  0  1
    1.1113    3.9450  -22.7803  H 0  0  0  1  0  1
    1.7798    2.6054  -21.7877  H 0  0  0  1  0  1
    1.1484    0.9549  -23.3785  H 0  0  0  1  0  1
    0.9273    2.1692  -24.6835  H 0  0  0  1  0  1
   -0.9470    2.9925  -22.9811  H 0  0  0  1  0  1
   -3.5983    0.9557  -23.5064  H 0  0  0  1  0  1
   -2.9918    2.5278  -22.8839  H 0  0  0  1  0  1
  1  2  1  0  0  2
  2  3  1  0  0  2
  2  7  1  0  0  2
  3  4  1  0  0  2
  4  5  1  0  0  2
  5  6  1  0  0  2
  6 10  1  0  0  2
  7  8  2  0  0  2
  7  9  2  0  0  2
 10 11  2  0  0  2
 10 12  1  0  0  2
 12 13  1  0  0  2
 13 14  2  0  0  2
 13 15  2  0  0  2
 13 16  2  0  0  2
  1 17  1  0  0  2
  1 18  1  0  0  2
  1 19  1  0  0  2
  2 20  1  0  0  2
  3 21  1  0  0  2
  3 22  1  0  0  2
  4 23  1  0  0  2
  4 24  1  0  0  2
  5 25  1  0  0  2
  5 26  1  0  0  2
  6 27  1  0  0  2
 12 28  1  0  0  2
 12 29  1  0  0  2
M  END
> <MOLECULAR_FORMULA>
C7H13N2O6P

> <MOLECULAR_WEIGHT>
252.1

> <NUM_HB_ATOMS>
8  

> <NUM_ROTOR>
5  

> <XLOGP2>
-4.30

$$$$
