REMARK  2 active torsions:
REMARK  status: ('A' for Active; 'I' for Inactive)
REMARK    1  A    between atoms: C2_2  and  C11_7 
REMARK    2  A    between atoms: C11_7  and  C1_8 
ROOT
ATOM      1  C1  L86 d          18.119 -17.362  24.148  0.00  0.00     0.113 C 
ATOM      2  N18 L86 d          17.483 -16.159  23.554  0.00  0.00    -0.364 N 
ATOM      3  C21 L86 d          18.168 -15.422  22.550  0.00  0.00     0.193 A 
ATOM      4  C22 L86 d          17.655 -14.129  22.072  0.00  0.00     0.295 A 
ATOM      5  N23 L86 d          18.401 -13.404  21.144  0.00  0.00    -0.291 N 
ATOM      6  C24 L86 d          19.703 -13.784  20.615  0.00  0.00     0.126 A 
ATOM      7  C25 L86 d          20.155 -15.015  21.118  0.00  0.00     0.161 A 
ATOM      8  N3  L86 d          19.431 -15.784  22.022  0.00  0.00    -0.235 NA
ATOM      9  O28 L86 d          16.582 -13.711  22.508  0.00  0.00    -0.264 OA
ATOM     10 CL2  L86 d          20.549 -12.938  19.421  0.00  0.00    -0.063 Cl
ATOM     11  C33 L86 d          17.822 -12.154  20.619  0.00  0.00     0.236 C 
ATOM     12  C34 L86 d          16.400 -12.388  20.136  0.00  0.00     0.236 C 
ATOM     13  N37 L86 d          15.560 -11.367  20.384  0.00  0.00    -0.355 N 
ATOM     14  O38 L86 d          16.101 -13.425  19.543  0.00  0.00    -0.272 OA
ATOM     15  C39 L86 d          14.119 -11.508  20.073  0.00  0.00     0.161 C 
ATOM     16  C40 L86 d          13.222 -11.490  21.309  0.00  0.00    -0.034 A 
ATOM     17  C43 L86 d          12.398 -12.636  21.643  0.00  0.00    -0.049 A 
ATOM     18  C44 L86 d          11.526 -12.624  22.798  0.00  0.00     0.007 A 
ATOM     19  C45 L86 d          11.483 -11.419  23.605  0.00  0.00     0.001 A 
ATOM     20  C15 L86 d          13.186 -10.286  22.130  0.00  0.00     0.009 A 
ATOM     21  C9  L86 d          12.410 -13.893  20.773  0.00  0.00     0.066 C 
ATOM     22  C50 L86 d          12.302 -10.267  23.276  0.00  0.00     0.001 A 
ATOM     23  C3  L86 d          13.632 -14.758  21.130  0.00  0.00     0.237 C 
ATOM     24  C7  L86 d          17.041 -18.452  24.215  0.00  0.00     0.257 C 
ATOM     25  N2  L86 d          16.659 -19.013  22.887  0.00  0.00    -0.073 N 
ATOM     26  N5  L86 d          13.657 -15.931  20.238  0.00  0.00    -0.075 N 
ATOM     27  C12 L86 d          14.943 -16.686  20.279  0.00  0.00     0.233 C 
ATOM     28  C13 L86 d          15.115 -17.459  21.601  0.00  0.00     0.055 C 
ATOM     29  C14 L86 d          16.431 -18.296  21.603  0.00  0.00     0.234 C 
ATOM     30  H9  L86 d          16.549 -15.860  23.868  0.00  0.00     0.161 HD
ATOM     31  H13 L86 d          15.907 -10.516  20.777  0.00  0.00     0.162 HD
ATOM     32  H26 L86 d          15.794 -19.501  23.059  0.00  0.00     0.277 HD
ATOM     33  H27 L86 d          17.385 -19.680  22.677  0.00  0.00     0.277 HD
ATOM     34  H28 L86 d          13.503 -15.616  19.293  0.00  0.00     0.277 HD
ATOM     35  H29 L86 d          12.913 -16.554  20.510  0.00  0.00     0.277 HD
ENDROOT
BRANCH   1  36
ATOM     36  C11 L86 d          18.666 -17.028  25.572  0.00  0.00     0.065 C 
BRANCH  36  37
ATOM     37  C2  L86 d          19.872 -16.097  25.469  0.00  0.00    -0.056 A 
ATOM     38  C8  L86 d          19.750 -14.690  25.843  0.00  0.00     0.007 A 
ATOM     39  C6  L86 d          20.864 -13.786  25.575  0.00  0.00     0.001 A 
ATOM     40  C5  L86 d          22.073 -14.328  24.953  0.00  0.00     0.000 A 
ATOM     41  C4  L86 d          22.215 -15.745  24.616  0.00  0.00     0.001 A 
ATOM     42  C10 L86 d          21.104 -16.645  24.897  0.00  0.00     0.007 A 
ENDBRANCH  36  37
ENDBRANCH   1  36
TORSDOF 2
