REMARK  2 active torsions:
REMARK  status: ('A' for Active; 'I' for Inactive)
REMARK    1  A    between atoms: C13_13  and  C10_10 
REMARK    2  A    between atoms: C16_16  and  C11_11 
ROOT
ATOM      1  C12 1JR d          -2.942   2.953   9.491  0.00  0.00     0.034 A 
ATOM      2  C13 1JR d          -3.164   3.904  10.511  0.00  0.00     0.071 A 
ATOM      3  C14 1JR d          -3.079   1.735  10.103  0.00  0.00     0.155 A 
ATOM      4  C15 1JR d          -2.887   0.650   9.213  0.00  0.00     0.273 C 
ATOM      5  C16 1JR d          -2.601   2.751   8.058  0.00  0.00     0.158 C 
ATOM      6  N18 1JR d          -3.426   3.270  11.680  0.00  0.00    -0.276 N 
ATOM      7  N19 1JR d          -3.371   1.947  11.396  0.00  0.00    -0.168 NA
ATOM      8  N20 1JR d          -2.751   1.281   7.976  0.00  0.00    -0.343 N 
ATOM      9  O21 1JR d          -2.873  -0.545   9.445  0.00  0.00    -0.266 OA
ATOM     10  H11 1JR d          -3.625   3.704  12.593  0.00  0.00     0.189 HD
ATOM     11  H12 1JR d          -2.755   0.783   7.109  0.00  0.00     0.163 HD
ENDROOT
BRANCH   2  12
ATOM     12  C10 1JR d          -3.144   5.364  10.468  0.00  0.00    -0.007 A 
ATOM     13  C5  1JR d          -3.633   6.106  11.554  0.00  0.00     0.014 A 
ATOM     14  C2  1JR d          -3.617   7.505  11.533  0.00  0.00     0.001 A 
ATOM     15  C1  1JR d          -3.111   8.175  10.420  0.00  0.00     0.000 A 
ATOM     16  C3  1JR d          -2.619   7.447   9.335  0.00  0.00     0.001 A 
ATOM     17  C6  1JR d          -2.629   6.049   9.357  0.00  0.00     0.014 A 
ENDBRANCH   2  12
BRANCH   5  18
ATOM     18  C11 1JR d          -3.543   3.473   7.135  0.00  0.00    -0.013 A 
ATOM     19  C7  1JR d          -3.081   4.525   6.333  0.00  0.00     0.012 A 
ATOM     20  C4  1JR d          -3.955   5.176   5.467  0.00  0.00     0.020 A 
ATOM     21  C8  1JR d          -5.271   4.750   5.415  0.00  0.00     0.116 A 
ATOM     22  N17 1JR d          -5.759   3.735   6.158  0.00  0.00    -0.272 NA
ATOM     23  C9  1JR d          -4.884   3.118   6.987  0.00  0.00     0.125 A 
ENDBRANCH   5  18
TORSDOF 2
