REMARK  14 active torsions:
REMARK  status: ('A' for Active; 'I' for Inactive)
REMARK    1  A    between atoms: CA_15  and  CB_16 
REMARK    2  A    between atoms: CCA_22  and  OAK_23 
REMARK    3  A    between atoms: CCA_22  and  CBD_24 
REMARK    4  A    between atoms: CBD_24  and  CBA_25 
REMARK    5  A    between atoms: CBA_25  and  CBC_26 
REMARK    6  A    between atoms: CBC_26  and  NBY_27 
REMARK    7  A    between atoms: NBY_27  and  NBK_28 
REMARK    8  A    between atoms: NBY_27  and  CBE_41 
REMARK       I    between atoms: NBK_28  and  CBO_29 
REMARK    9  A    between atoms: CBO_29  and  CBX_31 
REMARK   10  A    between atoms: CBX_31  and  CBZ_32 
REMARK   11  A    between atoms: CBX_31  and  NBI_36 
REMARK       I    between atoms: NBI_36  and  CBM_37 
REMARK   12  A    between atoms: CBM_37  and  OBL_39 
REMARK   13  A    between atoms: CBE_41  and  CBR_42 
REMARK   14  A    between atoms: CBU_47  and  CAQ_49 
ROOT
ATOM      1  NBY MOL d          15.283  22.276   7.135  0.00  0.00     0.015 N 
ATOM      2  H   MOL d          14.365  21.881   7.268  0.00  0.00     0.309 HD
ENDROOT
BRANCH   1   3
ATOM      3  CBC MOL d          15.174  23.672   6.703  0.00  0.00     0.263 C 
BRANCH   3   4
ATOM      4  CBA MOL d          13.719  24.074   6.451  0.00  0.00     0.033 C 
BRANCH   4   5
ATOM      5  CBD MOL d          13.230  23.413   5.157  0.00  0.00     0.050 C 
BRANCH   5   6
ATOM      6  CCA MOL d          12.032  24.173   4.572  0.00  0.00     0.142 C 
ATOM      7  CBF MOL d          11.523  23.388   3.348  0.00  0.00     0.086 C 
ATOM      8  CBS MOL d          10.263  23.837   2.947  0.00  0.00    -0.055 A 
ATOM      9  CAT MOL d           9.133  23.055   3.169  0.00  0.00     0.008 A 
ATOM     10  CAU MOL d          10.135  25.045   2.279  0.00  0.00     0.008 A 
ATOM     11  CAR MOL d           7.872  23.528   2.820  0.00  0.00     0.008 A 
ATOM     12  CBQ MOL d           7.738  24.750   2.167  0.00  0.00    -0.055 A 
ATOM     13  CAS MOL d           8.872  25.524   1.947  0.00  0.00     0.008 A 
ATOM     14  CBB MOL d           6.479  25.265   1.831  0.00  0.00     0.065 C 
ATOM     15  CAM MOL d           5.493  24.852   2.732  0.00  0.00    -0.025 C 
ATOM     16  CAL MOL d           5.169  25.598   3.869  0.00  0.00    -0.011 C 
ATOM     17  CAZ MOL d           6.045  26.542   4.417  0.00  0.00     0.149 C 
ATOM     18  NBH MOL d           6.967  25.869   5.362  0.00  0.00    -0.356 N 
ATOM     19  C   MOL d           8.159  26.488   5.747  0.00  0.00     0.241 C 
ATOM     20  H   MOL d           6.735  24.967   5.726  0.00  0.00     0.162 HD
ATOM     21  O   MOL d           8.395  27.603   5.265  0.00  0.00    -0.271 OA
ATOM     22  CA  MOL d           9.121  25.719   6.449  0.00  0.00     0.180 C 
ATOM     23  N   MOL d          10.375  25.571   5.658  0.00  0.00    -0.345 N 
ATOM     24  CBP MOL d          11.004  24.328   5.526  0.00  0.00     0.253 C 
ATOM     25  H   MOL d          10.774  26.373   5.214  0.00  0.00     0.163 HD
ATOM     26  OAJ MOL d          10.577  23.371   6.186  0.00  0.00    -0.270 OA
BRANCH  22  27
ATOM     27  CB  MOL d           9.380  26.281   7.867  0.00  0.00     0.009 C 
ATOM     28  CG1 MOL d          10.692  25.725   8.434  0.00  0.00     0.012 C 
ATOM     29  CG2 MOL d           9.432  27.811   7.862  0.00  0.00     0.012 C 
ENDBRANCH  22  27
BRANCH   6  30
ATOM     30  OAK MOL d          12.492  25.464   4.138  0.00  0.00    -0.380 OA
ATOM     31  H   MOL d          11.770  25.942   3.747  0.00  0.00     0.211 HD
ENDBRANCH   6  30
ENDBRANCH   5   6
ENDBRANCH   4   5
ENDBRANCH   3   4
ENDBRANCH   1   3
BRANCH   1  32
ATOM     32  NBK MOL d          15.867  21.656   6.296  0.00  0.00    -0.185 N 
ATOM     33  CBO MOL d          15.230  20.641   5.672  0.00  0.00     0.265 C 
ATOM     34  OAI MOL d          14.094  20.255   5.969  0.00  0.00    -0.269 OA
ATOM     35  H   MOL d          16.811  21.885   6.060  0.00  0.00     0.197 HD
BRANCH  33  36
ATOM     36  CBX MOL d          16.173  19.770   4.821  0.00  0.00     0.188 C 
BRANCH  36  37
ATOM     37  CBZ MOL d          15.471  19.086   3.649  0.00  0.00    -0.022 C 
ATOM     38  CAD MOL d          14.608  17.925   4.160  0.00  0.00     0.017 C 
ATOM     39  CAE MOL d          16.522  18.544   2.687  0.00  0.00     0.017 C 
ATOM     40  CAF MOL d          14.574  20.078   2.923  0.00  0.00     0.017 C 
ENDBRANCH  36  37
BRANCH  36  41
ATOM     41  NBI MOL d          16.827  18.755   5.659  0.00  0.00    -0.323 N 
ATOM     42  CBM MOL d          18.155  18.712   5.744  0.00  0.00     0.360 C 
ATOM     43  OAG MOL d          18.834  19.463   5.039  0.00  0.00    -0.239 OA
ATOM     44  H   MOL d          16.273  18.095   6.167  0.00  0.00     0.165 HD
BRANCH  42  45
ATOM     45  OBL MOL d          18.737  17.798   6.570  0.00  0.00    -0.309 OA
ATOM     46  CAA MOL d          20.013  18.243   7.037  0.00  0.00     0.215 C 
ENDBRANCH  42  45
ENDBRANCH  36  41
ENDBRANCH  33  36
ENDBRANCH   1  32
BRANCH   1  47
ATOM     47  CBE MOL d          16.020  22.259   8.406  0.00  0.00     0.301 C 
BRANCH  47  48
ATOM     48  CBR MOL d          16.221  20.964   8.882  0.00  0.00    -0.030 A 
ATOM     49  CAW MOL d          17.514  20.474   9.000  0.00  0.00     0.010 A 
ATOM     50  CAY MOL d          17.747  19.238   9.592  0.00  0.00     0.013 A 
ATOM     51  CBU MOL d          16.678  18.453  10.009  0.00  0.00    -0.026 A 
ATOM     52  CAX MOL d          15.388  18.966   9.937  0.00  0.00     0.013 A 
ATOM     53  CAV MOL d          15.163  20.232   9.403  0.00  0.00     0.010 A 
BRANCH  51  54
ATOM     54  CAQ MOL d          16.920  17.207  10.587  0.00  0.00    -0.023 A 
ATOM     55  CBT MOL d          15.871  16.454  11.102  0.00  0.00     0.031 A 
ATOM     56  CAP MOL d          16.127  15.255  11.759  0.00  0.00     0.117 A 
ATOM     57  NBG MOL d          17.435  14.761  11.828  0.00  0.00    -0.273 NA
ATOM     58  CAN MOL d          18.480  15.487  11.249  0.00  0.00     0.117 A 
ATOM     59  CAO MOL d          18.219  16.710  10.641  0.00  0.00     0.031 A 
ENDBRANCH  51  54
ENDBRANCH  47  48
ENDBRANCH   1  47
TORSDOF 14
