REMARK  6 active torsions:
REMARK  status: ('A' for Active; 'I' for Inactive)
REMARK    1  A    between atoms: N1_1  and  C2_2 
REMARK    2  A    between atoms: C3_3  and  C14_14 
REMARK    3  A    between atoms: N6_6  and  C7_7 
REMARK    4  A    between atoms: C14_14  and  C16_16 
REMARK    5  A    between atoms: C20_20  and  O21_21 
REMARK    6  A    between atoms: O21_21  and  C22_22 
ROOT
ATOM      1  C14 PQA d          -2.470  -1.839  22.665  0.00  0.00     0.197 C 
ATOM      2  O15 PQA d          -2.865  -2.954  22.322  0.00  0.00    -0.286 OA
ENDROOT
BRANCH   1   3
ATOM      3  C3  PQA d          -2.745  -0.682  21.838  0.00  0.00     0.079 A 
ATOM      4  C2  PQA d          -3.209  -0.767  20.538  0.00  0.00     0.139 A 
ATOM      5  N6  PQA d          -3.348   0.536  20.070  0.00  0.00    -0.217 N 
ATOM      6  N5  PQA d          -3.014   1.441  21.036  0.00  0.00    -0.177 NA
ATOM      7  C4  PQA d          -2.645   0.702  22.082  0.00  0.00     0.158 A 
BRANCH   4   8
ATOM      8  N1  PQA d          -3.472  -1.876  19.805  0.00  0.00    -0.383 N 
ATOM      9  H1  PQA d          -3.345  -2.810  20.221  0.00  0.00     0.157 HD
ATOM     10  H2  PQA d          -3.799  -1.785  18.832  0.00  0.00     0.157 HD
ENDBRANCH   4   8
BRANCH   5  11
ATOM     11  C7  PQA d          -3.856   0.958  18.821  0.00  0.00     0.060 A 
ATOM     12  C8  PQA d          -3.131   1.557  17.790  0.00  0.00     0.034 A 
ATOM     13  C9  PQA d          -3.790   1.915  16.615  0.00  0.00     0.044 A 
ATOM     14  C10 PQA d          -5.149   1.671  16.464  0.00  0.00     0.116 A 
ATOM     15  F11 PQA d          -5.765   2.029  15.330  0.00  0.00    -0.206 F 
ATOM     16  C12 PQA d          -5.882   1.061  17.473  0.00  0.00     0.044 A 
ATOM     17  C13 PQA d          -5.236   0.708  18.653  0.00  0.00     0.034 A 
ENDBRANCH   5  11
ENDBRANCH   1   3
BRANCH   1  18
ATOM     18  C16 PQA d          -1.740  -1.702  23.948  0.00  0.00     0.018 A 
ATOM     19  C17 PQA d          -0.623  -0.856  24.065  0.00  0.00     0.015 A 
ATOM     20  C18 PQA d           0.041  -0.751  25.295  0.00  0.00     0.004 A 
ATOM     21  C19 PQA d          -0.402  -1.491  26.387  0.00  0.00     0.037 A 
ATOM     22  C20 PQA d          -1.505  -2.335  26.271  0.00  0.00     0.070 A 
ATOM     23  C28 PQA d          -2.181  -2.452  25.053  0.00  0.00     0.052 A 
BRANCH  22  24
ATOM     24  O21 PQA d          -1.871  -3.009  27.411  0.00  0.00    -0.346 OA
BRANCH  24  25
ATOM     25  C22 PQA d          -3.236  -2.804  27.801  0.00  0.00     0.132 C 
ATOM     26  C23 PQA d          -3.774  -4.123  28.359  0.00  0.00     0.060 C 
ATOM     27  C24 PQA d          -3.238  -4.437  29.758  0.00  0.00     0.235 C 
ATOM     28  N25 PQA d          -2.284  -3.443  30.277  0.00  0.00    -0.075 N 
ATOM     29  C26 PQA d          -2.770  -2.062  30.223  0.00  0.00     0.235 C 
ATOM     30  H16 PQA d          -1.438  -3.502  29.733  0.00  0.00     0.277 HD
ATOM     31  H17 PQA d          -2.082  -3.670  31.238  0.00  0.00     0.277 HD
ATOM     32  C27 PQA d          -3.287  -1.670  28.838  0.00  0.00     0.060 C 
ENDBRANCH  24  25
ENDBRANCH  22  24
ENDBRANCH   1  18
TORSDOF 6
