REMARK  18 active torsions:
REMARK  status: ('A' for Active; 'I' for Inactive)
REMARK    1  A    between atoms: O42_24  and  C11_1 
REMARK    2  A    between atoms: C21_2  and  N21_3 
REMARK       I    between atoms: N21_3  and  C71_4 
REMARK    3  A    between atoms: C31_7  and  O31_8 
REMARK    4  A    between atoms: C41_9  and  O41_10 
REMARK    5  A    between atoms: C51_11  and  C61_13 
REMARK    6  A    between atoms: C61_13  and  O61_14 
REMARK    7  A    between atoms: O43_39  and  C12_15 
REMARK    8  A    between atoms: C22_16  and  N22_17 
REMARK       I    between atoms: N22_17  and  C72_18 
REMARK    9  A    between atoms: C32_21  and  O32_22 
REMARK   10  A    between atoms: C42_23  and  O42_24 
REMARK   11  A    between atoms: C52_25  and  C62_27 
REMARK   12  A    between atoms: C62_27  and  O62_28 
REMARK   13  A    between atoms: C13_29  and  O13_30 
REMARK   14  A    between atoms: C23_31  and  N23_32 
REMARK       I    between atoms: N23_32  and  C73_33 
REMARK   15  A    between atoms: C33_36  and  O33_37 
REMARK   16  A    between atoms: C43_38  and  O43_39 
REMARK   17  A    between atoms: C53_40  and  C63_42 
REMARK   18  A    between atoms: C63_42  and  O63_43 
ROOT
ATOM      1  C12 CTO d          29.368  -7.453  -9.803  0.00  0.00     0.286 C 
ATOM      2  C22 CTO d          28.569  -6.464  -8.957  0.00  0.00     0.170 C 
ATOM      3  C32 CTO d          27.645  -7.220  -7.994  0.00  0.00     0.177 C 
ATOM      4  C42 CTO d          26.833  -8.304  -8.711  0.00  0.00     0.186 C 
ATOM      5  C52 CTO d          27.769  -9.215  -9.530  0.00  0.00     0.180 C 
ATOM      6  O52 CTO d          28.504  -8.395 -10.454  0.00  0.00    -0.349 OA
ENDROOT
BRANCH   1   7
ATOM      7  O43 CTO d          30.030  -6.700 -10.817  0.00  0.00    -0.348 OA
BRANCH   7   8
ATOM      8  C43 CTO d          31.089  -7.438 -11.431  0.00  0.00     0.186 C 
ATOM      9  C33 CTO d          30.997  -7.313 -12.948  0.00  0.00     0.177 C 
ATOM     10  C23 CTO d          32.275  -7.811 -13.625  0.00  0.00     0.170 C 
ATOM     11  C13 CTO d          33.481  -7.116 -12.974  0.00  0.00     0.282 C 
ATOM     12  O53 CTO d          33.499  -7.466 -11.587  0.00  0.00    -0.349 OA
ATOM     13  C53 CTO d          32.406  -6.923 -10.860  0.00  0.00     0.179 C 
BRANCH   9  14
ATOM     14  O33 CTO d          29.833  -8.022 -13.429  0.00  0.00    -0.391 OA
ATOM     15  H36 CTO d          29.058  -7.691 -12.991  0.00  0.00     0.210 HD
ENDBRANCH   9  14
BRANCH  10  16
ATOM     16  N23 CTO d          32.249  -7.475 -15.044  0.00  0.00    -0.349 N 
ATOM     17  C73 CTO d          32.117  -8.382 -16.012  0.00  0.00     0.214 C 
ATOM     18  O73 CTO d          31.660  -8.122 -17.116  0.00  0.00    -0.274 OA
ATOM     19  C83 CTO d          32.585  -9.753 -15.674  0.00  0.00     0.117 C 
ATOM     20  H31 CTO d          32.335  -6.513 -15.305  0.00  0.00     0.163 HD
ENDBRANCH  10  16
BRANCH  11  21
ATOM     21  O13 CTO d          34.709  -7.591 -13.552  0.00  0.00    -0.369 OA
ATOM     22  H29 CTO d          34.764  -8.534 -13.447  0.00  0.00     0.212 HD
ENDBRANCH  11  21
BRANCH  13  23
ATOM     23  C63 CTO d          32.548  -7.406  -9.415  0.00  0.00     0.198 C 
BRANCH  23  24
ATOM     24  O63 CTO d          33.136  -6.350  -8.644  0.00  0.00    -0.398 OA
ATOM     25  H41 CTO d          33.232  -6.633  -7.742  0.00  0.00     0.209 HD
ENDBRANCH  23  24
ENDBRANCH  13  23
ENDBRANCH   7   8
ENDBRANCH   1   7
BRANCH   2  26
ATOM     26  N22 CTO d          29.447  -5.545  -8.213  0.00  0.00    -0.349 N 
ATOM     27  C72 CTO d          29.816  -4.323  -8.636  0.00  0.00     0.214 C 
ATOM     28  O72 CTO d          30.468  -3.565  -7.930  0.00  0.00    -0.274 OA
ATOM     29  C82 CTO d          29.429  -3.930 -10.020  0.00  0.00     0.117 C 
ATOM     30  H17 CTO d          29.795  -5.853  -7.327  0.00  0.00     0.163 HD
ENDBRANCH   2  26
BRANCH   3  31
ATOM     31  O32 CTO d          26.808  -6.246  -7.367  0.00  0.00    -0.391 OA
ATOM     32  H22 CTO d          26.219  -6.679  -6.761  0.00  0.00     0.210 HD
ENDBRANCH   3  31
BRANCH   5  33
ATOM     33  C62 CTO d          27.053 -10.305 -10.332  0.00  0.00     0.198 C 
BRANCH  33  34
ATOM     34  O62 CTO d          26.209  -9.645 -11.280  0.00  0.00    -0.398 OA
ATOM     35  H27 CTO d          26.740  -9.103 -11.851  0.00  0.00     0.209 HD
ENDBRANCH  33  34
ENDBRANCH   5  33
BRANCH   4  36
ATOM     36  O42 CTO d          26.141  -9.059  -7.715  0.00  0.00    -0.348 OA
BRANCH  36  37
ATOM     37  C11 CTO d          24.780  -9.360  -8.040  0.00  0.00     0.286 C 
ATOM     38  C21 CTO d          24.229 -10.314  -6.994  0.00  0.00     0.170 C 
ATOM     39  C31 CTO d          22.779 -10.676  -7.326  0.00  0.00     0.177 C 
ATOM     40  C41 CTO d          21.958  -9.400  -7.552  0.00  0.00     0.180 C 
ATOM     41  C51 CTO d          22.645  -8.413  -8.491  0.00  0.00     0.179 C 
ATOM     42  O51 CTO d          23.980  -8.180  -8.032  0.00  0.00    -0.349 OA
BRANCH  38  43
ATOM     43  N21 CTO d          25.088 -11.480  -6.996  0.00  0.00    -0.349 N 
ATOM     44  C71 CTO d          25.634 -11.995  -5.902  0.00  0.00     0.214 C 
ATOM     45  O71 CTO d          25.733 -11.370  -4.848  0.00  0.00    -0.274 OA
ATOM     46  C81 CTO d          26.153 -13.397  -6.101  0.00  0.00     0.117 C 
ATOM     47  H3  CTO d          25.281 -11.922  -7.872  0.00  0.00     0.163 HD
ENDBRANCH  38  43
BRANCH  39  48
ATOM     48  O31 CTO d          22.208 -11.309  -6.174  0.00  0.00    -0.391 OA
ATOM     49  H8  CTO d          21.306 -11.543  -6.357  0.00  0.00     0.210 HD
ENDBRANCH  39  48
BRANCH  40  50
ATOM     50  O41 CTO d          20.642  -9.719  -8.021  0.00  0.00    -0.390 OA
ATOM     51  H10 CTO d          20.200 -10.259  -7.376  0.00  0.00     0.210 HD
ENDBRANCH  40  50
BRANCH  41  52
ATOM     52  C61 CTO d          21.914  -7.082  -8.456  0.00  0.00     0.198 C 
BRANCH  52  53
ATOM     53  O61 CTO d          22.675  -6.123  -9.170  0.00  0.00    -0.398 OA
ATOM     54  H14 CTO d          23.529  -6.032  -8.764  0.00  0.00     0.209 HD
ENDBRANCH  52  53
ENDBRANCH  41  52
ENDBRANCH  36  37
ENDBRANCH   4  36
TORSDOF 18
