REMARK  6 active torsions:
REMARK  status: ('A' for Active; 'I' for Inactive)
REMARK    1  A    between atoms: N6_6  and  C24_24 
REMARK    2  A    between atoms: N9_9  and  C28_28 
REMARK    3  A    between atoms: C16_16  and  C17_17 
REMARK    4  A    between atoms: C21_21  and  C22_22 
REMARK    5  A    between atoms: C25_25  and  O33_33 
REMARK    6  A    between atoms: C26_26  and  N31_31 
ROOT
ATOM      1  C24 STO d          54.759   5.875   2.756  0.00  0.00     0.168 C 
ATOM      2  C25 STO d          53.967   5.789   4.219  0.00  0.00     0.207 C 
ATOM      3  C26 STO d          54.712   4.695   5.051  0.00  0.00     0.223 C 
ATOM      4  C27 STO d          56.254   5.136   5.300  0.00  0.00     0.090 C 
ATOM      5  C28 STO d          57.043   5.523   3.938  0.00  0.00     0.233 C 
ATOM      6  O29 STO d          56.126   5.390   2.811  0.00  0.00    -0.333 OA
ATOM      7  C35 STO d          54.119   4.791   1.859  0.00  0.00     0.074 C 
ENDROOT
BRANCH   3   8
ATOM      8  N31 STO d          54.087   4.411   6.485  0.00  0.00    -0.072 N 
ATOM      9  C32 STO d          54.826   3.300   7.233  0.00  0.00     0.267 C 
ATOM     10  H17 STO d          53.123   4.138   6.370  0.00  0.00     0.277 HD
ATOM     11  H18 STO d          54.134   5.256   7.032  0.00  0.00     0.277 HD
ENDBRANCH   3   8
BRANCH   2  12
ATOM     12  O33 STO d          54.005   7.111   4.939  0.00  0.00    -0.384 OA
ATOM     13  C34 STO d          52.783   7.836   4.894  0.00  0.00     0.202 C 
ENDBRANCH   2  12
BRANCH   1  14
ATOM     14  N6  STO d          54.678   7.380   2.283  0.00  0.00    -0.308 N 
ATOM     15  C5  STO d          53.682   8.044   1.472  0.00  0.00     0.049 A 
ATOM     16  C4  STO d          52.377   7.645   0.890  0.00  0.00     0.030 A 
ATOM     17  C23 STO d          54.129   9.482   1.354  0.00  0.00     0.004 A 
ATOM     18  C3  STO d          51.571   8.563   0.145  0.00  0.00     0.002 A 
ATOM     19  C2  STO d          52.012   9.993  -0.013  0.00  0.00     0.001 A 
ATOM     20  C1  STO d          53.280  10.398   0.573  0.00  0.00     0.014 A 
ATOM     21  C22 STO d          55.387   9.642   1.986  0.00  0.00     0.015 A 
ATOM     22  C7  STO d          55.759   8.309   2.603  0.00  0.00     0.077 A 
ATOM     23  C8  STO d          56.975   8.152   3.343  0.00  0.00     0.077 A 
ATOM     24  N9  STO d          57.542   6.993   4.044  0.00  0.00    -0.316 N 
ATOM     25  C16 STO d          57.931   9.292   3.545  0.00  0.00     0.022 A 
ATOM     26  C10 STO d          58.755   7.365   4.590  0.00  0.00     0.048 A 
ATOM     27  C11 STO d          59.705   6.568   5.431  0.00  0.00     0.030 A 
ATOM     28  C15 STO d          58.992   8.833   4.330  0.00  0.00     0.004 A 
ATOM     29  C12 STO d          60.918   7.223   5.917  0.00  0.00     0.002 A 
ATOM     30  C13 STO d          61.177   8.665   5.634  0.00  0.00     0.001 A 
ATOM     31  C14 STO d          60.241   9.426   4.840  0.00  0.00     0.014 A 
BRANCH  21  32
ATOM     32  C21 STO d          56.331  10.786   2.200  0.00  0.00    -0.010 A 
ATOM     33  C17 STO d          57.488  10.647   2.887  0.00  0.00     0.054 A 
ATOM     34  C18 STO d          58.213  11.942   2.911  0.00  0.00     0.253 A 
ATOM     35  N19 STO d          57.427  12.742   2.229  0.00  0.00    -0.353 N 
ATOM     36  O30 STO d          59.277  12.216   3.424  0.00  0.00    -0.268 OA
ATOM     37  C20 STO d          56.206  12.205   1.700  0.00  0.00     0.163 A 
ATOM     38  H9  STO d          57.673  13.700   2.082  0.00  0.00     0.163 HD
ENDBRANCH  21  32
ENDBRANCH   1  14
TORSDOF 6
