REMARK  7 active torsions:
REMARK  status: ('A' for Active; 'I' for Inactive)
REMARK    1  A    between atoms: C2_3  and  O1_1 
REMARK    2  A    between atoms: C4_5  and  O2_8 
REMARK    3  A    between atoms: O3_10  and  C13_20 
REMARK    4  A    between atoms: C14_21  and  O3_10 
REMARK    5  A    between atoms: C9_16  and  C8_13 
REMARK    6  A    between atoms: C15_22  and  O4_14 
REMARK    7  A    between atoms: C14_21  and  C15_22 
ROOT
ATOM      1  C2  1K0 d          -7.556  44.838  39.721  0.00  0.00     0.073 A 
ATOM      2  C3  1K0 d          -6.787  43.701  39.600  0.00  0.00     0.074 A 
ATOM      3  C4  1K0 d          -6.687  42.818  40.708  0.00  0.00     0.088 A 
ATOM      4  N1  1K0 d          -8.100  42.638  44.123  0.00  0.00    -0.306 N 
ATOM      5  C6  1K0 d          -7.383  43.106  41.893  0.00  0.00     0.094 A 
ATOM      6  N2  1K0 d          -8.976  44.532  43.078  0.00  0.00    -0.229 NA
ATOM      7  C7  1K0 d          -7.284  42.263  43.075  0.00  0.00     0.262 A 
ATOM      8  C8  1K0 d          -8.896  43.727  44.095  0.00  0.00     0.141 A 
ATOM      9  O5  1K0 d          -6.536  41.303  43.284  0.00  0.00    -0.267 OA
ATOM     10  C19 1K0 d          -8.197  44.264  41.958  0.00  0.00     0.080 A 
ATOM     11  C20 1K0 d          -8.279  45.154  40.875  0.00  0.00     0.069 A 
ATOM     12  H5  1K0 d          -8.101  42.072  44.947  0.00  0.00     0.170 HD
ENDROOT
BRANCH   8  13
ATOM     13  C9  1K0 d          -9.667  44.017  45.348  0.00  0.00     0.011 A 
ATOM     14  C18 1K0 d          -9.875  43.064  46.351  0.00  0.00     0.025 A 
ATOM     15  C16 1K0 d         -10.551  43.382  47.548  0.00  0.00    -0.027 A 
ATOM     16  C17 1K0 d         -10.666  42.318  48.606  0.00  0.00     0.051 C 
ATOM     17  C13 1K0 d         -11.010  44.678  47.719  0.00  0.00     0.080 A 
ATOM     18  C11 1K0 d         -10.816  45.635  46.745  0.00  0.00    -0.027 A 
ATOM     19  C12 1K0 d         -11.254  47.075  46.967  0.00  0.00     0.051 C 
ATOM     20  C10 1K0 d         -10.145  45.317  45.549  0.00  0.00     0.025 A 
BRANCH  17  21
ATOM     21  O3  1K0 d         -11.625  45.039  48.950  0.00  0.00    -0.348 OA
BRANCH  21  22
ATOM     22  C14 1K0 d         -12.943  44.626  48.953  0.00  0.00     0.201 C 
BRANCH  22  23
ATOM     23  C15 1K0 d         -13.537  45.296  50.247  0.00  0.00     0.190 C 
BRANCH  23  24
ATOM     24  O4  1K0 d         -12.840  44.675  51.331  0.00  0.00    -0.399 OA
ATOM     25  H9  1K0 d         -11.909  44.841  51.243  0.00  0.00     0.209 HD
ENDBRANCH  23  24
ENDBRANCH  22  23
ENDBRANCH  21  22
ENDBRANCH  17  21
ENDBRANCH   8  13
BRANCH   3  26
ATOM     26  O2  1K0 d          -5.936  41.701  40.611  0.00  0.00    -0.355 OA
ATOM     27  C5  1K0 d          -5.415  41.253  39.321  0.00  0.00     0.210 C 
ENDBRANCH   3  26
BRANCH   1  28
ATOM     28  O1  1K0 d          -7.597  45.738  38.664  0.00  0.00    -0.356 OA
ATOM     29  C1  1K0 d          -8.379  46.934  38.758  0.00  0.00     0.210 C 
ENDBRANCH   1  28
TORSDOF 7
