REMARK  3 active torsions:
REMARK  status: ('A' for Active; 'I' for Inactive)
REMARK    1  A    between atoms: C1_5  and  N_11 
REMARK    2  A    between atoms: C1_5  and  C_12 
REMARK    3  A    between atoms: C4_7  and  C3_8 
ROOT
ATOM      1  C7  MOL d          -8.145  37.044  27.896  0.00  0.00     0.051 C 
ATOM      2  C6  MOL d          -7.721  36.503  29.314  0.00  0.00     0.009 C 
ATOM      3  C1  MOL d          -8.047  35.837  26.913  0.00  0.00     0.215 C 
ATOM      4  C5  MOL d          -7.994  35.012  29.248  0.00  0.00     0.008 A 
ATOM      5  C3  MOL d          -9.388  34.663  28.719  0.00  0.00     0.099 A 
ATOM      6  C2  MOL d          -8.212  34.626  27.788  0.00  0.00     0.052 A 
ENDROOT
BRANCH   3   7
ATOM      7  N   MOL d          -9.070  35.849  25.845  0.00  0.00    -0.060 N 
ATOM      8  H8  MOL d          -8.945  36.666  25.269  0.00  0.00     0.275 HD
ATOM      9  H9  MOL d          -9.989  35.868  26.260  0.00  0.00     0.275 HD
ATOM     10  H10 MOL d          -8.974  35.021  25.279  0.00  0.00     0.275 HD
ENDBRANCH   3   7
BRANCH   3  11
ATOM     11  C   MOL d          -6.619  35.790  26.301  0.00  0.00     0.210 C 
ATOM     12  O1  MOL d          -5.575  35.760  26.937  0.00  0.00    -0.646 OA
ATOM     13  O   MOL d          -6.501  35.806  24.957  0.00  0.00    -0.646 OA
ENDBRANCH   3  11
BRANCH   5  14
ATOM     14  C4  MOL d         -10.066  33.398  29.058  0.00  0.00     0.177 C 
ATOM     15  O2  MOL d          -9.246  32.363  29.364  0.00  0.00    -0.648 OA
ATOM     16  O3  MOL d         -11.278  33.256  29.067  0.00  0.00    -0.648 OA
ENDBRANCH   5  14
TORSDOF 3
