REMARK  7 active torsions:
REMARK  status: ('A' for Active; 'I' for Inactive)
REMARK    1  A    between atoms: CBE_9  and  CBF_10 
REMARK    2  A    between atoms: CAX_11  and  CAU_12 
REMARK    3  A    between atoms: CAU_12  and  CBC_14 
REMARK    4  A    between atoms: CAW_19  and  OAG_20 
REMARK    5  A    between atoms: NBG_23  and  CBD_24 
REMARK    6  A    between atoms: CBB_29  and  CAR_30 
REMARK    7  A    between atoms: CAR_30  and  CAT_31 
ROOT
ATOM      1  CBF 1DK d           2.526  21.244   1.198  0.00  0.00     0.165 A 
ATOM      2  CAX 1DK d           3.594  20.507   1.771  0.00  0.00     0.045 A 
ATOM      3  CAW 1DK d           3.361  19.156   1.481  0.00  0.00     0.131 A 
ATOM      4  CAV 1DK d           2.146  19.054   0.736  0.00  0.00     0.216 A 
ATOM      5  OAF 1DK d           1.589  17.905   0.274  0.00  0.00    -0.169 OA
ATOM      6  NBG 1DK d           1.623  20.287   0.565  0.00  0.00    -0.309 N 
ENDROOT
BRANCH   6   7
ATOM      7  CBD 1DK d           0.470  20.632  -0.238  0.00  0.00     0.037 A 
ATOM      8  CAO 1DK d           0.630  21.463  -1.357  0.00  0.00     0.030 A 
ATOM      9  CAM 1DK d          -0.475  21.811  -2.127  0.00  0.00     0.010 A 
ATOM     10  CBB 1DK d          -1.734  21.328  -1.765  0.00  0.00    -0.048 A 
ATOM     11  CAL 1DK d          -1.885  20.504  -0.656  0.00  0.00     0.010 A 
ATOM     12  CAN 1DK d          -0.782  20.162   0.118  0.00  0.00     0.030 A 
BRANCH  10  13
ATOM     13  CAR 1DK d          -2.954  21.653  -2.580  0.00  0.00     0.151 C 
BRANCH  13  14
ATOM     14  CAT 1DK d          -3.476  20.452  -3.345  0.00  0.00     0.176 C 
ATOM     15  OAH 1DK d          -4.581  19.940  -3.039  0.00  0.00    -0.648 OA
ATOM     16  OAD 1DK d          -2.795  19.949  -4.262  0.00  0.00    -0.648 OA
ENDBRANCH  13  14
ENDBRANCH  10  13
ENDBRANCH   6   7
BRANCH   1  17
ATOM     17  CBE 1DK d           1.842  22.086   2.234  0.00  0.00    -0.024 A 
ATOM     18  CBA 1DK d           1.876  23.493   2.122  0.00  0.00    -0.053 A 
ATOM     19  CAC 1DK d           2.603  24.139   0.974  0.00  0.00     0.049 C 
ATOM     20  CAP 1DK d           1.242  24.289   3.070  0.00  0.00     0.014 A 
ATOM     21  CAY 1DK d           0.573  23.688   4.126  0.00  0.00    -0.056 A 
ATOM     22  CAA 1DK d          -0.119  24.526   5.169  0.00  0.00     0.049 C 
ATOM     23  CAZ 1DK d           0.533  22.288   4.244  0.00  0.00    -0.056 A 
ATOM     24  CAB 1DK d          -0.177  21.706   5.365  0.00  0.00     0.049 C 
ATOM     25  CAQ 1DK d           1.164  21.489   3.299  0.00  0.00     0.017 A 
ENDBRANCH   1  17
BRANCH   2  26
ATOM     26  CAU 1DK d           4.727  21.210   2.527  0.00  0.00     0.135 C 
ATOM     27  OAE 1DK d           5.271  22.199   1.812  0.00  0.00    -0.190 OA
BRANCH  26  28
ATOM     28  CBC 1DK d           5.730  20.428   3.314  0.00  0.00     0.042 A 
ATOM     29  CAK 1DK d           5.355  19.224   4.251  0.00  0.00     0.022 A 
ATOM     30  CAI 1DK d           6.786  18.782   4.911  0.00  0.00     0.008 A 
ATOM     31  CAJ 1DK d           7.930  19.712   4.416  0.00  0.00     0.050 A 
ATOM     32  SAS 1DK d           7.303  20.849   3.357  0.00  0.00    -0.099 SA
ENDBRANCH  26  28
ENDBRANCH   2  26
BRANCH   3  33
ATOM     33  OAG 1DK d           4.123  18.142   1.821  0.00  0.00    -0.356 OA
ATOM     34  H22 1DK d           3.736  17.335   1.501  0.00  0.00     0.218 HD
ENDBRANCH   3  33
TORSDOF 7
