REMARK  16 active torsions:
REMARK  status: ('A' for Active; 'I' for Inactive)
REMARK    1  A    between atoms: C2_1  and  O39_38 
REMARK    2  A    between atoms: S8_7  and  C5_4 
REMARK    3  A    between atoms: N11_10  and  S8_7 
REMARK    4  A    between atoms: N11_10  and  C12_11 
REMARK    5  A    between atoms: C16_15  and  N11_10 
REMARK    6  A    between atoms: C12_11  and  C13_12 
REMARK    7  A    between atoms: C17_16  and  C16_15 
REMARK    8  A    between atoms: C17_16  and  O18_17 
REMARK    9  A    between atoms: C19_18  and  C17_16 
REMARK   10  A    between atoms: C19_18  and  N20_19 
REMARK   11  A    between atoms: C32_31  and  C19_18 
REMARK       I    between atoms: N20_19  and  C21_20 
REMARK   12  A    between atoms: C21_20  and  O23_22 
REMARK   13  A    between atoms: O23_22  and  C24_23 
REMARK   14  A    between atoms: C30_29  and  N52_41 
REMARK   15  A    between atoms: C38_37  and  C32_31 
REMARK   16  A    between atoms: N52_41  and  C53_42 
ROOT
ATOM      1  C19 MOL d          14.990  22.908  16.892  0.00  0.00     0.120 C 
ENDROOT
BRANCH   1   2
ATOM      2  C17 MOL d          15.279  24.052  17.869  0.00  0.00     0.155 C 
BRANCH   2   3
ATOM      3  C16 MOL d          16.456  24.932  17.466  0.00  0.00     0.141 C 
BRANCH   3   4
ATOM      4  N11 MOL d          17.693  24.180  17.433  0.00  0.00    -0.204 NA
BRANCH   4   5
ATOM      5  S8  MOL d          18.375  24.078  15.955  0.00  0.00     0.243 S 
ATOM      6  O9  MOL d          17.305  23.972  14.912  0.00  0.00    -0.206 OA
ATOM      7  O10 MOL d          19.236  22.847  15.965  0.00  0.00    -0.206 OA
BRANCH   5   8
ATOM      8  C5  MOL d          19.368  25.462  15.540  0.00  0.00     0.074 A 
ATOM      9  C4  MOL d          20.738  25.454  15.758  0.00  0.00     0.027 A 
ATOM     10  C3  MOL d          21.524  26.532  15.359  0.00  0.00     0.038 A 
ATOM     11  C2  MOL d          20.928  27.614  14.705  0.00  0.00     0.068 A 
ATOM     12  C7  MOL d          19.571  27.597  14.411  0.00  0.00     0.038 A 
ATOM     13  C6  MOL d          18.800  26.498  14.802  0.00  0.00     0.027 A 
BRANCH  11  14
ATOM     14  O39 MOL d          21.695  28.695  14.393  0.00  0.00    -0.356 OA
ATOM     15  C40 MOL d          22.941  28.624  15.093  0.00  0.00     0.210 C 
ENDBRANCH  11  14
ENDBRANCH   5   8
ENDBRANCH   4   5
BRANCH   4  16
ATOM     16  C12 MOL d          18.636  24.520  18.483  0.00  0.00     0.111 C 
BRANCH  16  17
ATOM     17  C13 MOL d          18.349  23.773  19.791  0.00  0.00    -0.009 C 
ATOM     18  C14 MOL d          18.349  22.252  19.612  0.00  0.00     0.011 C 
ATOM     19  C15 MOL d          19.391  24.155  20.853  0.00  0.00     0.011 C 
ENDBRANCH  16  17
ENDBRANCH   4  16
ENDBRANCH   3   4
ENDBRANCH   2   3
BRANCH   2  20
ATOM     20  O18 MOL d          14.109  24.832  18.113  0.00  0.00    -0.392 OA
ATOM     21  H17 MOL d          13.876  25.307  17.324  0.00  0.00     0.210 HD
ENDBRANCH   2  20
ENDBRANCH   1   2
BRANCH   1  22
ATOM     22  N20 MOL d          14.131  21.933  17.578  0.00  0.00    -0.329 N 
ATOM     23  C21 MOL d          14.332  20.619  17.693  0.00  0.00     0.361 C 
ATOM     24  O22 MOL d          15.378  20.080  17.337  0.00  0.00    -0.238 OA
ATOM     25  H19 MOL d          13.303  22.295  18.007  0.00  0.00     0.165 HD
BRANCH  23  26
ATOM     26  O23 MOL d          13.295  19.909  18.225  0.00  0.00    -0.298 OA
BRANCH  26  27
ATOM     27  C24 MOL d          13.539  18.504  18.327  0.00  0.00     0.146 C 
ATOM     28  C31 MOL d          12.299  17.744  17.897  0.00  0.00     0.103 C 
ATOM     29  C27 MOL d          11.122  17.972  18.805  0.00  0.00     0.268 C 
ATOM     30  C30 MOL d          11.764  18.238  16.549  0.00  0.00     0.221 C 
ATOM     31  O26 MOL d          11.361  17.984  20.198  0.00  0.00    -0.361 OA
ATOM     32  O28 MOL d          10.553  19.202  18.346  0.00  0.00    -0.359 OA
ATOM     33  C25 MOL d          12.555  18.651  20.599  0.00  0.00     0.173 C 
ATOM     34  C51 MOL d          13.780  18.200  19.808  0.00  0.00     0.059 C 
ATOM     35  C29 MOL d          10.617  19.166  16.927  0.00  0.00     0.204 C 
BRANCH  30  36
ATOM     36  N52 MOL d          11.158  17.092  15.842  0.00  0.00    -0.069 N 
ATOM     37  H40 MOL d          10.350  16.778  16.356  0.00  0.00     0.277 HD
ATOM     38  H41 MOL d          11.832  16.345  15.787  0.00  0.00     0.277 HD
BRANCH  36  39
ATOM     39  C53 MOL d          10.747  17.469  14.483  0.00  0.00     0.228 C 
ATOM     40  C54 MOL d          10.731  16.214  13.592  0.00  0.00     0.034 C 
ENDBRANCH  36  39
ENDBRANCH  30  36
ENDBRANCH  26  27
ENDBRANCH  23  26
ENDBRANCH   1  22
BRANCH   1  41
ATOM     41  C32 MOL d          14.216  23.395  15.658  0.00  0.00     0.066 C 
BRANCH  41  42
ATOM     42  C38 MOL d          13.848  22.212  14.744  0.00  0.00    -0.056 A 
ATOM     43  C33 MOL d          12.509  21.890  14.545  0.00  0.00     0.007 A 
ATOM     44  C34 MOL d          12.153  20.807  13.740  0.00  0.00     0.001 A 
ATOM     45  C35 MOL d          13.144  20.065  13.106  0.00  0.00     0.000 A 
ATOM     46  C36 MOL d          14.486  20.386  13.299  0.00  0.00     0.001 A 
ATOM     47  C37 MOL d          14.835  21.462  14.119  0.00  0.00     0.007 A 
ENDBRANCH  41  42
ENDBRANCH   1  41
TORSDOF 16
