REMARK  7 active torsions:
REMARK  status: ('A' for Active; 'I' for Inactive)
REMARK    1  A    between atoms: P_1  and  O5_5 
REMARK    2  A    between atoms: O5_5  and  C5_6 
REMARK    3  A    between atoms: C5_6  and  C4_7 
REMARK    4  A    between atoms: C3_9  and  O3_10 
REMARK    5  A    between atoms: C2_11  and  O2_12 
REMARK    6  A    between atoms: C1_13  and  N1_14 
REMARK    7  A    between atoms: C6_21  and  O1_22 
ROOT
ATOM      1  C4  MOL d          24.570 -18.098  11.954  0.00  0.00     0.180 C 
ATOM      2  O4  MOL d          25.497 -18.971  12.659  0.00  0.00    -0.353 OA
ATOM      3  C3  MOL d          24.009 -17.222  13.013  0.00  0.00     0.182 C 
ATOM      4  C2  MOL d          25.133 -17.119  14.052  0.00  0.00     0.198 C 
ATOM      5  C1  MOL d          25.749 -18.497  13.988  0.00  0.00     0.266 C 
ENDROOT
BRANCH   5   6
ATOM      6  N1  MOL d          27.210 -18.608  14.219  0.00  0.00    -0.249 N 
ATOM      7  C2  MOL d          28.114 -17.816  13.529  0.00  0.00     0.333 A 
ATOM      8  O2  MOL d          27.762 -17.032  12.679  0.00  0.00    -0.246 OA
ATOM      9  N3  MOL d          29.410 -17.979  13.838  0.00  0.00    -0.275 N 
ATOM     10  C4  MOL d          29.941 -18.882  14.796  0.00  0.00     0.253 A 
ATOM     11  H9  MOL d          30.066 -17.408  13.345  0.00  0.00     0.173 HD
ATOM     12  O4  MOL d          31.158 -18.892  14.928  0.00  0.00    -0.268 OA
ATOM     13  C5  MOL d          28.989 -19.696  15.479  0.00  0.00     0.130 A 
ATOM     14  C6  MOL d          27.649 -19.578  15.183  0.00  0.00     0.153 A 
BRANCH  14  15
ATOM     15  O1  MOL d          26.751 -20.295  15.702  0.00  0.00    -0.346 OA
ATOM     16  H11 MOL d          27.147 -20.898  16.320  0.00  0.00     0.219 HD
ENDBRANCH  14  15
ENDBRANCH   5   6
BRANCH   4  17
ATOM     17  O2  MOL d          24.640 -16.768  15.310  0.00  0.00    -0.388 OA
ATOM     18  H7  MOL d          24.021 -17.427  15.601  0.00  0.00     0.210 HD
ENDBRANCH   4  17
BRANCH   1  19
ATOM     19  C5  MOL d          25.336 -17.393  10.865  0.00  0.00     0.217 C 
BRANCH  19  20
ATOM     20  O5  MOL d          24.276 -16.804  10.082  0.00  0.00    -0.280 OA
BRANCH  20  21
ATOM     21  P   MOL d          24.589 -15.993   8.731  0.00  0.00     0.422 P 
ATOM     22  O1P MOL d          25.885 -15.230   8.879  0.00  0.00    -0.617 OA
ATOM     23  O2P MOL d          23.425 -15.049   8.592  0.00  0.00    -0.617 OA
ATOM     24  O3P MOL d          24.685 -16.977   7.590  0.00  0.00    -0.617 OA
ENDBRANCH  20  21
ENDBRANCH  19  20
ENDBRANCH   1  19
BRANCH   3  25
ATOM     25  O3  MOL d          22.855 -17.802  13.644  0.00  0.00    -0.390 OA
ATOM     26  H5  MOL d          22.530 -17.210  14.312  0.00  0.00     0.210 HD
ENDBRANCH   3  25
TORSDOF 7
