3v7t_ligand

Created by X-TOOL on Fri Sep 26 17:34:56 2014
 59 62  0  0  0  0  0  0  0  0999 V2000
   50.7940   -9.3510   -7.2960  C 0  0  0  4  0  4
   50.3620   -9.9000   -5.9450  C 0  0  0  3  0  4
   50.8420  -11.3410   -5.7950  C 0  0  0  3  0  4
   50.4700  -11.8350   -4.5040  O 0  0  0  1  0  2
   49.1420  -12.1150   -4.4490  C 0  0  0  1  0  3
   48.2740  -13.0790   -5.5360  S 0  0  0  1  0  2
   48.2710  -11.6490   -3.4690  C 0  0  0  1  0  3
   48.8340  -10.5280   -2.0510 Br 0  0  0  1  0  1
   46.9470  -12.0780   -3.6450  C 0  0  0  1  0  3
   45.8120  -11.6970   -2.6870  C 0  0  0  4  0  4
   46.7880  -12.9270   -4.7450  C 0  0  0  1  0  3
   45.4730  -13.4890   -5.2730  C 0  0  0  1  0  3
   45.0740  -13.1170   -6.3760  O 0  0  0  1  0  1
   44.7450  -14.3650   -4.5760  N 0  0  0  1  0  3
   43.4690  -14.9460   -5.0020  C 0  0  0  2  0  4
   43.7090  -16.4240   -5.3640  C 0  0  0  3  0  4
   42.6460  -14.8500   -3.7060  C 0  0  0  3  0  4
   43.6870  -14.8430   -2.5620  C 0  0  0  3  0  4
   45.0550  -14.9330   -3.2620  C 0  0  0  2  0  4
   45.4330  -16.4150   -3.4680  C 0  0  0  3  0  4
   44.2790  -17.1860   -4.1500  C 0  0  0  2  0  4
   44.7010  -18.6200   -4.5010  C 0  0  0  1  0  3
   45.2030  -18.9550   -5.7640  C 0  0  0  2  0  3
   44.5770  -19.6030   -3.5190  C 0  0  0  1  0  3
   44.0930  -19.2720   -2.3050  F 0  0  0  1  0  1
   44.9470  -20.9210   -3.7900  C 0  0  0  2  0  3
   45.4470  -21.2560   -5.0480  C 0  0  0  2  0  3
   45.5760  -20.2740   -6.0350  C 0  0  0  1  0  3
   46.1330  -20.6540   -7.4100  C 0  0  0  3  0  4
   45.0980  -20.4520   -8.4320  N 0  3  0  4  0  4
   50.4454   -8.3127   -7.3983  H 0  0  0  1  0  1
   50.3578   -9.9649   -8.0978  H 0  0  0  1  0  1
   51.8912   -9.3782   -7.3690  H 0  0  0  1  0  1
   49.2647   -9.8713   -5.8731  H 0  0  0  1  0  1
   50.7982   -9.2846   -5.1443  H 0  0  0  1  0  1
   51.9364  -11.3759   -5.8997  H 0  0  0  1  0  1
   50.3791  -11.9648   -6.5738  H 0  0  0  1  0  1
   46.1990  -11.0205   -1.9107  H 0  0  0  1  0  1
   45.4104  -12.6056   -2.2145  H 0  0  0  1  0  1
   45.0124  -11.1915   -3.2484  H 0  0  0  1  0  1
   43.0066  -14.4009   -5.8381  H 0  0  0  1  0  1
   44.4244  -16.4821   -6.1975  H 0  0  0  1  0  1
   42.7561  -16.8831   -5.6660  H 0  0  0  1  0  1
   41.9745  -15.7160   -3.6108  H 0  0  0  1  0  1
   42.0534  -13.9234   -3.6935  H 0  0  0  1  0  1
   43.5360  -15.7065   -1.8975  H 0  0  0  1  0  1
   43.6127  -13.9137   -1.9782  H 0  0  0  1  0  1
   45.8449  -14.3847   -2.7278  H 0  0  0  1  0  1
   45.6442  -16.8727   -2.4903  H 0  0  0  1  0  1
   46.3301  -16.4737   -4.1018  H 0  0  0  1  0  1
   43.4651  -17.2632   -3.4141  H 0  0  0  1  0  1
   45.3020  -18.1937   -6.5293  H 0  0  0  1  0  1
   44.8460  -21.6822   -3.0249  H 0  0  0  1  0  1
   45.7360  -22.2789   -5.2609  H 0  0  0  1  0  1
   46.4388  -21.7106   -7.4022  H 0  0  0  1  0  1
   47.0034  -20.0220   -7.6402  H 0  0  0  1  0  1
   45.4656  -20.7024   -9.3366  H 0  0  0  1  0  1
   44.8177  -19.4838   -8.4396  H 0  0  0  1  0  1
   44.3003  -21.0312   -8.2215  H 0  0  0  1  0  1
  1  2  1  0  0  2
  2  3  1  0  0  2
  3  4  1  0  0  2
  4  5  1  0  0  2
  5  6  1  0  0  1
  5  7  2  0  0  1
  6 11  1  0  0  1
  7  8  1  0  0  2
  7  9  1  0  0  1
  9 10  1  0  0  2
  9 11  2  0  0  1
 11 12  1  0  0  2
 12 13  2  0  0  2
 12 14  1  0  0  2
 14 15  1  0  0  1
 14 19  1  0  0  1
 15 16  1  0  0  1
 15 17  1  0  0  1
 16 21  1  0  0  1
 17 18  1  0  0  1
 18 19  1  0  0  1
 19 20  1  0  0  1
 20 21  1  0  0  1
 21 22  1  0  0  2
 22 23  4  0  0  1
 22 24  4  0  0  1
 23 28  4  0  0  1
 24 25  1  0  0  2
 24 26  4  0  0  1
 26 27  4  0  0  1
 27 28  4  0  0  1
 28 29  1  0  0  2
 29 30  1  0  0  2
  1 31  1  0  0  2
  1 32  1  0  0  2
  1 33  1  0  0  2
  2 34  1  0  0  2
  2 35  1  0  0  2
  3 36  1  0  0  2
  3 37  1  0  0  2
 10 38  1  0  0  2
 10 39  1  0  0  2
 10 40  1  0  0  2
 15 41  1  0  0  2
 16 42  1  0  0  2
 16 43  1  0  0  2
 17 44  1  0  0  2
 17 45  1  0  0  2
 18 46  1  0  0  2
 18 47  1  0  0  2
 19 48  1  0  0  2
 20 49  1  0  0  2
 20 50  1  0  0  2
 21 51  1  0  0  2
 23 52  1  0  0  2
 26 53  1  0  0  2
 27 54  1  0  0  2
 29 55  1  0  0  2
 29 56  1  0  0  2
 30 57  1  0  0  2
 30 58  1  0  0  2
 30 59  1  0  0  2
M  END
> <MOLECULAR_FORMULA>
C23H29N2O2SFBr

> <MOLECULAR_WEIGHT>
496.2

> <NUM_HB_ATOMS>
3  

> <NUM_ROTOR>
5  

> <XLOGP2>
5.20 

$$$$
