REMARK  7 active torsions:
REMARK  status: ('A' for Active; 'I' for Inactive)
REMARK    1  A    between atoms: CAT_2  and  CAS_3 
REMARK    2  A    between atoms: CAS_3  and  OAR_4 
REMARK    3  A    between atoms: OAR_4  and  CAN_5 
REMARK    4  A    between atoms: CAK_11  and  CAI_12 
REMARK       I    between atoms: CAI_12  and  NAE_14 
REMARK    5  A    between atoms: CAB_21  and  CAU_22 
REMARK    6  A    between atoms: CAY_28  and  CBB_29 
REMARK    7  A    between atoms: CBB_29  and  NBC_30 
ROOT
ATOM      1  CAI MOL d          45.473 -13.489  -5.273  0.00  0.00     0.262 C 
ATOM      2  OAJ MOL d          45.074 -13.117  -6.376  0.00  0.00    -0.267 OA
ATOM      3  NAE MOL d          44.745 -14.365  -4.576  0.00  0.00    -0.338 N 
ATOM      4  CAD MOL d          43.469 -14.946  -5.002  0.00  0.00     0.088 C 
ATOM      5  CAC MOL d          43.709 -16.424  -5.364  0.00  0.00     0.035 C 
ATOM      6  CAG MOL d          42.646 -14.850  -3.706  0.00  0.00     0.027 C 
ATOM      7  CAH MOL d          43.687 -14.843  -2.562  0.00  0.00     0.027 C 
ATOM      8  CAA MOL d          45.055 -14.933  -3.262  0.00  0.00     0.088 C 
ATOM      9  CAF MOL d          45.433 -16.415  -3.468  0.00  0.00     0.035 C 
ATOM     10  CAB MOL d          44.279 -17.186  -4.150  0.00  0.00     0.025 C 
ENDROOT
BRANCH   1  11
ATOM     11  CAK MOL d          46.788 -12.927  -4.745  0.00  0.00     0.082 A 
ATOM     12  SAO MOL d          48.274 -13.079  -5.536  0.00  0.00    -0.058 SA
ATOM     13  CAN MOL d          49.142 -12.115  -4.449  0.00  0.00     0.128 A 
ATOM     14  CAM MOL d          48.271 -11.649  -3.469  0.00  0.00     0.059 A 
ATOM     15 BR1  MOL d          48.834 -10.528  -2.051  0.00  0.00    -0.047 Br
ATOM     16  CAL MOL d          46.947 -12.078  -3.645  0.00  0.00    -0.019 A 
ATOM     17  CAP MOL d          45.812 -11.697  -2.687  0.00  0.00     0.051 C 
BRANCH  13  18
ATOM     18  OAR MOL d          50.470 -11.835  -4.504  0.00  0.00    -0.343 OA
BRANCH  18  19
ATOM     19  CAS MOL d          50.842 -11.341  -5.795  0.00  0.00     0.176 C 
BRANCH  19  20
ATOM     20  CAT MOL d          50.362  -9.900  -5.945  0.00  0.00     0.022 C 
ATOM     21  CBD MOL d          50.794  -9.351  -7.296  0.00  0.00     0.007 C 
ENDBRANCH  19  20
ENDBRANCH  18  19
ENDBRANCH  13  18
ENDBRANCH   1  11
BRANCH  10  22
ATOM     22  CAU MOL d          44.701 -18.620  -4.501  0.00  0.00    -0.015 A 
ATOM     23  CAZ MOL d          45.203 -18.955  -5.764  0.00  0.00     0.019 A 
ATOM     24  CAY MOL d          45.576 -20.274  -6.035  0.00  0.00    -0.032 A 
ATOM     25  CAX MOL d          45.447 -21.256  -5.048  0.00  0.00     0.012 A 
ATOM     26  CAW MOL d          44.947 -20.921  -3.790  0.00  0.00     0.043 A 
ATOM     27  CAV MOL d          44.577 -19.603  -3.519  0.00  0.00     0.123 A 
ATOM     28  FBA MOL d          44.093 -19.272  -2.305  0.00  0.00    -0.206 F 
BRANCH  24  29
ATOM     29  CBB MOL d          46.133 -20.654  -7.410  0.00  0.00     0.268 C 
BRANCH  29  30
ATOM     30  NBC MOL d          45.098 -20.452  -8.432  0.00  0.00    -0.075 N 
ATOM     31  H27 MOL d          45.466 -20.702  -9.337  0.00  0.00     0.274 HD
ATOM     32  H28 MOL d          44.818 -19.484  -8.440  0.00  0.00     0.274 HD
ATOM     33  H29 MOL d          44.300 -21.031  -8.222  0.00  0.00     0.274 HD
ENDBRANCH  29  30
ENDBRANCH  24  29
ENDBRANCH  10  22
TORSDOF 7
