REMARK  10 active torsions:
REMARK  status: ('A' for Active; 'I' for Inactive)
REMARK    1  A    between atoms: C2_2  and  C1_1 
REMARK    2  A    between atoms: C2_2  and  O2_15 
REMARK    3  A    between atoms: C4_4  and  O4_16 
REMARK    4  A    between atoms: N5_12  and  C5_5 
REMARK    5  A    between atoms: C6_6  and  C7_7 
REMARK    6  A    between atoms: C7_7  and  C8_8 
REMARK    7  A    between atoms: C7_7  and  O7_18 
REMARK    8  A    between atoms: C8_8  and  C9_9 
REMARK    9  A    between atoms: C8_8  and  O8_19 
REMARK   10  A    between atoms: C9_9  and  O9_20 
REMARK       I    between atoms: C10_10  and  N5_12 
ROOT
ATOM      1  C2  SLB d          19.955  30.127  12.904  0.00  0.00     0.256 C 
ATOM      2  C3  SLB d          19.560  28.894  13.707  0.00  0.00     0.114 C 
ATOM      3  C4  SLB d          18.056  28.714  13.589  0.00  0.00     0.149 C 
ATOM      4  C5  SLB d          17.629  28.585  12.134  0.00  0.00     0.145 C 
ATOM      5  C6  SLB d          18.126  29.915  11.411  0.00  0.00     0.182 C 
ATOM      6  O6  SLB d          19.587  30.053  11.538  0.00  0.00    -0.336 OA
ENDROOT
BRANCH   5   7
ATOM      7  C7  SLB d          17.916  29.969   9.915  0.00  0.00     0.180 C 
BRANCH   7   8
ATOM      8  C8  SLB d          18.412  31.288   9.266  0.00  0.00     0.173 C 
BRANCH   8   9
ATOM      9  C9  SLB d          18.115  31.429   7.782  0.00  0.00     0.198 C 
BRANCH   9  10
ATOM     10  O9  SLB d          16.659  31.209   7.497  0.00  0.00    -0.398 OA
ATOM     11  H   SLB d          16.144  31.851   7.972  0.00  0.00     0.209 HD
ENDBRANCH   9  10
ENDBRANCH   8   9
BRANCH   8  12
ATOM     12  O8  SLB d          17.839  32.361   9.995  0.00  0.00    -0.391 OA
ATOM     13  H   SLB d          16.898  32.361   9.868  0.00  0.00     0.210 HD
ENDBRANCH   8  12
ENDBRANCH   7   8
BRANCH   7  14
ATOM     14  O7  SLB d          18.565  28.834   9.254  0.00  0.00    -0.390 OA
ATOM     15  H   SLB d          19.507  28.906   9.356  0.00  0.00     0.210 HD
ENDBRANCH   7  14
ENDBRANCH   5   7
BRANCH   4  16
ATOM     16  N5  SLB d          16.191  28.422  11.939  0.00  0.00    -0.352 N 
ATOM     17  C10 SLB d          15.676  27.248  11.538  0.00  0.00     0.214 C 
ATOM     18  C11 SLB d          14.161  27.253  11.367  0.00  0.00     0.117 C 
ATOM     19  O10 SLB d          16.419  26.259  11.327  0.00  0.00    -0.274 OA
ATOM     20  H   SLB d          15.580  29.196  12.107  0.00  0.00     0.163 HD
ENDBRANCH   4  16
BRANCH   3  21
ATOM     21  O4  SLB d          17.618  27.550  14.290  0.00  0.00    -0.393 OA
ATOM     22  H   SLB d          16.672  27.484  14.232  0.00  0.00     0.210 HD
ENDBRANCH   3  21
BRANCH   1  23
ATOM     23  C1  SLB d          21.450  30.264  12.801  0.00  0.00     0.238 C 
ATOM     24  O1A SLB d          22.006  31.239  13.354  0.00  0.00    -0.644 OA
ATOM     25  O1B SLB d          22.109  29.401  12.161  0.00  0.00    -0.644 OA
ENDBRANCH   1  23
BRANCH   1  26
ATOM     26  O2  SLB d          19.422  31.376  13.487  0.00  0.00    -0.357 OA
ATOM     27  H   SLB d          19.668  31.427  14.403  0.00  0.00     0.213 HD
ENDBRANCH   1  26
TORSDOF 10
