REMARK  13 active torsions:
REMARK  status: ('A' for Active; 'I' for Inactive)
REMARK    1  A    between atoms: O5_2  and  C18_3 
REMARK       I    between atoms: C18_3  and  N4_5 
REMARK    2  A    between atoms: N4_5  and  C13_6 
REMARK    3  A    between atoms: C13_6  and  C14_7 
REMARK    4  A    between atoms: C13_6  and  C12_11 
REMARK       I    between atoms: C12_11  and  N3_13 
REMARK    5  A    between atoms: N3_13  and  N2_14 
REMARK    6  A    between atoms: N2_14  and  C10_15 
REMARK    7  A    between atoms: N2_14  and  C9_23 
REMARK    8  A    between atoms: C10_15  and  C11_16 
REMARK    9  A    between atoms: C9_23  and  C8_24 
REMARK   10  A    between atoms: C8_24  and  C7_25 
REMARK   11  A    between atoms: C7_25  and  C1_26 
REMARK   12  A    between atoms: C1_26  and  O1_28 
REMARK   13  A    between atoms: C3_32  and  C4_33 
ROOT
ATOM      1  C7  M8B d          13.434  23.631   5.004  0.00  0.00     0.050 C 
ENDROOT
BRANCH   1   2
ATOM      2  C8  M8B d          13.880  24.253   6.359  0.00  0.00     0.033 C 
BRANCH   2   3
ATOM      3  C9  M8B d          15.287  23.837   6.816  0.00  0.00     0.263 C 
BRANCH   3   4
ATOM      4  N2  M8B d          15.371  22.438   7.171  0.00  0.00     0.015 N 
ATOM      5  H16 M8B d          14.452  22.085   7.389  0.00  0.00     0.309 HD
BRANCH   4   6
ATOM      6  N3  M8B d          15.882  21.745   6.176  0.00  0.00    -0.185 N 
ATOM      7  C12 M8B d          15.216  20.662   5.695  0.00  0.00     0.265 C 
ATOM      8  O3  M8B d          14.093  20.322   6.093  0.00  0.00    -0.269 OA
ATOM      9  H15 M8B d          16.758  22.014   5.775  0.00  0.00     0.197 HD
BRANCH   7  10
ATOM     10  C13 M8B d          16.059  19.816   4.681  0.00  0.00     0.188 C 
BRANCH  10  11
ATOM     11  N4  M8B d          16.807  18.823   5.492  0.00  0.00    -0.323 N 
ATOM     12  C18 M8B d          18.105  18.817   5.703  0.00  0.00     0.360 C 
ATOM     13  O4  M8B d          18.846  19.593   5.053  0.00  0.00    -0.239 OA
ATOM     14  H4  M8B d          16.275  18.091   5.917  0.00  0.00     0.165 HD
BRANCH  12  15
ATOM     15  O5  M8B d          18.596  17.903   6.606  0.00  0.00    -0.309 OA
ATOM     16  C19 M8B d          20.007  18.079   6.837  0.00  0.00     0.215 C 
ENDBRANCH  12  15
ENDBRANCH  10  11
BRANCH  10  17
ATOM     17  C14 M8B d          15.313  19.124   3.533  0.00  0.00    -0.022 C 
ATOM     18  C16 M8B d          16.407  18.620   2.637  0.00  0.00     0.017 C 
ATOM     19  C17 M8B d          14.387  17.941   4.016  0.00  0.00     0.017 C 
ATOM     20  C15 M8B d          14.483  20.172   2.694  0.00  0.00     0.017 C 
ENDBRANCH  10  17
ENDBRANCH   7  10
ENDBRANCH   4   6
BRANCH   4  21
ATOM     21  C10 M8B d          16.253  22.325   8.360  0.00  0.00     0.301 C 
BRANCH  21  22
ATOM     22  C11 M8B d          16.336  21.010   8.896  0.00  0.00    -0.030 A 
ATOM     23  C20 M8B d          15.173  20.321   9.272  0.00  0.00     0.010 A 
ATOM     24  C21 M8B d          15.316  19.000   9.755  0.00  0.00     0.019 A 
ATOM     25  C22 M8B d          16.538  18.406   9.913  0.00  0.00     0.011 A 
ATOM     26 BR1  M8B d          16.614  16.514  10.707  0.00  0.00    -0.051 Br
ATOM     27  C23 M8B d          17.676  19.113   9.559  0.00  0.00     0.019 A 
ATOM     28  C24 M8B d          17.565  20.395   9.001  0.00  0.00     0.010 A 
ENDBRANCH  21  22
ENDBRANCH   4  21
ENDBRANCH   3   4
ENDBRANCH   2   3
ENDBRANCH   1   2
BRANCH   1  29
ATOM     29  C1  M8B d          12.126  24.305   4.571  0.00  0.00     0.142 C 
ATOM     30  C25 M8B d          11.665  23.625   3.194  0.00  0.00     0.086 C 
ATOM     31  C26 M8B d          10.342  24.117   2.798  0.00  0.00    -0.055 A 
ATOM     32  C27 M8B d          10.230  25.371   2.164  0.00  0.00     0.008 A 
ATOM     33  C31 M8B d           9.183  23.350   3.020  0.00  0.00     0.008 A 
ATOM     34  C28 M8B d           8.924  25.822   1.821  0.00  0.00     0.008 A 
ATOM     35  C29 M8B d           7.764  25.053   2.056  0.00  0.00    -0.055 A 
ATOM     36  C32 M8B d           6.463  25.568   1.657  0.00  0.00     0.065 C 
ATOM     37  C30 M8B d           7.929  23.796   2.662  0.00  0.00     0.008 A 
ATOM     38  C33 M8B d           5.358  25.399   2.506  0.00  0.00    -0.025 C 
ATOM     39  C36 M8B d           5.138  26.013   3.744  0.00  0.00    -0.011 C 
ATOM     40  C37 M8B d           6.018  26.937   4.386  0.00  0.00     0.149 C 
ATOM     41  N5  M8B d           6.893  26.137   5.284  0.00  0.00    -0.356 N 
ATOM     42  C34 M8B d           8.181  26.495   5.681  0.00  0.00     0.241 C 
ATOM     43  H43 M8B d           6.528  25.273   5.631  0.00  0.00     0.162 HD
ATOM     44  C3  M8B d           9.049  25.641   6.511  0.00  0.00     0.184 C 
ATOM     45  O6  M8B d           8.538  27.595   5.244  0.00  0.00    -0.271 OA
ATOM     46  N1  M8B d          10.350  25.523   5.762  0.00  0.00    -0.344 N 
ATOM     47  C2  M8B d          11.047  24.330   5.532  0.00  0.00     0.253 C 
ATOM     48  H32 M8B d          10.749  26.365   5.399  0.00  0.00     0.163 HD
ATOM     49  O2  M8B d          10.507  23.324   6.004  0.00  0.00    -0.270 OA
BRANCH  44  50
ATOM     50  C4  M8B d           9.209  26.148   7.922  0.00  0.00    -0.022 C 
ATOM     51  C6  M8B d           9.982  27.497   7.970  0.00  0.00     0.017 C 
ATOM     52  C35 M8B d           7.757  26.449   8.484  0.00  0.00     0.017 C 
ATOM     53  C5  M8B d           9.896  25.130   8.777  0.00  0.00     0.017 C 
ENDBRANCH  44  50
BRANCH  29  54
ATOM     54  O1  M8B d          12.436  25.691   4.393  0.00  0.00    -0.380 OA
ATOM     55  H31 M8B d          12.705  26.064   5.224  0.00  0.00     0.211 HD
ENDBRANCH  29  54
ENDBRANCH   1  29
TORSDOF 13
