REMARK  3 active torsions:
REMARK  status: ('A' for Active; 'I' for Inactive)
REMARK    1  A    between atoms: C27_27  and  C7_7 
REMARK    2  A    between atoms: C11_11  and  C18_18 
REMARK    3  A    between atoms: C26_26  and  C27_27 
ROOT
ATOM      1  C11 6XE d          18.244  12.202  41.405  0.00  0.00     0.106 A 
ATOM      2  C12 6XE d          17.697  13.155  40.482  0.00  0.00     0.170 A 
ATOM      3  N13 6XE d          17.555  12.850  39.194  0.00  0.00    -0.069 NA
ATOM      4  N14 6XE d          18.602  11.013  40.946  0.00  0.00    -0.149 NA
ATOM      5  N22 6XE d          18.447  10.697  39.586  0.00  0.00    -0.041 N 
ATOM      6  C23 6XE d          17.918  11.635  38.713  0.00  0.00     0.769 A 
ATOM      7  N24 6XE d          17.892  11.067  37.522  0.00  0.00     0.047 NA
ATOM      8  N25 6XE d          18.360   9.867  37.608  0.00  0.00    -0.117 NA
ATOM      9  C26 6XE d          18.712   9.593  38.841  0.00  0.00     0.173 A 
ENDROOT
BRANCH   9  10
ATOM     10  C27 6XE d          19.299   8.282  39.344  0.00  0.00     0.121 C 
BRANCH  10  11
ATOM     11  C7  6XE d          20.746   8.414  39.801  0.00  0.00    -0.050 A 
ATOM     12  C8  6XE d          21.797   8.294  38.849  0.00  0.00     0.010 A 
ATOM     13  C9  6XE d          23.130   8.399  39.230  0.00  0.00     0.033 A 
ATOM     14  C2  6XE d          23.467   8.631  40.600  0.00  0.00     0.066 A 
ATOM     15  C1  6XE d          22.396   8.757  41.580  0.00  0.00    -0.007 A 
ATOM     16  N3  6XE d          24.762   8.735  41.009  0.00  0.00    -0.260 NA
ATOM     17  C6  6XE d          22.749   8.993  42.950  0.00  0.00     0.015 A 
ATOM     18  C10 6XE d          21.032   8.643  41.152  0.00  0.00     0.021 A 
ATOM     19  C5  6XE d          24.098   9.089  43.299  0.00  0.00     0.020 A 
ATOM     20  C4  6XE d          25.091   8.952  42.293  0.00  0.00     0.117 A 
ENDBRANCH  10  11
ENDBRANCH   9  10
BRANCH   1  21
ATOM     21  C18 6XE d          18.425  12.503  42.855  0.00  0.00    -0.004 A 
ATOM     22  C17 6XE d          18.044  13.764  43.407  0.00  0.00     0.017 A 
ATOM     23  C16 6XE d          18.233  14.015  44.777  0.00  0.00     0.043 A 
ATOM     24  C15 6XE d          18.803  13.023  45.609  0.00  0.00     0.116 A 
ATOM     25  C20 6XE d          19.181  11.772  45.073  0.00  0.00     0.043 A 
ATOM     26  F21 6XE d          18.987  13.271  46.919  0.00  0.00    -0.206 F 
ATOM     27  C19 6XE d          18.994  11.508  43.705  0.00  0.00     0.017 A 
ENDBRANCH   1  21
TORSDOF 3
