REMARK  10 active torsions:
REMARK  status: ('A' for Active; 'I' for Inactive)
REMARK    1  A    between atoms: C4_4  and  C8_8 
REMARK    2  A    between atoms: C6_6  and  O33_33 
REMARK       I    between atoms: C8_8  and  N9_9 
REMARK    3  A    between atoms: N9_9  and  C10_10 
REMARK    4  A    between atoms: C10_10  and  C11_11 
REMARK    5  A    between atoms: C10_10  and  C12_12 
REMARK    6  A    between atoms: C11_11  and  C19_19 
REMARK    7  A    between atoms: C12_12  and  C13_13 
REMARK    8  A    between atoms: C12_12  and  O25_25 
REMARK       I    between atoms: C13_13  and  N14_14 
REMARK    9  A    between atoms: C15_15  and  C29_29 
REMARK       I    between atoms: C29_29  and  N30_30 
REMARK   10  A    between atoms: N30_30  and  C31_31 
ROOT
ATOM      1  C10 K57 d          15.113  22.598  17.345  0.00  0.00     0.127 C 
ENDROOT
BRANCH   1   2
ATOM      2  N9  K57 d          14.102  21.637  17.807  0.00  0.00    -0.349 N 
ATOM      3  C8  K57 d          14.441  20.389  18.234  0.00  0.00     0.252 C 
ATOM      4  O34 K57 d          15.625  20.063  18.335  0.00  0.00    -0.268 OA
ATOM      5  H7  K57 d          13.139  21.907  17.808  0.00  0.00     0.163 HD
BRANCH   3   6
ATOM      6  C4  K57 d          13.308  19.467  18.542  0.00  0.00     0.040 A 
ATOM      7  C3  K57 d          12.282  19.264  17.569  0.00  0.00     0.018 A 
ATOM      8  C2  K57 d          11.196  18.394  17.824  0.00  0.00     0.004 A 
ATOM      9  C1  K57 d          11.114  17.709  19.053  0.00  0.00     0.037 A 
ATOM     10  C6  K57 d          12.115  17.891  20.036  0.00  0.00     0.072 A 
ATOM     11  C5  K57 d          13.225  18.766  19.807  0.00  0.00    -0.013 A 
ATOM     12  C7  K57 d          14.276  18.923  20.901  0.00  0.00     0.052 C 
BRANCH  10  13
ATOM     13  O33 K57 d          12.008  17.206  21.231  0.00  0.00    -0.360 OA
ATOM     14  H28 K57 d          11.221  16.674  21.221  0.00  0.00     0.217 HD
ENDBRANCH  10  13
ENDBRANCH   3   6
ENDBRANCH   1   2
BRANCH   1  15
ATOM     15  C11 K57 d          15.125  22.858  15.814  0.00  0.00     0.066 C 
BRANCH  15  16
ATOM     16  C19 K57 d          14.178  22.034  14.994  0.00  0.00    -0.056 A 
ATOM     17  C20 K57 d          14.728  21.053  14.126  0.00  0.00     0.007 A 
ATOM     18  C21 K57 d          13.887  20.230  13.328  0.00  0.00     0.001 A 
ATOM     19  C22 K57 d          12.484  20.392  13.402  0.00  0.00     0.000 A 
ATOM     20  C23 K57 d          11.924  21.375  14.268  0.00  0.00     0.001 A 
ATOM     21  C24 K57 d          12.766  22.192  15.060  0.00  0.00     0.007 A 
ENDBRANCH  15  16
ENDBRANCH   1  15
BRANCH   1  22
ATOM     22  C12 K57 d          15.036  23.836  18.244  0.00  0.00     0.233 C 
BRANCH  22  23
ATOM     23  C13 K57 d          16.298  24.703  18.479  0.00  0.00     0.252 C 
ATOM     24  N14 K57 d          17.437  24.097  19.034  0.00  0.00    -0.326 N 
ATOM     25  C15 K57 d          18.748  24.756  18.869  0.00  0.00     0.198 C 
ATOM     26  C18 K57 d          17.502  22.758  19.683  0.00  0.00     0.201 C 
ATOM     27  C16 K57 d          19.733  24.120  19.907  0.00  0.00     0.032 C 
ATOM     28  S17 K57 d          19.236  22.406  20.042  0.00  0.00    -0.137 SA
ATOM     29  C27 K57 d          19.619  24.767  21.303  0.00  0.00     0.029 C 
ATOM     30  C28 K57 d          21.203  24.152  19.427  0.00  0.00     0.029 C 
ATOM     31  O26 K57 d          16.307  25.831  18.008  0.00  0.00    -0.270 OA
BRANCH  25  32
ATOM     32  C29 K57 d          19.142  24.559  17.360  0.00  0.00     0.242 C 
ATOM     33  N30 K57 d          19.729  25.670  16.793  0.00  0.00    -0.351 N 
ATOM     34  H27 K57 d          19.849  26.465  17.388  0.00  0.00     0.163 HD
ATOM     35  O32 K57 d          18.912  23.490  16.783  0.00  0.00    -0.271 OA
BRANCH  33  36
ATOM     36  C31 K57 d          20.202  25.812  15.392  0.00  0.00     0.022 C 
ATOM     37  C35 K57 d          20.757  27.241  15.275  0.00  0.00     0.037 C 
ATOM     38  C67 K57 d          19.031  25.622  14.400  0.00  0.00     0.037 C 
ATOM     39  C71 K57 d          21.341  24.801  15.094  0.00  0.00     0.037 C 
ENDBRANCH  33  36
ENDBRANCH  25  32
ENDBRANCH  22  23
BRANCH  22  40
ATOM     40  O25 K57 d          13.814  24.204  18.796  0.00  0.00    -0.384 OA
ATOM     41  H20 K57 d          13.153  23.566  18.554  0.00  0.00     0.210 HD
ENDBRANCH  22  40
ENDBRANCH   1  22
TORSDOF 10
