REMARK  15 active torsions:
REMARK  status: ('A' for Active; 'I' for Inactive)
REMARK    1  A    between atoms: N2_8  and  C2_9 
REMARK    2  A    between atoms: C3_11  and  O4_12 
REMARK    3  A    between atoms: C4_13  and  O3_14 
REMARK    4  A    between atoms: C5_15  and  C6_16 
REMARK    5  A    between atoms: C6_16  and  O2_17 
REMARK    6  A    between atoms: O2_17  and  P1_18 
REMARK    7  A    between atoms: P1_18  and  O3_21 
REMARK    8  A    between atoms: O3_21  and  P2_22 
REMARK    9  A    between atoms: P2_22  and  O4_25 
REMARK   10  A    between atoms: O4_25  and  C7_26 
REMARK   11  A    between atoms: C7_26  and  C8_27 
REMARK   12  A    between atoms: C8_27  and  O5_28 
REMARK   13  A    between atoms: O5_28  and  C9_29 
REMARK   14  A    between atoms: C9_29  and  C1_31 
REMARK   15  A    between atoms: C6_36  and  N1_37 
ROOT
ATOM      1  P1  MOL d          -0.388   7.815  10.267  0.00  0.00     0.417 P 
ATOM      2  O1  MOL d           0.125   9.048   9.629  0.00  0.00    -0.624 OA
ATOM      3  O9  MOL d          -1.344   7.917  11.388  0.00  0.00    -0.624 OA
ENDROOT
BRANCH   1   4
ATOM      4  O2  MOL d           0.874   6.935  10.738  0.00  0.00    -0.287 OA
BRANCH   4   5
ATOM      5  C6  MOL d           1.578   6.085   9.813  0.00  0.00     0.216 C 
BRANCH   5   6
ATOM      6  C5  MOL d           2.365   4.996  10.545  0.00  0.00     0.180 C 
ATOM      7  O2  MOL d           3.236   5.657  11.491  0.00  0.00    -0.353 OA
ATOM      8  C2  MOL d           3.306   4.853  12.709  0.00  0.00     0.264 C 
ATOM      9  C3  MOL d           2.342   3.672  12.519  0.00  0.00     0.198 C 
ATOM     10  C4  MOL d           1.428   4.135  11.391  0.00  0.00     0.182 C 
BRANCH   8  11
ATOM     11  N2  MOL d           2.976   5.697  13.903  0.00  0.00    -0.278 N 
ATOM     12  C1  MOL d           3.762   5.621  15.073  0.00  0.00     0.352 A 
ATOM     13  O1  MOL d           4.727   4.863  15.143  0.00  0.00    -0.244 OA
ATOM     14  N4  MOL d           3.447   6.420  16.182  0.00  0.00    -0.177 NA
ATOM     15  C9  MOL d           2.354   7.294  16.137  0.00  0.00     0.128 A 
ATOM     16  N3  MOL d           2.066   8.044  17.196  0.00  0.00    -0.384 N 
ATOM     17  C8  MOL d           1.575   7.374  14.987  0.00  0.00     0.067 A 
ATOM     18  H1  MOL d           1.263   8.688  17.168  0.00  0.00     0.157 HD
ATOM     19  H2  MOL d           2.646   7.981  18.045  0.00  0.00     0.157 HD
ATOM     20  C7  MOL d           1.880   6.588  13.878  0.00  0.00     0.102 A 
ENDBRANCH   8  11
BRANCH   9  21
ATOM     21  O4  MOL d           3.080   2.509  12.122  0.00  0.00    -0.388 OA
ATOM     22  H7  MOL d           2.482   1.780  12.005  0.00  0.00     0.210 HD
ENDBRANCH   9  21
BRANCH  10  23
ATOM     23  O3  MOL d           0.952   3.017  10.633  0.00  0.00    -0.390 OA
ATOM     24  H9  MOL d           1.691   2.552  10.259  0.00  0.00     0.210 HD
ENDBRANCH  10  23
ENDBRANCH   5   6
ENDBRANCH   4   5
ENDBRANCH   1   4
BRANCH   1  25
ATOM     25  O3  MOL d          -1.055   6.846   9.153  0.00  0.00    -0.180 OA
BRANCH  25  26
ATOM     26  P2  MOL d          -1.689   7.355   7.750  0.00  0.00     0.417 P 
ATOM     27  O8  MOL d          -1.187   8.703   7.393  0.00  0.00    -0.624 OA
ATOM     28  O7  MOL d          -3.152   7.115   7.790  0.00  0.00    -0.624 OA
BRANCH  26  29
ATOM     29  O4  MOL d          -1.037   6.312   6.697  0.00  0.00    -0.287 OA
BRANCH  29  30
ATOM     30  C7  MOL d          -1.244   4.895   6.814  0.00  0.00     0.208 C 
BRANCH  30  31
ATOM     31  C8  MOL d           0.091   4.150   6.759  0.00  0.00     0.206 C 
BRANCH  31  32
ATOM     32  O5  MOL d           0.291   3.562   5.452  0.00  0.00    -0.315 OA
BRANCH  32  33
ATOM     33  C9  MOL d           1.357   4.090   4.773  0.00  0.00     0.295 C 
ATOM     34  O6  MOL d           2.266   4.659   5.382  0.00  0.00    -0.259 OA
BRANCH  33  35
ATOM     35  C1  MOL d           1.412   3.961   3.240  0.00  0.00     0.065 A 
ATOM     36  C2  MOL d           0.229   3.771   2.523  0.00  0.00     0.020 A 
ATOM     37  C3  MOL d           0.265   3.653   1.133  0.00  0.00     0.001 A 
ATOM     38  C4  MOL d           1.479   3.721   0.451  0.00  0.00     0.002 A 
ATOM     39  C5  MOL d           2.663   3.911   1.162  0.00  0.00     0.030 A 
ATOM     40  C6  MOL d           2.631   4.032   2.552  0.00  0.00     0.042 A 
BRANCH  40  41
ATOM     41  N1  MOL d           3.775   4.214   3.206  0.00  0.00    -0.398 N 
ATOM     42  H21 MOL d           3.773   4.306   4.232  0.00  0.00     0.156 HD
ATOM     43  H22 MOL d           4.663   4.263   2.687  0.00  0.00     0.156 HD
ENDBRANCH  40  41
ENDBRANCH  33  35
ENDBRANCH  32  33
ENDBRANCH  31  32
ENDBRANCH  30  31
ENDBRANCH  29  30
ENDBRANCH  26  29
ENDBRANCH  25  26
ENDBRANCH   1  25
TORSDOF 15
