REMARK  2 active torsions:
REMARK  status: ('A' for Active; 'I' for Inactive)
REMARK    1  A    between atoms: C1_1  and  S_11 
REMARK    2  A    between atoms: S_11  and  N1'_14 
ROOT
ATOM      1  S   IQP d           8.256   9.840   4.431  0.00  0.00     0.244 S 
ATOM      2  O1  IQP d           7.868   8.911   5.494  0.00  0.00    -0.206 OA
ATOM      3  O2  IQP d           8.487  11.227   4.736  0.00  0.00    -0.206 OA
ENDROOT
BRANCH   1   4
ATOM      4  C1  IQP d           6.922   9.907   3.259  0.00  0.00     0.086 A 
ATOM      5  C10 IQP d           5.544   9.902   3.681  0.00  0.00    -0.000 A 
ATOM      6  C5  IQP d           4.510   9.957   2.683  0.00  0.00    -0.007 A 
ATOM      7  C9  IQP d           5.150   9.842   5.060  0.00  0.00     0.033 A 
ATOM      8  C4  IQP d           4.849  10.017   1.299  0.00  0.00     0.014 A 
ATOM      9  C6  IQP d           3.166   9.949   3.107  0.00  0.00     0.128 A 
ATOM     10  C3  IQP d           6.206  10.025   0.877  0.00  0.00     0.002 A 
ATOM     11  C2  IQP d           7.223   9.971   1.862  0.00  0.00     0.026 A 
ATOM     12  N7  IQP d           2.885   9.890   4.424  0.00  0.00    -0.272 NA
ATOM     13  C8  IQP d           3.810   9.837   5.406  0.00  0.00     0.117 A 
ENDBRANCH   1   4
BRANCH   1  14
ATOM     14  N1' IQP d           9.428   9.139   3.596  0.00  0.00    -0.199 NA
ATOM     15  C6' IQP d           9.393   7.654   3.806  0.00  0.00     0.135 C 
ATOM     16  C5' IQP d          10.379   6.942   2.873  0.00  0.00     0.247 C 
ATOM     17  N4' IQP d          11.698   7.531   3.190  0.00  0.00    -0.072 N 
ATOM     18  C3' IQP d          11.838   9.021   2.930  0.00  0.00     0.252 C 
ATOM     19  H13 IQP d          11.882   7.369   4.168  0.00  0.00     0.277 HD
ATOM     20  H14 IQP d          12.391   7.054   2.635  0.00  0.00     0.277 HD
ATOM     21  C2' IQP d          10.784   9.794   3.767  0.00  0.00     0.096 C 
ATOM     22  CM2 IQP d          11.273   9.659   5.229  0.00  0.00     0.029 C 
ENDBRANCH   1  14
TORSDOF 2
