REMARK  7 active torsions:
REMARK  status: ('A' for Active; 'I' for Inactive)
REMARK    1  A    between atoms: C1_1  and  S1_12 
REMARK    2  A    between atoms: C2_2  and  O2_3 
REMARK    3  A    between atoms: C3_4  and  O3_5 
REMARK    4  A    between atoms: C4_6  and  O4_7 
REMARK    5  A    between atoms: C5_8  and  C6_10 
REMARK    6  A    between atoms: C6_10  and  O6_11 
REMARK    7  A    between atoms: S1_12  and  C1'_13 
ROOT
ATOM      1  C1  IPT d          14.735  27.549  75.792  0.00  0.00     0.215 C 
ATOM      2  C2  IPT d          13.407  27.473  76.579  0.00  0.00     0.188 C 
ATOM      3  C3  IPT d          12.268  27.146  75.609  0.00  0.00     0.181 C 
ATOM      4  C4  IPT d          12.194  28.241  74.540  0.00  0.00     0.180 C 
ATOM      5  C5  IPT d          13.569  28.299  73.816  0.00  0.00     0.178 C 
ATOM      6  O5  IPT d          14.644  28.566  74.757  0.00  0.00    -0.363 OA
ENDROOT
BRANCH   1   7
ATOM      7  S1  IPT d          16.109  27.948  76.912  0.00  0.00    -0.131 SA
BRANCH   7   8
ATOM      8  C1' IPT d          17.526  27.886  75.763  0.00  0.00     0.041 C 
ATOM      9  C2' IPT d          17.651  29.189  74.972  0.00  0.00     0.021 C 
ATOM     10  C3' IPT d          18.812  27.666  76.577  0.00  0.00     0.021 C 
ENDBRANCH   7   8
ENDBRANCH   1   7
BRANCH   2  11
ATOM     11  O2  IPT d          13.507  26.462  77.577  0.00  0.00    -0.389 OA
ATOM     12  H3  IPT d          12.691  26.415  78.061  0.00  0.00     0.210 HD
ENDBRANCH   2  11
BRANCH   3  13
ATOM     13  O3  IPT d          11.033  27.070  76.303  0.00  0.00    -0.390 OA
ATOM     14  H5  IPT d          10.854  27.904  76.721  0.00  0.00     0.210 HD
ENDBRANCH   3  13
BRANCH   5  15
ATOM     15  C6  IPT d          13.553  29.398  72.738  0.00  0.00     0.198 C 
BRANCH  15  16
ATOM     16  O6  IPT d          12.434  29.214  71.872  0.00  0.00    -0.398 OA
ATOM     17  H11 IPT d          12.432  29.896  71.210  0.00  0.00     0.209 HD
ENDBRANCH  15  16
ENDBRANCH   5  15
BRANCH   4  18
ATOM     18  O4  IPT d          11.858  29.508  75.142  0.00  0.00    -0.390 OA
ATOM     19  H7  IPT d          11.015  29.438  75.574  0.00  0.00     0.210 HD
ENDBRANCH   4  18
TORSDOF 7
