REMARK  2 active torsions:
REMARK  status: ('A' for Active; 'I' for Inactive)
REMARK    1  A    between atoms: C3_14  and  C8_7 
REMARK    2  A    between atoms: C1_15  and  O1_20 
ROOT
ATOM      1  N1  MOL d          17.574  -2.251  49.855  0.00  0.00    -0.215 NA
ATOM      2  N3  MOL d          17.521   0.057  49.146  0.00  0.00    -0.348 N 
ATOM      3  C8  MOL d          15.105  -1.643  51.122  0.00  0.00     0.086 A 
ATOM      4  C10 MOL d          17.408  -4.543  50.703  0.00  0.00     0.093 C 
ATOM      5  C13 MOL d          15.618   0.769  50.059  0.00  0.00     0.076 A 
ATOM      6  C15 MOL d          14.552   1.652  50.427  0.00  0.00     0.102 C 
ATOM      7  C14 MOL d          16.697   1.147  49.293  0.00  0.00     0.113 A 
ATOM      8  C12 MOL d          15.784  -0.613  50.396  0.00  0.00     0.062 A 
ATOM      9  C11 MOL d          16.994  -1.014  49.804  0.00  0.00     0.143 A 
ATOM     10  C9  MOL d          16.852  -3.152  50.575  0.00  0.00     0.125 A 
ATOM     11  N4  MOL d          13.686   2.345  50.755  0.00  0.00    -0.191 NA
ATOM     12  N2  MOL d          15.667  -2.909  51.196  0.00  0.00    -0.232 NA
ATOM     13  H1  MOL d          18.405   0.050  48.617  0.00  0.00     0.167 HD
ENDROOT
BRANCH   3  14
ATOM     14  C3  MOL d          13.820  -1.511  51.813  0.00  0.00     0.018 A 
ATOM     15  C4  MOL d          12.583  -1.220  51.121  0.00  0.00     0.048 A 
ATOM     16  C5  MOL d          11.364  -1.126  51.828  0.00  0.00     0.051 A 
ATOM     17 CL2  MOL d          12.500  -0.969  49.402  0.00  0.00    -0.083 Cl
ATOM     18  C6  MOL d          11.335  -1.310  53.226  0.00  0.00     0.069 A 
ATOM     19  C1  MOL d          12.533  -1.588  53.962  0.00  0.00     0.090 A 
ATOM     20 CL1  MOL d           9.798  -1.184  53.998  0.00  0.00    -0.081 Cl
ATOM     21  C2  MOL d          13.768  -1.687  53.229  0.00  0.00     0.054 A 
BRANCH  19  22
ATOM     22  O1  MOL d          12.387  -1.739  55.334  0.00  0.00    -0.354 OA
ATOM     23  C7  MOL d          13.531  -2.016  56.154  0.00  0.00     0.210 C 
ENDBRANCH  19  22
ENDBRANCH   3  14
TORSDOF 2
