REMARK  5 active torsions:
REMARK  status: ('A' for Active; 'I' for Inactive)
REMARK       I    between atoms: C14_2  and  N4_3 
REMARK    1  A    between atoms: C14_2  and  C11_4 
REMARK    2  A    between atoms: N3_7  and  C8_10 
REMARK    3  A    between atoms: C8_10  and  O2_11 
REMARK    4  A    between atoms: O2_11  and  C7_12 
REMARK    5  A    between atoms: C7_12  and  N2_13 
ROOT
ATOM      1  C11 HI6 d          37.142  20.818   9.865  0.00  0.00     0.034 A 
ATOM      2  C10 HI6 d          37.148  21.965  10.654  0.00  0.00     0.034 A 
ATOM      3  C9  HI6 d          36.152  22.916  10.497  0.00  0.00     0.093 A 
ATOM      4  N3  HI6 d          35.177  22.743   9.600  0.00  0.00    -0.345 N 
ATOM      5  C13 HI6 d          35.136  21.639   8.826  0.00  0.00     0.093 A 
ATOM      6  C12 HI6 d          36.118  20.648   8.929  0.00  0.00     0.034 A 
ENDROOT
BRANCH   4   7
ATOM      7  C8  HI6 d          34.140  23.767   9.462  0.00  0.00     0.299 C 
BRANCH   7   8
ATOM      8  O2  HI6 d          32.978  23.028   9.106  0.00  0.00    -0.352 OA
BRANCH   8   9
ATOM      9  C7  HI6 d          31.783  23.795   9.081  0.00  0.00     0.299 C 
BRANCH   9  10
ATOM     10  N2  HI6 d          30.941  23.294  10.161  0.00  0.00    -0.345 N 
ATOM     11  C2  HI6 d          30.201  22.204   9.954  0.00  0.00     0.092 A 
ATOM     12  C3  HI6 d          29.405  21.724  10.985  0.00  0.00     0.017 A 
ATOM     13  C4  HI6 d          29.370  22.375  12.219  0.00  0.00     0.003 A 
ATOM     14  C5  HI6 d          30.142  23.508  12.397  0.00  0.00     0.017 A 
ATOM     15  C6  HI6 d          30.926  23.940  11.334  0.00  0.00     0.092 A 
ENDBRANCH   9  10
ENDBRANCH   8   9
ENDBRANCH   7   8
ENDBRANCH   4   7
BRANCH   1  16
ATOM     16  C14 HI6 d          38.231  19.789  10.072  0.00  0.00     0.249 C 
ATOM     17  O3  HI6 d          38.214  18.718   9.485  0.00  0.00    -0.268 OA
ATOM     18  N4  HI6 d          39.191  20.070  10.953  0.00  0.00    -0.366 N 
ATOM     19  H1  HI6 d          39.193  20.951  11.427  0.00  0.00     0.159 HD
ATOM     20  H2  HI6 d          39.909  19.400  11.140  0.00  0.00     0.159 HD
ENDBRANCH   1  16
TORSDOF 5
