REMARK  9 active torsions:
REMARK  status: ('A' for Active; 'I' for Inactive)
REMARK    1  A    between atoms: N1_1  and  C2_2 
REMARK    2  A    between atoms: C2_2  and  C3_3 
REMARK    3  A    between atoms: C3_3  and  C4_4 
REMARK    4  A    between atoms: C4_4  and  C5_5 
REMARK    5  A    between atoms: C5_5  and  N6_6 
REMARK    6  A    between atoms: N6_6  and  C7_7 
REMARK    7  A    between atoms: C7_7  and  C8_8 
REMARK    8  A    between atoms: C8_8  and  C9_9 
REMARK    9  A    between atoms: C9_9  and  N10_10 
ROOT
ATOM      1  N6  SPD d          20.963   2.910  -3.520  0.00  0.00    -0.075 N 
ATOM      2  H   SPD d          21.813   2.386  -3.660  0.00  0.00     0.277 HD
ATOM      3  H   SPD d          21.050   3.477  -2.691  0.00  0.00     0.277 HD
ENDROOT
BRANCH   1   4
ATOM      4  C5  SPD d          19.944   1.943  -3.234  0.00  0.00     0.232 C 
BRANCH   4   5
ATOM      5  C4  SPD d          19.911   0.849  -4.285  0.00  0.00     0.029 C 
BRANCH   5   6
ATOM      6  C3  SPD d          18.531   0.651  -4.844  0.00  0.00     0.029 C 
BRANCH   6   7
ATOM      7  C2  SPD d          18.018  -0.742  -4.485  0.00  0.00     0.229 C 
BRANCH   7   8
ATOM      8  N1  SPD d          17.023  -0.697  -3.405  0.00  0.00    -0.079 N 
ATOM      9  H   SPD d          16.710  -1.632  -3.198  0.00  0.00     0.274 HD
ATOM     10  H   SPD d          16.237  -0.136  -3.695  0.00  0.00     0.274 HD
ATOM     11  H   SPD d          17.439  -0.292  -2.581  0.00  0.00     0.274 HD
ENDBRANCH   7   8
ENDBRANCH   6   7
ENDBRANCH   5   6
ENDBRANCH   4   5
ENDBRANCH   1   4
BRANCH   1  12
ATOM     12  C7  SPD d          20.876   3.842  -4.637  0.00  0.00     0.233 C 
BRANCH  12  13
ATOM     13  C8  SPD d          21.909   4.912  -4.295  0.00  0.00     0.055 C 
BRANCH  13  14
ATOM     14  C9  SPD d          21.568   6.286  -4.862  0.00  0.00     0.231 C 
BRANCH  14  15
ATOM     15  N10 SPD d          20.709   6.976  -3.908  0.00  0.00    -0.079 N 
ATOM     16  H   SPD d          20.473   7.888  -4.267  0.00  0.00     0.274 HD
ATOM     17  H   SPD d          21.194   7.076  -3.030  0.00  0.00     0.274 HD
ATOM     18  H   SPD d          19.866   6.442  -3.767  0.00  0.00     0.274 HD
ENDBRANCH  14  15
ENDBRANCH  13  14
ENDBRANCH  12  13
ENDBRANCH   1  12
TORSDOF 9
