1ugp_ligand

Created by X-TOOL on Fri Sep 26 17:34:25 2014
 13 12  0  0  0  0  0  0  0  0999 V2000
    8.3480   33.7380   20.0450  C 0  0  0  4  0  4
    8.7920   34.8590   19.0760  C 0  0  0  3  0  4
    9.7670   35.2570   17.9440  C 0  0  0  3  0  4
    9.1760   34.9100   16.5750  C 0  5  0  1  0  3
    9.3020   35.7490   15.6450  O 0  0  0  1  0  1
    8.6060   33.8200   16.4360  O 0  0  0  1  0  1
    7.5184   34.1007   20.6697  H 0  0  0  1  0  1
    9.1937   33.4529   20.6880  H 0  0  0  1  0  1
    8.0160   32.8633   19.4664  H 0  0  0  1  0  1
    9.0108   35.6571   19.8007  H 0  0  0  1  0  1
    7.8331   35.0676   18.5791  H 0  0  0  1  0  1
   10.7148   34.7146   18.0762  H 0  0  0  1  0  1
    9.9543   36.3398   17.9926  H 0  0  0  1  0  1
  1  2  1  0  0  2
  2  3  1  0  0  2
  3  4  1  0  0  2
  4  5  2  0  0  2
  4  6  2  0  0  2
  1  7  1  0  0  2
  1  8  1  0  0  2
  1  9  1  0  0  2
  2 10  1  0  0  2
  2 11  1  0  0  2
  3 12  1  0  0  2
  3 13  1  0  0  2
M  END
> <MOLECULAR_FORMULA>
C4H7O2

> <MOLECULAR_WEIGHT>
87.0 

> <NUM_HB_ATOMS>
2  

> <NUM_ROTOR>
1  

> <XLOGP2>
0.50 

$$$$
