REMARK  7 active torsions:
REMARK  status: ('A' for Active; 'I' for Inactive)
REMARK    1  A    between atoms: C21_2  and  C15_4 
REMARK    2  A    between atoms: C14_9  and  N02_10 
REMARK    3  A    between atoms: N02_10  and  C10_11 
REMARK    4  A    between atoms: C09_12  and  C20_13 
REMARK    5  A    between atoms: C08_19  and  N01_20 
REMARK    6  A    between atoms: N01_20  and  C03_21 
REMARK    7  A    between atoms: C02_26  and  C01_27 
ROOT
ATOM      1  C10 MOL d         -17.706  32.595 -15.504  0.00  0.00     0.052 A 
ATOM      2  C09 MOL d         -18.026  31.271 -15.794  0.00  0.00     0.094 A 
ATOM      3  C11 MOL d         -17.026  32.846 -14.306  0.00  0.00     0.030 A 
ATOM      4  C12 MOL d         -16.659  31.828 -13.438  0.00  0.00     0.005 A 
ATOM      5  C13 MOL d         -16.979  30.518 -13.751  0.00  0.00     0.030 A 
ATOM      6  C08 MOL d         -17.684  30.236 -14.921  0.00  0.00     0.052 A 
ENDROOT
BRANCH   1   7
ATOM      7  N02 MOL d         -18.056  33.586 -16.391  0.00  0.00    -0.354 N 
ATOM      8  H   MOL d         -18.634  33.285 -17.189  0.00  0.00     0.166 HD
BRANCH   7   9
ATOM      9  C14 MOL d         -17.739  34.930 -16.359  0.00  0.00     0.049 A 
ATOM     10  C15 MOL d         -18.532  35.835 -17.062  0.00  0.00     0.067 A 
ATOM     11  C16 MOL d         -18.269  37.200 -17.055  0.00  0.00     0.021 A 
ATOM     12  C17 MOL d         -17.182  37.705 -16.353  0.00  0.00     0.001 A 
ATOM     13  C18 MOL d         -16.368  36.825 -15.653  0.00  0.00     0.002 A 
ATOM     14  C19 MOL d         -16.648  35.460 -15.671  0.00  0.00     0.030 A 
BRANCH  10  15
ATOM     15  C21 MOL d         -19.732  35.380 -17.836  0.00  0.00     0.211 C 
ATOM     16  O05 MOL d         -19.808  34.191 -18.224  0.00  0.00    -0.644 OA
ATOM     17  O06 MOL d         -20.629  36.230 -18.054  0.00  0.00    -0.644 OA
ENDBRANCH  10  15
ENDBRANCH   7   9
ENDBRANCH   1   7
BRANCH   2  18
ATOM     18  C20 MOL d         -18.740  30.948 -17.080  0.00  0.00     0.214 C 
ATOM     19  O04 MOL d         -19.791  31.543 -17.383  0.00  0.00    -0.644 OA
ATOM     20  O03 MOL d         -18.231  30.097 -17.848  0.00  0.00    -0.644 OA
ENDBRANCH   2  18
BRANCH   6  21
ATOM     21  N01 MOL d         -18.012  28.944 -15.223  0.00  0.00    -0.354 N 
ATOM     22  H   MOL d         -17.687  28.571 -16.127  0.00  0.00     0.166 HD
BRANCH  21  23
ATOM     23  C03 MOL d         -18.741  28.103 -14.416  0.00  0.00     0.049 A 
ATOM     24  C04 MOL d         -19.086  28.412 -13.090  0.00  0.00     0.030 A 
ATOM     25  C05 MOL d         -19.799  27.526 -12.299  0.00  0.00     0.002 A 
ATOM     26  C06 MOL d         -20.206  26.301 -12.817  0.00  0.00     0.001 A 
ATOM     27  C07 MOL d         -19.881  25.977 -14.127  0.00  0.00     0.021 A 
ATOM     28  C02 MOL d         -19.148  26.868 -14.916  0.00  0.00     0.067 A 
BRANCH  28  29
ATOM     29  C01 MOL d         -18.819  26.475 -16.328  0.00  0.00     0.211 C 
ATOM     30  O02 MOL d         -18.545  27.368 -17.159  0.00  0.00    -0.644 OA
ATOM     31  O01 MOL d         -18.844  25.262 -16.635  0.00  0.00    -0.644 OA
ENDBRANCH  28  29
ENDBRANCH  21  23
ENDBRANCH   6  21
TORSDOF 7
