REMARK  4 active torsions:
REMARK  status: ('A' for Active; 'I' for Inactive)
REMARK       I    between atoms: NAN_14  and  CAQ_17 
REMARK    1  A    between atoms: SAX_24  and  NAN_14 
REMARK    2  A    between atoms: CAS_19  and  OAP_16 
REMARK    3  A    between atoms: CAQ_17  and  CAU_21 
REMARK    4  A    between atoms: CAT_20  and  SAX_24 
ROOT
ATOM      1  OAC FG2 d          16.680  11.227   0.969  0.00  0.00    -0.265 OA
ATOM      2  NAN FG2 d          14.689  10.634   1.833  0.00  0.00    -0.243 N 
ATOM      3  CAQ FG2 d          15.522  10.847   0.799  0.00  0.00     0.281 C 
ATOM      4  H14 FG2 d          13.755  10.312   1.677  0.00  0.00     0.182 HD
ENDROOT
BRANCH   3   5
ATOM      5  CAU FG2 d          15.048  10.608  -0.449  0.00  0.00     0.103 A 
ATOM      6  CAL FG2 d          13.779  10.429  -0.857  0.00  0.00     0.049 A 
ATOM      7  CAV FG2 d          13.827  10.225  -2.191  0.00  0.00    -0.004 A 
ATOM      8  CAK FG2 d          12.856   9.991  -3.100  0.00  0.00     0.050 A 
ATOM      9  CAW FG2 d          15.122  10.268  -2.581  0.00  0.00     0.043 A 
ATOM     10  CAS FG2 d          13.190   9.799  -4.460  0.00  0.00     0.069 A 
ATOM     11  CAH FG2 d          14.528   9.856  -4.846  0.00  0.00     0.039 A 
ATOM     12  CAI FG2 d          15.500  10.114  -3.877  0.00  0.00     0.033 A 
ATOM     13  NAO FG2 d          15.855  10.499  -1.494  0.00  0.00    -0.351 N 
ATOM     14  H15 FG2 d          16.881  10.580  -1.469  0.00  0.00     0.166 HD
BRANCH  10  15
ATOM     15  OAP FG2 d          12.264   9.565  -5.436  0.00  0.00    -0.356 OA
ATOM     16  CAA FG2 d          10.877   9.410  -5.049  0.00  0.00     0.210 C 
ENDBRANCH  10  15
ENDBRANCH   3   5
BRANCH   2  17
ATOM     17  SAX FG2 d          15.252  10.922   3.407  0.00  0.00     0.283 S 
ATOM     18  OAD FG2 d          14.178  10.350   4.349  0.00  0.00    -0.199 OA
ATOM     19  OAE FG2 d          15.465  12.399   3.704  0.00  0.00    -0.199 OA
BRANCH  17  20
ATOM     20  CAT FG2 d          16.752  10.012   3.706  0.00  0.00     0.171 A 
ATOM     21  CAG FG2 d          17.981  10.658   3.881  0.00  0.00     0.046 A 
ATOM     22  CAF FG2 d          19.137   9.905   4.118  0.00  0.00     0.011 A 
ATOM     23  CAR FG2 d          19.048   8.514   4.183  0.00  0.00    -0.044 A 
ATOM     24  CAB FG2 d          20.176   7.720   4.420  0.00  0.00     0.049 C 
ATOM     25  CAJ FG2 d          17.818   7.898   4.005  0.00  0.00     0.124 A 
ATOM     26  NAM FG2 d          16.677   8.668   3.761  0.00  0.00    -0.247 NA
ENDBRANCH  17  20
ENDBRANCH   2  17
TORSDOF 4
