REMARK  7 active torsions:
REMARK  status: ('A' for Active; 'I' for Inactive)
REMARK    1  A    between atoms: C01_1  and  NP7_17 
REMARK    2  A    between atoms: C01_1  and  C02_2 
REMARK    3  A    between atoms: C02_2  and  C03_3 
REMARK    4  A    between atoms: C03_3  and  N04_4 
REMARK       I    between atoms: N04_4  and  C05_5 
REMARK    5  A    between atoms: C05_5  and  C07_7 
REMARK    6  A    between atoms: C10_10  and  S13_13 
REMARK    7  A    between atoms: S13_13  and  NP6_16 
ROOT
ATOM      1  N04 SBS d          -2.996   5.167  13.583  0.00  0.00    -0.356 N 
ATOM      2  C05 SBS d          -4.352   5.113  14.112  0.00  0.00     0.251 C 
ATOM      3  O06 SBS d          -5.082   6.097  13.951  0.00  0.00    -0.268 OA
ATOM      4  H6  SBS d          -2.348   4.410  13.666  0.00  0.00     0.162 HD
ENDROOT
BRANCH   1   5
ATOM      5  C03 SBS d          -2.653   6.488  12.888  0.00  0.00     0.128 C 
BRANCH   5   6
ATOM      6  C02 SBS d          -1.324   6.959  13.485  0.00  0.00     0.018 C 
ATOM      7  C26 SBS d          -1.606   7.434  14.937  0.00  0.00     0.013 C 
BRANCH   6   8
ATOM      8  C01 SBS d          -0.693   8.131  12.634  0.00  0.00     0.134 C 
BRANCH   8   9
ATOM      9  NP7 SBS d           0.601   8.497  13.244  0.00  0.00    -0.356 N 
ATOM     10  C20 SBS d           0.839   9.481  14.164  0.00  0.00     0.044 A 
ATOM     11  C25 SBS d           2.237   9.486  14.489  0.00  0.00    -0.008 A 
ATOM     12  C21 SBS d          -0.067  10.427  14.794  0.00  0.00     0.030 A 
ATOM     13  C19 SBS d           2.884   8.531  13.787  0.00  0.00     0.031 A 
ATOM     14  C24 SBS d           2.742  10.439  15.459  0.00  0.00     0.014 A 
ATOM     15  C18 SBS d           1.820   7.862  12.956  0.00  0.00     0.092 A 
ATOM     16  C23 SBS d           1.828  11.381  16.091  0.00  0.00     0.001 A 
ATOM     17  C22 SBS d           0.423  11.367  15.748  0.00  0.00     0.002 A 
ENDBRANCH   8   9
ENDBRANCH   6   8
ENDBRANCH   5   6
ENDBRANCH   1   5
BRANCH   2  18
ATOM     18  C07 SBS d          -4.764   3.931  14.789  0.00  0.00     0.032 A 
ATOM     19  C12 SBS d          -6.076   3.809  15.341  0.00  0.00     0.018 A 
ATOM     20  C11 SBS d          -6.485   2.634  16.031  0.00  0.00     0.026 A 
ATOM     21  C10 SBS d          -5.604   1.514  16.202  0.00  0.00     0.079 A 
ATOM     22  C09 SBS d          -4.272   1.638  15.634  0.00  0.00     0.026 A 
ATOM     23  C08 SBS d          -3.871   2.829  14.944  0.00  0.00     0.018 A 
BRANCH  21  24
ATOM     24  S13 SBS d          -6.115   0.234  17.007  0.00  0.00     0.256 S 
ATOM     25  O15 SBS d          -7.544   0.317  17.129  0.00  0.00    -0.201 OA
ATOM     26  O14 SBS d          -5.522   0.244  18.334  0.00  0.00    -0.201 OA
BRANCH  24  27
ATOM     27  NP6 SBS d          -5.828  -1.103  16.289  0.00  0.00    -0.324 N 
ATOM     28  H11 SBS d          -6.108  -1.966  16.709  0.00  0.00     0.169 HD
ATOM     29  H12 SBS d          -5.362  -1.105  15.404  0.00  0.00     0.169 HD
ENDBRANCH  24  27
ENDBRANCH  21  24
ENDBRANCH   2  18
TORSDOF 7
