REMARK  10 active torsions:
REMARK  status: ('A' for Active; 'I' for Inactive)
REMARK    1  A    between atoms: C13_1  and  O17_2 
REMARK    2  A    between atoms: C13_1  and  C11_3 
REMARK    3  A    between atoms: C9_6  and  N14_7 
REMARK    4  A    between atoms: C7_11  and  O1_12 
REMARK    5  A    between atoms: O1_12  and  C1_13 
REMARK    6  A    between atoms: C5_15  and  C6_16 
REMARK    7  A    between atoms: C6_16  and  O6_17 
REMARK    8  A    between atoms: C4_18  and  O4_19 
REMARK    9  A    between atoms: C3_20  and  O3_21 
REMARK   10  A    between atoms: C2_22  and  O2_23 
ROOT
ATOM      1  C1  MOL d          51.969  18.977  36.285  0.00  0.00     0.298 C 
ATOM      2  O5  MOL d          50.747  18.395  35.790  0.00  0.00    -0.348 OA
ATOM      3  C5  MOL d          50.930  17.031  35.395  0.00  0.00     0.179 C 
ATOM      4  C4  MOL d          51.401  16.170  36.567  0.00  0.00     0.180 C 
ATOM      5  C3  MOL d          52.698  16.720  37.143  0.00  0.00     0.183 C 
ATOM      6  C2  MOL d          52.507  18.199  37.494  0.00  0.00     0.205 C 
ENDROOT
BRANCH   1   7
ATOM      7  O1  MOL d          52.996  19.029  35.280  0.00  0.00    -0.318 OA
BRANCH   7   8
ATOM      8  C7  MOL d          52.711  19.841  34.213  0.00  0.00     0.075 A 
ATOM      9  C12 MOL d          53.054  21.193  34.219  0.00  0.00     0.046 A 
ATOM     10  C11 MOL d          52.757  21.997  33.118  0.00  0.00    -0.030 A 
ATOM     11  C10 MOL d          52.133  21.461  32.008  0.00  0.00     0.045 A 
ATOM     12  C9  MOL d          51.791  20.120  31.992  0.00  0.00     0.106 A 
ATOM     13  C8  MOL d          52.084  19.317  33.089  0.00  0.00     0.073 A 
BRANCH  10  14
ATOM     14  C13 MOL d          53.112  23.476  33.089  0.00  0.00     0.203 C 
BRANCH  14  15
ATOM     15  O17 MOL d          53.659  24.000  34.051  0.00  0.00    -0.396 OA
ATOM     16  H3  MOL d          53.808  24.920  33.867  0.00  0.00     0.209 HD
ENDBRANCH  14  15
ENDBRANCH  10  14
BRANCH  12  17
ATOM     17  N14 MOL d          51.168  19.630  30.915  0.00  0.00    -0.116 N 
ATOM     18  O15 MOL d          51.000  20.368  29.940  0.00  0.00    -0.532 OA
ATOM     19  O16 MOL d          50.755  18.466  30.913  0.00  0.00    -0.532 OA
ENDBRANCH  12  17
ENDBRANCH   7   8
ENDBRANCH   1   7
BRANCH   6  20
ATOM     20  O2  MOL d          53.763  18.734  37.844  0.00  0.00    -0.388 OA
ATOM     21  H17 MOL d          54.359  18.646  37.109  0.00  0.00     0.210 HD
ENDBRANCH   6  20
BRANCH   3  22
ATOM     22  C6  MOL d          49.608  16.544  34.800  0.00  0.00     0.198 C 
BRANCH  22  23
ATOM     23  O6  MOL d          49.267  17.385  33.681  0.00  0.00    -0.398 OA
ATOM     24  H11 MOL d          49.177  18.283  33.977  0.00  0.00     0.209 HD
ENDBRANCH  22  23
ENDBRANCH   3  22
BRANCH   5  25
ATOM     25  O3  MOL d          53.047  15.988  38.324  0.00  0.00    -0.390 OA
ATOM     26  H15 MOL d          52.353  16.076  38.967  0.00  0.00     0.210 HD
ENDBRANCH   5  25
BRANCH   4  27
ATOM     27  O4  MOL d          50.398  16.137  37.604  0.00  0.00    -0.390 OA
ATOM     28  H13 MOL d          50.706  15.599  38.324  0.00  0.00     0.210 HD
ENDBRANCH   4  27
TORSDOF 10
