REMARK  2 active torsions:
REMARK  status: ('A' for Active; 'I' for Inactive)
REMARK    1  A    between atoms: C6_6  and  S11_10 
REMARK    2  A    between atoms: C7_14  and  N15_15 
ROOT
ATOM      1  C1  MOL d         -22.499   1.732 -27.050  0.00  0.00     0.027 A 
ATOM      2  C2  MOL d         -22.931   2.100 -25.776  0.00  0.00     0.003 A 
ATOM      3  C3  MOL d         -22.590   1.310 -24.681  0.00  0.00     0.014 A 
ATOM      4  C4  MOL d         -21.813   0.154 -24.851  0.00  0.00     0.002 A 
ATOM      5  C5  MOL d         -21.374  -0.219 -26.140  0.00  0.00     0.001 A 
ATOM      6  C6  MOL d         -21.717   0.584 -27.248  0.00  0.00     0.091 A 
ATOM      7  C9  MOL d         -20.260  -2.153 -25.170  0.00  0.00     0.003 A 
ATOM      8  C10 MOL d         -20.596  -1.379 -26.280  0.00  0.00     0.014 A 
ATOM      9  C8  MOL d         -20.704  -1.780 -23.901  0.00  0.00     0.030 A 
ATOM     10  C7  MOL d         -21.479  -0.630 -23.734  0.00  0.00     0.036 A 
ENDROOT
BRANCH   6  11
ATOM     11  S11 MOL d         -21.266   0.244 -28.765  0.00  0.00     0.138 S 
ATOM     12  O14 MOL d         -20.737   1.480 -29.387  0.00  0.00    -0.591 OA
ATOM     13  O12 MOL d         -22.448  -0.275 -29.504  0.00  0.00    -0.591 OA
ATOM     14  O13 MOL d         -20.207  -0.797 -28.828  0.00  0.00    -0.591 OA
ENDBRANCH   6  11
BRANCH  10  15
ATOM     15  N15 MOL d         -21.894  -0.302 -22.475  0.00  0.00    -0.398 N 
ATOM     16  H7  MOL d         -22.466   0.541 -22.325  0.00  0.00     0.156 HD
ATOM     17  H8  MOL d         -21.634  -0.897 -21.676  0.00  0.00     0.156 HD
ENDBRANCH  10  15
TORSDOF 2
