REMARK  4 active torsions:
REMARK  status: ('A' for Active; 'I' for Inactive)
REMARK    1  A    between atoms: N_1  and  CA_2 
REMARK    2  A    between atoms: CA_2  and  C_3 
REMARK    3  A    between atoms: CA_2  and  CB_6 
REMARK    4  A    between atoms: CB_6  and  CG_7 
ROOT
ATOM      1  CB  MOL d          45.872  25.734  42.002  0.00  0.00     0.089 C 
ENDROOT
BRANCH   1   2
ATOM      2  CA  MOL d          47.123  26.221  42.775  0.00  0.00     0.287 C 
BRANCH   2   3
ATOM      3  N   MOL d          48.164  25.145  42.780  0.00  0.00    -0.065 N 
ATOM      4  H1  MOL d          48.398  24.900  41.831  0.00  0.00     0.275 HD
ATOM      5  H2  MOL d          47.806  24.333  43.258  0.00  0.00     0.275 HD
ATOM      6  H3  MOL d          48.989  25.478  43.254  0.00  0.00     0.275 HD
ENDBRANCH   2   3
BRANCH   2   7
ATOM      7  C   MOL d          46.777  26.584  44.269  0.00  0.00     0.204 C 
ATOM      8  OT1 MOL d          45.833  27.397  44.469  0.00  0.00    -0.646 OA
ATOM      9  OT2 MOL d          47.514  26.087  45.168  0.00  0.00    -0.646 OA
ENDBRANCH   2   7
ENDBRANCH   1   2
BRANCH   1  10
ATOM     10  CG  MOL d          46.138  25.424  40.556  0.00  0.00     0.031 A 
ATOM     11  CD1 MOL d          46.041  26.293  39.435  0.00  0.00     0.207 A 
ATOM     12  OE1 MOL d          45.554  27.514  39.668  0.00  0.00    -0.170 OA
ATOM     13  NE1 MOL d          46.401  25.848  38.267  0.00  0.00    -0.236 N 
ATOM     14  OE2 MOL d          46.793  24.497  38.599  0.00  0.00    -0.240 OA
ATOM     15  H10 MOL d          46.405  26.313  37.382  0.00  0.00     0.197 HD
ATOM     16  CD2 MOL d          46.618  24.303  39.952  0.00  0.00     0.083 A 
ATOM     17  CE2 MOL d          46.898  22.932  40.451  0.00  0.00     0.079 C 
ENDBRANCH   1  10
TORSDOF 4
