REMARK  1 active torsions:
REMARK  status: ('A' for Active; 'I' for Inactive)
REMARK    1  A    between atoms: C17_18  and  O17_19 
ROOT
ATOM      1  C1  DHT d          24.052  10.027  31.573  0.00  0.00     0.017 C 
ATOM      2  C2  DHT d          25.577  10.203  31.468  0.00  0.00     0.079 C 
ATOM      3  C3  DHT d          26.014  11.625  31.666  0.00  0.00     0.127 C 
ATOM      4  O3  DHT d          26.845  12.208  30.960  0.00  0.00    -0.298 OA
ATOM      5  C4  DHT d          25.343  12.387  32.759  0.00  0.00     0.083 C 
ATOM      6  C5  DHT d          23.856  12.146  32.914  0.00  0.00     0.001 C 
ATOM      7  C6  DHT d          23.253  12.800  34.171  0.00  0.00     0.006 C 
ATOM      8  C7  DHT d          21.723  12.771  34.070  0.00  0.00     0.006 C 
ATOM      9  C8  DHT d          21.240  11.289  34.047  0.00  0.00    -0.005 C 
ATOM     10  C9  DHT d          21.895  10.578  32.833  0.00  0.00    -0.002 C 
ATOM     11  C10 DHT d          23.426  10.659  32.833  0.00  0.00    -0.036 C 
ATOM     12  C11 DHT d          21.401   9.098  32.714  0.00  0.00     0.007 C 
ATOM     13  C12 DHT d          19.874   9.005  32.701  0.00  0.00     0.012 C 
ATOM     14  C13 DHT d          19.226   9.766  33.859  0.00  0.00    -0.014 C 
ATOM     15  C14 DHT d          19.743  11.223  33.827  0.00  0.00     0.001 C 
ATOM     16  C15 DHT d          18.841  11.942  34.851  0.00  0.00     0.008 C 
ATOM     17  C16 DHT d          17.455  11.271  34.693  0.00  0.00     0.033 C 
ATOM     18  C17 DHT d          17.756  10.095  33.741  0.00  0.00     0.126 C 
ATOM     19  C18 DHT d          19.561   9.016  35.164  0.00  0.00     0.018 C 
ATOM     20  C19 DHT d          24.027   9.937  34.076  0.00  0.00     0.016 C 
ENDROOT
BRANCH  18  21
ATOM     21  O17 DHT d          16.820   9.014  33.948  0.00  0.00    -0.395 OA
ATOM     22  H24 DHT d          17.023   8.302  33.353  0.00  0.00     0.210 HD
ENDBRANCH  18  21
TORSDOF 1
