REMARK  1 active torsions:
REMARK  status: ('A' for Active; 'I' for Inactive)
REMARK    1  A    between atoms: N10_10  and  C11_11 
ROOT
ATOM      1  C1  JAK d          16.931   6.318  12.440  0.00  0.00     0.091 C 
ATOM      2  C2  JAK d          16.597   7.752  12.314  0.00  0.00     0.103 A 
ATOM      3  N3  JAK d          17.313   8.724  12.767  0.00  0.00    -0.232 NA
ATOM      4  C4  JAK d          16.624   9.876  12.447  0.00  0.00     0.104 A 
ATOM      5  C5  JAK d          16.893  11.201  12.747  0.00  0.00     0.153 A 
ATOM      6  N6  JAK d          16.046  12.171  12.426  0.00  0.00    -0.240 NA
ATOM      7  C7  JAK d          14.923  11.822  11.792  0.00  0.00     0.139 A 
ATOM      8  C8  JAK d          14.574  10.528  11.428  0.00  0.00     0.041 A 
ATOM      9  C9  JAK d          15.480   9.524  11.785  0.00  0.00     0.081 A 
ATOM     10  N10 JAK d          15.513   8.150  11.726  0.00  0.00    -0.328 N 
ATOM     11  C17 JAK d          13.308  10.630  10.768  0.00  0.00     0.034 A 
ATOM     12  C18 JAK d          12.964  11.926  10.778  0.00  0.00     0.091 A 
ATOM     13  N19 JAK d          13.920  12.650  11.399  0.00  0.00    -0.350 N 
ATOM     14  H18 JAK d          13.893  13.668  11.551  0.00  0.00     0.166 HD
ENDROOT
BRANCH  10  15
ATOM     15  C11 JAK d          14.506   7.217  11.218  0.00  0.00     0.095 C 
ATOM     16  C12 JAK d          14.275   7.329   9.739  0.00  0.00     0.053 C 
ATOM     17  C13 JAK d          13.405   6.181   9.355  0.00  0.00     0.234 C 
ATOM     18  N14 JAK d          12.135   6.063  10.026  0.00  0.00    -0.075 N 
ATOM     19  C15 JAK d          12.239   6.255  11.464  0.00  0.00     0.234 C 
ATOM     20  H10 JAK d          11.761   5.144   9.850  0.00  0.00     0.277 HD
ATOM     21  H11 JAK d          11.507   6.758   9.653  0.00  0.00     0.277 HD
ATOM     22  C16 JAK d          13.200   7.291  11.973  0.00  0.00     0.053 C 
ENDBRANCH  10  15
TORSDOF 1
