REMARK  3 active torsions:
REMARK  status: ('A' for Active; 'I' for Inactive)
REMARK    1  A    between atoms: C2_2  and  O2_8 
REMARK    2  A    between atoms: C3_3  and  O3_9 
REMARK    3  A    between atoms: C4_4  and  O4_10 
ROOT
ATOM      1  C1  RNS d          11.237  31.777  10.298  0.00  0.00     0.288 C 
ATOM      2  C2  RNS d          12.145  31.848   9.071  0.00  0.00     0.220 C 
ATOM      3  C3  RNS d          11.399  31.244   7.873  0.00  0.00     0.183 C 
ATOM      4  C4  RNS d          10.074  31.983   7.665  0.00  0.00     0.178 C 
ATOM      5  C5  RNS d           9.261  31.936   8.967  0.00  0.00     0.152 C 
ATOM      6  C6  RNS d           7.947  32.688   8.892  0.00  0.00     0.042 C 
ATOM      7  O1  RNS d          11.873  32.334  11.389  0.00  0.00    -0.188 OA
ATOM      8  O5  RNS d          10.026  32.506  10.053  0.00  0.00    -0.339 OA
ENDROOT
BRANCH   2   9
ATOM      9  O2  RNS d          12.492  33.208   8.810  0.00  0.00    -0.387 OA
ATOM     10  H8  RNS d          12.952  33.566   9.560  0.00  0.00     0.210 HD
ENDBRANCH   2   9
BRANCH   3  11
ATOM     11  O3  RNS d          12.191  31.334   6.696  0.00  0.00    -0.390 OA
ATOM     12  H9  RNS d          11.722  30.941   5.969  0.00  0.00     0.210 HD
ENDBRANCH   3  11
BRANCH   4  13
ATOM     13  O4  RNS d           9.355  31.356   6.609  0.00  0.00    -0.390 OA
ATOM     14  H10 RNS d           9.870  31.393   5.811  0.00  0.00     0.210 HD
ENDBRANCH   4  13
TORSDOF 3
