REMARK  7 active torsions:
REMARK  status: ('A' for Active; 'I' for Inactive)
REMARK    1  A    between atoms: C1_1  and  N1_2 
REMARK    2  A    between atoms: N1_2  and  O7_3 
REMARK    3  A    between atoms: C2_4  and  O2_5 
REMARK    4  A    between atoms: C3_6  and  O3_7 
REMARK    5  A    between atoms: C4_8  and  O4_9 
REMARK    6  A    between atoms: C5_10  and  C6_12 
REMARK    7  A    between atoms: C6_12  and  O6_13 
ROOT
ATOM      1  C1  GOX d          46.871 119.891  52.844  0.00  0.00     0.159 C 
ATOM      2  C2  GOX d          47.752 119.220  53.910  0.00  0.00     0.220 C 
ATOM      3  C3  GOX d          48.249 120.259  54.889  0.00  0.00     0.185 C 
ATOM      4  C4  GOX d          48.648 121.507  54.062  0.00  0.00     0.174 C 
ATOM      5  C5  GOX d          47.312 122.173  53.572  0.00  0.00     0.138 C 
ATOM      6  N5  GOX d          46.714 121.224  52.640  0.00  0.00    -0.365 N 
ATOM      7  H9  GOX d          46.175 121.564  51.831  0.00  0.00     0.161 HD
ENDROOT
BRANCH   1   8
ATOM      8  N1  GOX d          46.180 119.101  52.013  0.00  0.00    -0.120 NA
BRANCH   8   9
ATOM      9  O7  GOX d          45.512 119.568  50.983  0.00  0.00    -0.265 OA
ATOM     10  H1  GOX d          46.110 120.014  50.395  0.00  0.00     0.247 HD
ENDBRANCH   8   9
ENDBRANCH   1   8
BRANCH   2  11
ATOM     11  O2  GOX d          47.199 118.054  54.530  0.00  0.00    -0.385 OA
ATOM     12  H3  GOX d          47.814 117.715  55.169  0.00  0.00     0.210 HD
ENDBRANCH   2  11
BRANCH   3  13
ATOM     13  O3  GOX d          49.347 119.649  55.564  0.00  0.00    -0.390 OA
ATOM     14  H5  GOX d          49.047 118.866  56.010  0.00  0.00     0.210 HD
ENDBRANCH   3  13
BRANCH   5  15
ATOM     15  C6  GOX d          47.406 123.456  52.773  0.00  0.00     0.191 C 
BRANCH  15  16
ATOM     16  O6  GOX d          48.187 123.278  51.578  0.00  0.00    -0.399 OA
ATOM     17  H12 GOX d          48.226 124.099  51.101  0.00  0.00     0.209 HD
ENDBRANCH  15  16
ENDBRANCH   5  15
BRANCH   4  18
ATOM     18  O4  GOX d          49.290 122.463  54.907  0.00  0.00    -0.391 OA
ATOM     19  H7  GOX d          50.069 122.075  55.287  0.00  0.00     0.210 HD
ENDBRANCH   4  18
TORSDOF 7
