REMARK  3 active torsions:
REMARK  status: ('A' for Active; 'I' for Inactive)
REMARK    1  A    between atoms: C8_7  and  C3_3 
REMARK    2  A    between atoms: C11_15  and  C14_9 
REMARK    3  A    between atoms: N29_23  and  C30_24 
ROOT
ATOM      1  C14 MOL d          15.527  -2.611  -8.560  0.00  0.00     0.089 A 
ATOM      2  C16 MOL d          16.799  -0.806  -8.533  0.00  0.00     0.131 A 
ATOM      3  C18 MOL d          15.838  -2.185  -7.183  0.00  0.00     0.138 A 
ATOM      4  N2  MOL d          16.180  -1.720  -9.326  0.00  0.00    -0.337 N 
ATOM      5  N3  MOL d          16.589  -1.086  -7.224  0.00  0.00    -0.290 N 
ATOM      6  C25 MOL d          17.573   0.291  -8.901  0.00  0.00     0.165 A 
ATOM      7  N26 MOL d          18.095   1.079  -7.955  0.00  0.00    -0.268 NA
ATOM      8  C27 MOL d          17.881   0.795  -6.663  0.00  0.00     0.134 A 
ATOM      9  C28 MOL d          17.119  -0.297  -6.281  0.00  0.00     0.119 A 
ATOM     10  N29 MOL d          15.376  -2.775  -6.042  0.00  0.00    -0.366 N 
ATOM     11  H   MOL d          15.946  -3.512  -5.602  0.00  0.00     0.162 HD
ATOM     12  H1  MOL d          16.207  -1.729 -10.356  0.00  0.00     0.167 HD
ENDROOT
BRANCH   1  13
ATOM     13  C11 MOL d          14.827  -3.801  -9.086  0.00  0.00    -0.005 A 
ATOM     14  C10 MOL d          14.708  -4.935  -8.287  0.00  0.00     0.014 A 
ATOM     15  C9  MOL d          14.115  -6.075  -8.802  0.00  0.00     0.013 A 
ATOM     16  C8  MOL d          13.688  -6.085 -10.128  0.00  0.00    -0.021 A 
ATOM     17  C13 MOL d          13.859  -4.975 -10.938  0.00  0.00     0.013 A 
ATOM     18  C12 MOL d          14.447  -3.825 -10.419  0.00  0.00     0.014 A 
BRANCH  16  19
ATOM     19  C3  MOL d          13.058  -7.315 -10.660  0.00  0.00     0.032 A 
ATOM     20  C2  MOL d          13.565  -8.674 -10.485  0.00  0.00     0.088 A 
ATOM     21  O1  MOL d          12.681  -9.494 -11.100  0.00  0.00    -0.217 OA
ATOM     22  C6  MOL d          14.793  -9.255  -9.850  0.00  0.00     0.080 C 
ATOM     23  N1  MOL d          11.640  -8.827 -11.653  0.00  0.00    -0.133 NA
ATOM     24  C4  MOL d          11.790  -7.488 -11.413  0.00  0.00     0.071 A 
ATOM     25  C5  MOL d          10.868  -6.382 -11.838  0.00  0.00     0.074 C 
ENDBRANCH  16  19
ENDBRANCH   1  13
BRANCH  10  26
ATOM     26  C30 MOL d          14.106  -2.405  -5.418  0.00  0.00     0.021 C 
ATOM     27  C31 MOL d          13.778  -3.397  -4.302  0.00  0.00     0.037 C 
ATOM     28  C32 MOL d          14.161  -1.001  -4.824  0.00  0.00     0.037 C 
ATOM     29  C33 MOL d          12.973  -2.420  -6.439  0.00  0.00     0.037 C 
ENDBRANCH  10  26
TORSDOF 3
