REMARK  10 active torsions:
REMARK  status: ('A' for Active; 'I' for Inactive)
REMARK    1  A    between atoms: C1_1  and  O8_8 
REMARK    2  A    between atoms: C2_2  and  O9_9 
REMARK    3  A    between atoms: C3_3  and  N7_7 
REMARK    4  A    between atoms: C5_5  and  C6_6 
REMARK    5  A    between atoms: C10_10  and  C11_11 
REMARK    6  A    between atoms: C11_11  and  N12_12 
REMARK       I    between atoms: N12_12  and  C13_13 
REMARK    7  A    between atoms: C13_13  and  C14_14 
REMARK    8  A    between atoms: C15_15  and  O21_21 
REMARK    9  A    between atoms: C16_16  and  O22_22 
REMARK   10  A    between atoms: C18_18  and  N20_20 
ROOT
ATOM      1  C6  OZZ d          36.303  -2.304 -10.847  0.00  0.00     0.005 C 
ATOM      2  C10 OZZ d          35.955  -3.094  -9.853  0.00  0.00    -0.009 C 
ENDROOT
BRANCH   2   3
ATOM      3  C11 OZZ d          36.567  -3.027  -8.494  0.00  0.00     0.150 C 
BRANCH   3   4
ATOM      4  N12 OZZ d          36.341  -4.277  -7.823  0.00  0.00    -0.353 N 
ATOM      5  C13 OZZ d          37.123  -4.735  -6.852  0.00  0.00     0.254 C 
ATOM      6  O23 OZZ d          38.080  -3.991  -6.433  0.00  0.00    -0.268 OA
ATOM      7  H11 OZZ d          35.556  -4.830  -8.101  0.00  0.00     0.163 HD
BRANCH   5   8
ATOM      8  C14 OZZ d          36.905  -6.070  -6.272  0.00  0.00     0.070 A 
ATOM      9  C15 OZZ d          35.709  -6.837  -6.506  0.00  0.00     0.114 A 
ATOM     10  C16 OZZ d          35.664  -8.119  -5.917  0.00  0.00     0.102 A 
ATOM     11  C17 OZZ d          36.661  -8.702  -5.141  0.00  0.00     0.075 A 
ATOM     12  C18 OZZ d          37.853  -7.900  -4.991  0.00  0.00     0.106 A 
ATOM     13  C19 OZZ d          37.906  -6.619  -5.553  0.00  0.00     0.056 A 
BRANCH   9  14
ATOM     14  O21 OZZ d          34.711  -6.338  -7.177  0.00  0.00    -0.357 OA
ATOM     15  H14 OZZ d          34.942  -5.471  -7.488  0.00  0.00     0.217 HD
ENDBRANCH   9  14
BRANCH  10  16
ATOM     16  O22 OZZ d          34.480  -8.830  -6.131  0.00  0.00    -0.358 OA
ATOM     17  H15 OZZ d          33.896  -8.314  -6.674  0.00  0.00     0.217 HD
ENDBRANCH  10  16
BRANCH  12  18
ATOM     18  N20 OZZ d          38.915  -8.460  -4.178  0.00  0.00    -0.116 N 
ATOM     19  O24 OZZ d          38.740  -9.452  -3.553  0.00  0.00    -0.532 OA
ATOM     20  O25 OZZ d          39.989  -7.882  -4.162  0.00  0.00    -0.532 OA
ENDBRANCH  12  18
ENDBRANCH   5   8
ENDBRANCH   3   4
ENDBRANCH   2   3
BRANCH   1  21
ATOM     21  C5  OZZ d          35.682  -2.377 -12.196  0.00  0.00     0.178 C 
ATOM     22  C1  OZZ d          36.819  -2.242 -13.302  0.00  0.00     0.183 C 
ATOM     23  C2  OZZ d          36.725  -0.731 -13.500  0.00  0.00     0.198 C 
ATOM     24  C3  OZZ d          35.187  -0.493 -13.534  0.00  0.00     0.259 C 
ATOM     25  O4  OZZ d          34.777  -1.284 -12.381  0.00  0.00    -0.352 OA
BRANCH  22  26
ATOM     26  O8  OZZ d          36.414  -2.926 -14.495  0.00  0.00    -0.390 OA
ATOM     27  H6  OZZ d          37.095  -2.843 -15.153  0.00  0.00     0.210 HD
ENDBRANCH  22  26
BRANCH  23  28
ATOM     28  O9  OZZ d          37.307  -0.189 -14.715  0.00  0.00    -0.388 OA
ATOM     29  H7  OZZ d          36.929  -0.627 -15.469  0.00  0.00     0.210 HD
ENDBRANCH  23  28
BRANCH  24  30
ATOM     30  N7  OZZ d          34.679   0.825 -13.368  0.00  0.00    -0.337 N 
ATOM     31  C26 OZZ d          35.291   1.681 -12.395  0.00  0.00     0.097 A 
ATOM     32  C27 OZZ d          34.829   2.954 -12.177  0.00  0.00     0.072 A 
ATOM     33  C28 OZZ d          33.738   3.499 -12.963  0.00  0.00     0.174 A 
ATOM     34  C30 OZZ d          33.108   2.566 -13.925  0.00  0.00     0.072 A 
ATOM     35  O31 OZZ d          33.406   4.672 -12.858  0.00  0.00    -0.288 OA
ATOM     36  C29 OZZ d          33.593   1.329 -14.055  0.00  0.00     0.097 A 
ENDBRANCH  24  30
ENDBRANCH   1  21
TORSDOF 10
