REMARK  14 active torsions:
REMARK  status: ('A' for Active; 'I' for Inactive)
REMARK       I    between atoms: N1_26  and  C3_3 
REMARK    1  A    between atoms: C3_3  and  O1_29 
REMARK    2  A    between atoms: O1_29  and  C4_4 
REMARK    3  A    between atoms: C6_6  and  C5_5 
REMARK    4  A    between atoms: C5_5  and  C7_7 
REMARK    5  A    between atoms: C5_5  and  N1_26 
REMARK    6  A    between atoms: C14_14  and  C6_6 
REMARK    7  A    between atoms: C6_6  and  O3_31 
REMARK    8  A    between atoms: C7_7  and  C8_8 
REMARK    9  A    between atoms: N2_27  and  C14_14 
REMARK   10  A    between atoms: C15_15  and  C16_16 
REMARK   11  A    between atoms: N2_27  and  C15_15 
REMARK   12  A    between atoms: S1_35  and  C17_17 
REMARK   13  A    between atoms: C20_20  and  N3_28 
REMARK   14  A    between atoms: N2_27  and  S1_35 
ROOT
ATOM      1  C6  MOL d          15.690  24.029  18.151  0.00  0.00     0.160 C 
ENDROOT
BRANCH   1   2
ATOM      2  C5  MOL d          15.261  22.920  17.196  0.00  0.00     0.121 C 
BRANCH   2   3
ATOM      3  C7  MOL d          14.468  23.386  15.960  0.00  0.00     0.066 C 
BRANCH   3   4
ATOM      4  C8  MOL d          14.062  22.252  15.060  0.00  0.00    -0.056 A 
ATOM      5  C9  MOL d          12.781  21.733  15.012  0.00  0.00     0.007 A 
ATOM      6  C11 MOL d          12.487  20.596  14.259  0.00  0.00     0.001 A 
ATOM      7  C13 MOL d          13.475  20.012  13.475  0.00  0.00     0.000 A 
ATOM      8  C12 MOL d          14.774  20.523  13.413  0.00  0.00     0.001 A 
ATOM      9  C10 MOL d          15.016  21.620  14.234  0.00  0.00     0.007 A 
ENDBRANCH   3   4
ENDBRANCH   2   3
BRANCH   2  10
ATOM     10  N1  MOL d          14.428  21.964  17.913  0.00  0.00    -0.329 N 
ATOM     11  C3  MOL d          14.790  20.747  18.319  0.00  0.00     0.361 C 
ATOM     12  O2  MOL d          15.899  20.277  18.233  0.00  0.00    -0.238 OA
ATOM     13  H32 MOL d          13.492  22.249  18.121  0.00  0.00     0.165 HD
BRANCH  11  14
ATOM     14  O1  MOL d          13.714  20.122  18.931  0.00  0.00    -0.296 OA
BRANCH  14  15
ATOM     15  C4  MOL d          13.995  18.834  19.473  0.00  0.00     0.159 C 
ATOM     16  C1  MOL d          12.635  18.226  19.757  0.00  0.00     0.200 C 
ATOM     17  O6  MOL d          12.313  18.693  21.073  0.00  0.00    -0.389 OA
ATOM     18  C25 MOL d          13.508  18.635  21.846  0.00  0.00     0.170 C 
ATOM     19  C2  MOL d          14.601  19.059  20.866  0.00  0.00     0.061 C 
ENDBRANCH  14  15
ENDBRANCH  11  14
ENDBRANCH   2  10
ENDBRANCH   1   2
BRANCH   1  20
ATOM     20  C14 MOL d          16.751  24.987  17.537  0.00  0.00     0.169 C 
BRANCH  20  21
ATOM     21  N2  MOL d          18.070  24.389  17.571  0.00  0.00    -0.304 N 
BRANCH  21  22
ATOM     22  C15 MOL d          18.900  24.665  18.680  0.00  0.00     0.139 C 
BRANCH  22  23
ATOM     23  C16 MOL d          18.641  23.957  20.030  0.00  0.00    -0.004 C 
ATOM     24  C23 MOL d          18.880  22.452  19.873  0.00  0.00     0.011 C 
ATOM     25  C24 MOL d          19.665  24.551  21.008  0.00  0.00     0.011 C 
ENDBRANCH  22  23
ENDBRANCH  21  22
BRANCH  21  26
ATOM     26  S1  MOL d          18.746  23.979  16.131  0.00  0.00     0.260 S 
ATOM     27  O4  MOL d          17.649  23.692  15.164  0.00  0.00    -0.200 OA
ATOM     28  O5  MOL d          19.719  22.904  16.329  0.00  0.00    -0.200 OA
BRANCH  26  29
ATOM     29  C17 MOL d          19.465  25.427  15.426  0.00  0.00     0.079 C 
ATOM     30  C18 MOL d          18.707  26.294  14.632  0.00  0.00     0.027 C 
ATOM     31  C19 MOL d          19.247  27.529  14.223  0.00  0.00     0.030 C 
ATOM     32  C20 MOL d          20.511  27.953  14.662  0.00  0.00     0.025 C 
ATOM     33  C21 MOL d          21.269  27.037  15.420  0.00  0.00     0.030 C 
ATOM     34  C22 MOL d          20.695  25.868  15.865  0.00  0.00     0.027 C 
BRANCH  32  35
ATOM     35  N3  MOL d          21.121  29.036  14.178  0.00  0.00    -0.399 N 
ATOM     36  H33 MOL d          20.590  29.721  13.621  0.00  0.00     0.156 HD
ATOM     37  H34 MOL d          22.123  29.188  14.361  0.00  0.00     0.156 HD
ENDBRANCH  32  35
ENDBRANCH  26  29
ENDBRANCH  21  26
ENDBRANCH  20  21
ENDBRANCH   1  20
BRANCH   1  38
ATOM     38  O3  MOL d          14.573  24.882  18.458  0.00  0.00    -0.392 OA
ATOM     39  H35 MOL d          13.876  24.363  18.841  0.00  0.00     0.210 HD
ENDBRANCH   1  38
TORSDOF 14
