REMARK  12 active torsions:
REMARK  status: ('A' for Active; 'I' for Inactive)
REMARK    1  A    between atoms: C2_4  and  C1_1 
REMARK    2  A    between atoms: C1_1  and  C17_24 
REMARK    3  A    between atoms: N1_2  and  C2_4 
REMARK       I    between atoms: C14_21  and  N1_2 
REMARK    4  A    between atoms: C2_4  and  C3_5 
REMARK    5  A    between atoms: N3_25  and  O4_9 
REMARK    6  A    between atoms: N3_25  and  C5_11 
REMARK    7  A    between atoms: C11_17  and  C10_16 
REMARK    8  A    between atoms: C12_18  and  C11_17 
REMARK    9  A    between atoms: C17_24  and  C12_18 
REMARK   10  A    between atoms: C17_24  and  C13_19 
REMARK   11  A    between atoms: C13_19  and  N3_25 
REMARK       I    between atoms: N2_20  and  C14_21 
REMARK   12  A    between atoms: N2_20  and  C16_23 
ROOT
ATOM      1  C2  FHF d         -17.371 144.553  45.739  0.00  0.00     0.159 C 
ENDROOT
BRANCH   1   2
ATOM      2  C1  FHF d         -16.788 143.747  44.539  0.00  0.00     0.155 C 
ATOM      3  O1  FHF d         -15.615 143.777  44.255  0.00  0.00    -0.295 OA
BRANCH   2   4
ATOM      4  C17 FHF d         -17.668 142.800  43.767  0.00  0.00     0.078 C 
BRANCH   4   5
ATOM      5  C12 FHF d         -17.129 141.383  43.969  0.00  0.00     0.014 C 
BRANCH   5   6
ATOM      6  C11 FHF d         -17.244 140.998  45.433  0.00  0.00     0.000 C 
BRANCH   6   7
ATOM      7  C10 FHF d         -17.028 139.526  45.611  0.00  0.00    -0.005 C 
ATOM      8  C4  FHF d         -16.655 139.305  47.034  0.00  0.00     0.005 C 
ENDBRANCH   6   7
ENDBRANCH   5   6
ENDBRANCH   4   5
BRANCH   4   9
ATOM      9  C13 FHF d         -17.615 143.137  42.287  0.00  0.00     0.170 C 
BRANCH   9  10
ATOM     10  N3  FHF d         -18.530 142.284  41.550  0.00  0.00    -0.235 N 
BRANCH  10  11
ATOM     11  O4  FHF d         -19.622 142.607  41.444  0.00  0.00    -0.285 OA
ATOM     12  H7  FHF d         -20.185 141.950  41.837  0.00  0.00     0.245 HD
ENDBRANCH  10  11
BRANCH  10  13
ATOM     13  C5  FHF d         -18.152 141.128  40.992  0.00  0.00     0.376 C 
ATOM     14  O2  FHF d         -18.948 140.387  40.470  0.00  0.00    -0.281 OA
ENDBRANCH  10  13
ENDBRANCH   9  10
ENDBRANCH   4   9
ENDBRANCH   2   4
ENDBRANCH   1   2
BRANCH   1  15
ATOM     15  N1  FHF d         -16.393 145.519  46.181  0.00  0.00    -0.331 N 
ATOM     16  C14 FHF d         -15.366 145.312  46.931  0.00  0.00     0.321 C 
ATOM     17  O3  FHF d         -15.118 144.199  47.302  0.00  0.00    -0.247 OA
ATOM     18  N2  FHF d         -14.661 146.390  47.239  0.00  0.00    -0.306 N 
ATOM     19  H21 FHF d         -15.021 147.298  47.025  0.00  0.00     0.171 HD
ATOM     20  H1  FHF d         -16.529 146.459  45.868  0.00  0.00     0.165 HD
BRANCH  18  21
ATOM     21  C16 FHF d         -13.502 146.273  47.819  0.00  0.00     0.075 A 
ATOM     22  C9  FHF d         -13.169 145.439  48.852  0.00  0.00     0.033 A 
ATOM     23  C7  FHF d         -11.853 145.437  49.277  0.00  0.00     0.002 A 
ATOM     24  C6  FHF d         -10.896 146.216  48.653  0.00  0.00     0.003 A 
ATOM     25  C8  FHF d         -11.240 147.027  47.602  0.00  0.00     0.044 A 
ATOM     26  C15 FHF d         -12.552 147.030  47.200  0.00  0.00     0.143 A 
ATOM     27  F1  FHF d         -12.830 147.550  46.480  0.00  0.00    -0.204 F 
ENDBRANCH  18  21
ENDBRANCH   1  15
BRANCH   1  28
ATOM     28  C3  FHF d         -18.455 145.584  45.459  0.00  0.00     0.007 C 
ATOM     29  C18 FHF d         -19.632 145.331  46.382  0.00  0.00     0.012 C 
ATOM     30  C19 FHF d         -18.809 145.726  43.994  0.00  0.00     0.012 C 
ENDBRANCH   1  28
TORSDOF 12
