3s56_ligand

Created by X-TOOL on Fri Sep 26 17:34:55 2014
100104  0  0  0  0  0  0  0  0999 V2000
    5.9410    7.4990   41.2560  C 0  0  0  1  0  3
    5.9960    6.3410   41.5470  O 0  0  0  1  0  1
    6.9990    9.5440   40.7250  N 0  0  0  1  0  2
    7.1880    8.2990   41.1580  C 0  0  0  1  0  3
    8.4550    7.8340   41.5270  C 0  0  0  2  0  3
    9.5130    8.7640   41.4070  C 0  0  0  2  0  3
   10.3130   11.0140   40.7460  C 0  0  0  2  0  3
   10.0010   12.2950   40.2500  C 0  0  0  2  0  3
    8.6970   12.6290   39.9080  C 0  0  0  2  0  3
    7.6890   11.6870   40.0600  C 0  0  0  2  0  3
    9.2780   10.0650   40.9250  C 0  0  0  1  0  3
    7.9780   10.4370   40.5970  C 0  0  0  1  0  3
    4.7650    8.1640   41.0830  N 0  0  0  2  0  3
    3.5260    7.3740   41.1560  C 0  0  0  2  0  4
    2.6910    7.7850   39.8990  C 0  0  0  1  0  3
    2.0820    8.8920   39.8120  O 0  0  0  1  0  1
    2.7660    7.8540   42.3470  C 0  0  0  3  0  4
    3.5820    7.5720   43.6370  C 0  0  0  1  0  3
    4.2090    8.5190   44.1900  O 0  0  0  1  0  1
    3.5860    6.3680   44.0280  N 0  0  0  3  0  3
    0.9560    5.8740   37.6430  C 0  0  0  2  0  4
    1.4750    4.5270   37.4700  O 0  0  0  2  0  2
    1.9870    6.9990   37.6630  C 0  0  0  2  0  4
    2.7210    6.8610   38.9580  N 0  0  0  2  0  3
    2.9990    6.7490   36.5280  C 0  0  0  3  0  4
    4.2480    7.5510   36.7820  C 0  0  0  1  0  3
    4.2930    8.9070   36.5500  C 0  0  0  2  0  3
    5.4010    6.8550   37.1920  C 0  0  0  2  0  3
    5.4820    9.6440   36.8670  C 0  0  0  2  0  3
    6.5410    7.5420   37.4580  C 0  0  0  2  0  3
    6.6300    8.9470   37.2380  C 0  0  0  2  0  3
   -1.0890    7.0120   36.8900  N 0  3  0  2  0  4
   -0.0480    6.0370   36.5160  C 0  0  0  3  0  4
   -1.6970    7.7940   35.8130  C 0  0  0  2  0  4
   -0.6760    8.4060   34.9250  C 0  0  0  1  0  3
    0.2610    9.1230   35.3690  O 0  0  0  1  0  1
   -2.5590    8.9100   36.4270  C 0  0  0  3  0  4
   -3.7000    8.3100   37.3380  C 0  0  0  2  0  4
   -4.6520    9.3580   37.9330  C 0  0  0  3  0  4
   -3.8790   10.3080   38.8740  C 0  0  0  3  0  4
   -3.1770    9.4130   39.9410  C 0  0  0  3  0  4
   -2.2860    8.2630   39.3320  C 0  0  0  3  0  4
   -3.1500    7.3570   38.3480  C 0  0  0  2  0  4
   -2.2210    6.3460   37.6800  C 0  0  0  3  0  4
   -0.9350    8.1440   33.6290  N 0  0  0  2  0  3
   -0.0900    8.6800   32.5650  C 0  0  0  1  0  4
   -0.6800    8.1950   31.1560  C 0  0  0  4  0  4
    1.2960    8.1610   32.6720  C 0  0  0  4  0  4
   -0.0360   10.2170   32.6380  C 0  0  0  4  0  4
    8.6155    6.8228   41.8830  H 0  0  0  1  0  1
   10.5177    8.4713   41.6898  H 0  0  0  1  0  1
   11.3377   10.7569   40.9887  H 0  0  0  1  0  1
   10.7893   13.0300   40.1337  H 0  0  0  1  0  1
    8.4684   13.6172   39.5255  H 0  0  0  1  0  1
    6.6752   11.9259   39.7598  H 0  0  0  1  0  1
    4.7446    9.1493   40.9132  H 0  0  0  1  0  1
    3.7211    6.2922   41.1965  H 0  0  0  1  0  1
    1.8018    7.3275   42.4020  H 0  0  0  1  0  1
    2.5885    8.9357   42.2559  H 0  0  0  1  0  1
    4.0908    6.1117   44.8523  H 0  0  0  1  0  1
    3.0843    5.6732   43.5126  H 0  0  0  1  0  1
    0.4247    5.9158   38.6053  H 0  0  0  1  0  1
    0.7541    3.9084   37.4721  H 0  0  0  1  0  1
    1.5121    7.9864   37.5654  H 0  0  0  1  0  1
    3.2578    6.0326   39.1178  H 0  0  0  1  0  1
    2.5563    7.0543   35.5684  H 0  0  0  1  0  1
    3.2517    5.6791   36.4914  H 0  0  0  1  0  1
    3.4333    9.4159   36.1294  H 0  0  0  1  0  1
    5.3785    5.7761   37.2947  H 0  0  0  1  0  1
    5.4874   10.7269   36.8187  H 0  0  0  1  0  1
    7.4023    7.0104   37.8462  H 0  0  0  1  0  1
    7.5748    9.4648   37.3572  H 0  0  0  1  0  1
   -0.6371    7.6731   37.5023  H 0  0  0  1  0  1
   -0.5199    5.0654   36.3079  H 0  0  0  1  0  1
    0.4735    6.3919   35.6148  H 0  0  0  1  0  1
   -2.3356    7.1300   35.2119  H 0  0  0  1  0  1
   -3.0171    9.4969   35.6173  H 0  0  0  1  0  1
   -1.9188    9.5641   37.0371  H 0  0  0  1  0  1
   -4.3249    7.7031   36.6663  H 0  0  0  1  0  1
   -5.4437    8.8484   38.5017  H 0  0  0  1  0  1
   -5.1041    9.9424   37.1181  H 0  0  0  1  0  1
   -4.5750   11.0052   39.3634  H 0  0  0  1  0  1
   -3.1293   10.8773   38.3049  H 0  0  0  1  0  1
   -3.9530    8.9523   40.5699  H 0  0  0  1  0  1
   -2.5351   10.0550   40.5620  H 0  0  0  1  0  1
   -1.8917    7.6390   40.1475  H 0  0  0  1  0  1
   -1.4494    8.7089   38.7741  H 0  0  0  1  0  1
   -3.9585    6.8377   38.8834  H 0  0  0  1  0  1
   -1.7781    5.7077   38.4587  H 0  0  0  1  0  1
   -2.8133    5.7262   36.9908  H 0  0  0  1  0  1
   -1.7201    7.5721   33.3912  H 0  0  0  1  0  1
   -0.0552    8.5899   30.3414  H 0  0  0  1  0  1
   -1.7090    8.5666   31.0419  H 0  0  0  1  0  1
   -0.6807    7.0957   31.1176  H 0  0  0  1  0  1
    1.9082    8.5804   31.8600  H 0  0  0  1  0  1
    1.2839    7.0639   32.5929  H 0  0  0  1  0  1
    1.7234    8.4540   33.6423  H 0  0  0  1  0  1
    0.6042   10.6002   31.8297  H 0  0  0  1  0  1
    0.3777   10.5236   33.6100  H 0  0  0  1  0  1
   -1.0513   10.6253   32.5263  H 0  0  0  1  0  1
  1  2  2  0  0  2
  1  4  1  0  0  2
 13  1  1  0  0  2
  4  3  4  0  0  1
  3 12  4  0  0  1
  4  5  4  0  0  1
  5  6  4  0  0  1
  6 11  4  0  0  1
  7  8  4  0  0  1
 11  7  4  0  0  1
  9  8  4  0  0  1
 10  9  4  0  0  1
 12 10  4  0  0  1
 12 11  4  0  0  1
 14 13  1  0  0  2
 15 14  1  0  0  2
 14 17  1  0  0  2
 15 16  2  0  0  2
 24 15  1  0  0  2
 17 18  1  0  0  2
 18 19  2  0  0  2
 18 20  1  0  0  2
 21 22  1  0  0  2
 23 21  1  0  0  2
 21 33  1  0  0  2
 23 24  1  0  0  2
 23 25  1  0  0  2
 25 26  1  0  0  2
 26 27  4  0  0  1
 26 28  4  0  0  1
 27 29  4  0  0  1
 28 30  4  0  0  1
 29 31  4  0  0  1
 30 31  4  0  0  1
 33 32  1  0  0  2
 32 34  1  0  0  1
 32 44  1  0  0  1
 34 35  1  0  0  2
 34 37  1  0  0  1
 35 36  2  0  0  2
 35 45  1  0  0  2
 37 38  1  0  0  1
 38 39  1  0  0  1
 38 43  1  0  0  1
 39 40  1  0  0  1
 40 41  1  0  0  1
 41 42  1  0  0  1
 42 43  1  0  0  1
 43 44  1  0  0  1
 45 46  1  0  0  2
 46 47  1  0  0  2
 46 48  1  0  0  2
 46 49  1  0  0  2
  5 50  1  0  0  2
  6 51  1  0  0  2
  7 52  1  0  0  2
  8 53  1  0  0  2
  9 54  1  0  0  2
 10 55  1  0  0  2
 13 56  1  0  0  2
 14 57  1  0  0  2
 17 58  1  0  0  2
 17 59  1  0  0  2
 20 60  1  0  0  2
 20 61  1  0  0  2
 21 62  1  0  0  2
 22 63  1  0  0  2
 23 64  1  0  0  2
 24 65  1  0  0  2
 25 66  1  0  0  2
 25 67  1  0  0  2
 27 68  1  0  0  2
 28 69  1  0  0  2
 29 70  1  0  0  2
 30 71  1  0  0  2
 31 72  1  0  0  2
 32 73  1  0  0  2
 33 74  1  0  0  2
 33 75  1  0  0  2
 34 76  1  0  0  2
 37 77  1  0  0  2
 37 78  1  0  0  2
 38 79  1  0  0  2
 39 80  1  0  0  2
 39 81  1  0  0  2
 40 82  1  0  0  2
 40 83  1  0  0  2
 41 84  1  0  0  2
 41 85  1  0  0  2
 42 86  1  0  0  2
 42 87  1  0  0  2
 43 88  1  0  0  2
 44 89  1  0  0  2
 44 90  1  0  0  2
 45 91  1  0  0  2
 47 92  1  0  0  2
 47 93  1  0  0  2
 47 94  1  0  0  2
 48 95  1  0  0  2
 48 96  1  0  0  2
 48 97  1  0  0  2
 49 98  1  0  0  2
 49 99  1  0  0  2
 49100  1  0  0  2
M  END
> <MOLECULAR_FORMULA>
C38H51N6O5

> <MOLECULAR_WEIGHT>
671.4

> <NUM_HB_ATOMS>
11 

> <NUM_ROTOR>
11 

> <XLOGP2>
3.88 

$$$$
