REMARK  14 active torsions:
REMARK  status: ('A' for Active; 'I' for Inactive)
REMARK    1  A    between atoms: C_1  and  C2_4 
REMARK       I    between atoms: N_13  and  C_1 
REMARK    2  A    between atoms: CA_14  and  N_13 
REMARK    3  A    between atoms: C1_15  and  CA_14 
REMARK    4  A    between atoms: CA_14  and  CB_17 
REMARK       I    between atoms: N2_24  and  C1_15 
REMARK    5  A    between atoms: CB_17  and  CG_18 
REMARK       I    between atoms: CG_18  and  ND2_20 
REMARK    6  A    between atoms: C9_21  and  O2_22 
REMARK    7  A    between atoms: CA1_23  and  C9_21 
REMARK    8  A    between atoms: C9_21  and  CM_33 
REMARK    9  A    between atoms: CA1_23  and  N2_24 
REMARK   10  A    between atoms: CA1_23  and  CB1_25 
REMARK   11  A    between atoms: CB1_25  and  CG1_26 
REMARK   12  A    between atoms: CM_33  and  N11_32 
REMARK   13  A    between atoms: C21_34  and  CC_35 
REMARK       I    between atoms: CC_35  and  N3_45 
REMARK   14  A    between atoms: N3_45  and  CD_46 
ROOT
ATOM      1  CA1 ROC d           1.987   6.999  37.663  0.00  0.00     0.119 C 
ENDROOT
BRANCH   1   2
ATOM      2  C9  ROC d           0.956   5.874  37.643  0.00  0.00     0.167 C 
BRANCH   2   3
ATOM      3  O2  ROC d           1.475   4.527  37.470  0.00  0.00    -0.392 OA
ATOM      4  H14 ROC d           0.754   3.908  37.472  0.00  0.00     0.210 HD
ENDBRANCH   2   3
BRANCH   2   5
ATOM      5  CM  ROC d          -0.048   6.037  36.516  0.00  0.00     0.269 C 
BRANCH   5   6
ATOM      6  N11 ROC d          -1.089   7.012  36.890  0.00  0.00    -0.055 N 
ATOM      7  C21 ROC d          -1.697   7.794  35.813  0.00  0.00     0.279 C 
ATOM      8  C31 ROC d          -2.559   8.910  36.427  0.00  0.00     0.048 C 
ATOM      9  C3A ROC d          -3.700   8.310  37.338  0.00  0.00    -0.006 C 
ATOM     10  C41 ROC d          -4.652   9.358  37.933  0.00  0.00     0.005 C 
ATOM     11  C7A ROC d          -3.150   7.357  38.348  0.00  0.00     0.016 C 
ATOM     12  C51 ROC d          -3.879  10.308  38.874  0.00  0.00     0.000 C 
ATOM     13  C61 ROC d          -3.177   9.413  39.941  0.00  0.00     0.000 C 
ATOM     14  C71 ROC d          -2.286   8.263  39.332  0.00  0.00     0.007 C 
ATOM     15  C81 ROC d          -2.221   6.346  37.680  0.00  0.00     0.241 C 
ATOM     16  H24 ROC d          -0.637   7.673  37.502  0.00  0.00     0.281 HD
BRANCH   7  17
ATOM     17  CC  ROC d          -0.676   8.406  34.925  0.00  0.00     0.249 C 
ATOM     18  O3  ROC d           0.261   9.123  35.369  0.00  0.00    -0.271 OA
ATOM     19  N3  ROC d          -0.935   8.144  33.629  0.00  0.00    -0.351 N 
ATOM     20  H42 ROC d          -1.720   7.572  33.391  0.00  0.00     0.163 HD
BRANCH  19  21
ATOM     21  CD  ROC d          -0.090   8.680  32.565  0.00  0.00     0.022 C 
ATOM     22  C11 ROC d          -0.680   8.195  31.156  0.00  0.00     0.037 C 
ATOM     23  C22 ROC d           1.296   8.161  32.672  0.00  0.00     0.037 C 
ATOM     24  C32 ROC d          -0.036  10.217  32.638  0.00  0.00     0.037 C 
ENDBRANCH  19  21
ENDBRANCH   7  17
ENDBRANCH   5   6
ENDBRANCH   2   5
ENDBRANCH   1   2
BRANCH   1  25
ATOM     25  N2  ROC d           2.721   6.861  38.958  0.00  0.00    -0.352 N 
ATOM     26  C1  ROC d           2.691   7.785  39.899  0.00  0.00     0.241 C 
ATOM     27  O1  ROC d           2.082   8.892  39.812  0.00  0.00    -0.271 OA
ATOM     28  H16 ROC d           3.258   6.033  39.118  0.00  0.00     0.163 HD
BRANCH  26  29
ATOM     29  CA  ROC d           3.526   7.374  41.156  0.00  0.00     0.185 C 
BRANCH  29  30
ATOM     30  N   ROC d           4.765   8.164  41.083  0.00  0.00    -0.342 N 
ATOM     31  C   ROC d           5.941   7.499  41.256  0.00  0.00     0.271 C 
ATOM     32  O   ROC d           5.996   6.341  41.547  0.00  0.00    -0.266 OA
ATOM     33  H7  ROC d           4.745   9.149  40.913  0.00  0.00     0.163 HD
BRANCH  31  34
ATOM     34  C2  ROC d           7.188   8.299  41.158  0.00  0.00     0.125 A 
ATOM     35  N1  ROC d           6.999   9.544  40.725  0.00  0.00    -0.243 NA
ATOM     36  C8A ROC d           7.978  10.437  40.597  0.00  0.00     0.068 A 
ATOM     37  C8  ROC d           7.689  11.687  40.060  0.00  0.00     0.032 A 
ATOM     38  C4A ROC d           9.278  10.065  40.925  0.00  0.00    -0.007 A 
ATOM     39  C7  ROC d           8.697  12.629  39.908  0.00  0.00     0.002 A 
ATOM     40  C6  ROC d          10.001  12.295  40.250  0.00  0.00     0.001 A 
ATOM     41  C5  ROC d          10.313  11.014  40.746  0.00  0.00     0.014 A 
ATOM     42  C4  ROC d           9.513   8.764  41.407  0.00  0.00     0.016 A 
ATOM     43  C3  ROC d           8.455   7.834  41.527  0.00  0.00     0.038 A 
ENDBRANCH  31  34
ENDBRANCH  29  30
BRANCH  29  44
ATOM     44  CB  ROC d           2.766   7.854  42.347  0.00  0.00     0.137 C 
BRANCH  44  45
ATOM     45  CG  ROC d           3.582   7.572  43.637  0.00  0.00     0.217 C 
ATOM     46  OD1 ROC d           4.209   8.519  44.190  0.00  0.00    -0.274 OA
ATOM     47  ND2 ROC d           3.586   6.368  44.028  0.00  0.00    -0.370 N 
ATOM     48  H11 ROC d           4.091   6.112  44.852  0.00  0.00     0.159 HD
ATOM     49  H12 ROC d           3.084   5.673  43.513  0.00  0.00     0.159 HD
ENDBRANCH  44  45
ENDBRANCH  29  44
ENDBRANCH  26  29
ENDBRANCH   1  25
BRANCH   1  50
ATOM     50  CB1 ROC d           2.999   6.749  36.528  0.00  0.00     0.066 C 
BRANCH  50  51
ATOM     51  CG1 ROC d           4.248   7.551  36.782  0.00  0.00    -0.056 C 
ATOM     52  CD1 ROC d           4.293   8.907  36.550  0.00  0.00     0.007 C 
ATOM     53  CE1 ROC d           5.482   9.644  36.867  0.00  0.00     0.001 C 
ATOM     54  CZ  ROC d           6.630   8.947  37.238  0.00  0.00     0.000 C 
ATOM     55  CE2 ROC d           6.541   7.542  37.458  0.00  0.00     0.001 C 
ATOM     56  CD2 ROC d           5.401   6.855  37.192  0.00  0.00     0.007 C 
ENDBRANCH  50  51
ENDBRANCH   1  50
TORSDOF 14
