REMARK  5 active torsions:
REMARK  status: ('A' for Active; 'I' for Inactive)
REMARK    1  A    between atoms: C03_3  and  S11_11 
REMARK    2  A    between atoms: C06_6  and  C07_7 
REMARK       I    between atoms: C07_7  and  N09_9 
REMARK    3  A    between atoms: N09_9  and  C10_10 
REMARK    4  A    between atoms: C10_10  and  C15_15 
REMARK    5  A    between atoms: S11_11  and  NP2_12 
ROOT
ATOM      1  C01 FSB d          -3.918   3.441  14.686  0.00  0.00     0.018 A 
ATOM      2  C02 FSB d          -4.303   2.284  15.407  0.00  0.00     0.026 A 
ATOM      3  C03 FSB d          -5.636   2.246  15.925  0.00  0.00     0.079 A 
ATOM      4  C04 FSB d          -6.485   3.349  15.691  0.00  0.00     0.026 A 
ATOM      5  C05 FSB d          -6.062   4.471  14.970  0.00  0.00     0.018 A 
ATOM      6  C06 FSB d          -4.786   4.521  14.470  0.00  0.00     0.032 A 
ENDROOT
BRANCH   6   7
ATOM      7  C07 FSB d          -4.310   5.725  13.694  0.00  0.00     0.251 C 
ATOM      8  N09 FSB d          -3.026   5.782  13.197  0.00  0.00    -0.353 N 
ATOM      9  H5  FSB d          -2.448   4.986  13.374  0.00  0.00     0.163 HD
ATOM     10  O08 FSB d          -5.074   6.639  13.520  0.00  0.00    -0.268 OA
BRANCH   8  11
ATOM     11  C10 FSB d          -2.413   6.869  12.443  0.00  0.00     0.164 C 
BRANCH  11  12
ATOM     12  C15 FSB d          -1.682   7.838  13.200  0.00  0.00    -0.002 A 
ATOM     13  C20 FSB d          -0.394   8.321  12.778  0.00  0.00     0.124 A 
ATOM     14  C19 FSB d           0.285   9.305  13.608  0.00  0.00     0.043 A 
ATOM     15  F21 FSB d           0.169   7.875  11.646  0.00  0.00    -0.205 F 
ATOM     16  C18 FSB d          -0.342   9.769  14.823  0.00  0.00     0.003 A 
ATOM     17  C17 FSB d          -1.608   9.286  15.228  0.00  0.00     0.001 A 
ATOM     18  C16 FSB d          -2.264   8.324  14.410  0.00  0.00     0.012 A 
ENDBRANCH  11  12
ENDBRANCH   8  11
ENDBRANCH   6   7
BRANCH   3  19
ATOM     19  S11 FSB d          -6.115   0.767  16.852  0.00  0.00     0.256 S 
ATOM     20  O14 FSB d          -5.538   1.075  18.162  0.00  0.00    -0.201 OA
ATOM     21  O13 FSB d          -7.594   1.057  16.923  0.00  0.00    -0.201 OA
BRANCH  19  22
ATOM     22  NP2 FSB d          -5.691  -0.579  16.158  0.00  0.00    -0.324 N 
ATOM     23  H8  FSB d          -5.909  -1.454  16.590  0.00  0.00     0.169 HD
ATOM     24  H9  FSB d          -5.203  -0.559  15.285  0.00  0.00     0.169 HD
ENDBRANCH  19  22
ENDBRANCH   3  19
TORSDOF 5
