REMARK  7 active torsions:
REMARK  status: ('A' for Active; 'I' for Inactive)
REMARK    1  A    between atoms: C1_1  and  C7_8 
REMARK    2  A    between atoms: C7_8  and  N1_9 
REMARK    3  A    between atoms: C8_13  and  C1'_14 
REMARK    4  A    between atoms: C5'_18  and  O5'_21 
REMARK    5  A    between atoms: C6'_19  and  O6'_20 
REMARK    6  A    between atoms: O5'_21  and  C10_22 
REMARK    7  A    between atoms: C10_22  and  C20_23 
ROOT
ATOM      1  C1  MOL d          44.188  -3.102  25.585  0.00  0.00     0.048 A 
ATOM      2  C2  MOL d          44.201  -1.681  25.563  0.00  0.00     0.132 A 
ATOM      3  F2  MOL d          44.326  -0.935  24.375  0.00  0.00    -0.205 F 
ATOM      4  C3  MOL d          44.059  -0.957  26.743  0.00  0.00     0.075 A 
ATOM      5  C4  MOL d          43.902  -1.637  27.917  0.00  0.00     0.066 A 
ATOM      6  C5  MOL d          43.881  -2.973  27.982  0.00  0.00     0.087 A 
ATOM      7  C6  MOL d          44.020  -3.747  26.838  0.00  0.00     0.052 A 
ATOM      8  N3  MOL d          43.759  -1.226  29.123  0.00  0.00    -0.338 N 
ATOM      9  N4  MOL d          43.723  -3.417  29.205  0.00  0.00    -0.228 NA
ATOM     10  C8  MOL d          43.654  -2.277  29.877  0.00  0.00     0.142 A 
ATOM     11  H7  MOL d          43.732  -0.245  29.435  0.00  0.00     0.167 HD
ENDROOT
BRANCH  10  12
ATOM     12  C1' MOL d          43.453  -2.195  31.269  0.00  0.00     0.046 A 
ATOM     13  C2' MOL d          43.280  -3.368  32.006  0.00  0.00     0.018 A 
ATOM     14  C3' MOL d          43.079  -3.307  33.385  0.00  0.00     0.004 A 
ATOM     15  C4' MOL d          43.050  -2.099  34.042  0.00  0.00     0.040 A 
ATOM     16  C5' MOL d          43.220  -0.915  33.343  0.00  0.00     0.102 A 
ATOM     17  C6' MOL d          43.418  -0.957  31.957  0.00  0.00     0.113 A 
BRANCH  16  18
ATOM     18  O5' MOL d          43.238   0.299  34.016  0.00  0.00    -0.348 OA
BRANCH  18  19
ATOM     19  C10 MOL d          43.324   0.470  35.448  0.00  0.00     0.179 C 
BRANCH  19  20
ATOM     20  C20 MOL d          43.753   1.959  35.895  0.00  0.00     0.002 C 
ATOM     21  C30 MOL d          44.792   1.884  37.050  0.00  0.00     0.011 C 
ATOM     22  C40 MOL d          44.399   2.744  34.773  0.00  0.00     0.011 C 
ENDBRANCH  19  20
ENDBRANCH  18  19
ENDBRANCH  16  18
BRANCH  17  23
ATOM     23  O6' MOL d          43.546   0.241  31.289  0.00  0.00    -0.357 OA
ATOM     24  H11 MOL d          43.675   0.074  30.363  0.00  0.00     0.217 HD
ENDBRANCH  17  23
ENDBRANCH  10  12
BRANCH   1  25
ATOM     25  C7  MOL d          44.340  -3.852  24.387  0.00  0.00     0.105 C 
ATOM     26  N2  MOL d          44.906  -3.274  23.369  0.00  0.00    -0.385 N 
ATOM     27  H5  MOL d          45.214  -2.294  23.439  0.00  0.00     0.157 HD
ATOM     28  H6  MOL d          45.046  -3.796  22.492  0.00  0.00     0.157 HD
BRANCH  25  29
ATOM     29  N1  MOL d          43.951  -5.106  24.282  0.00  0.00    -0.385 N 
ATOM     30  H3  MOL d          44.080  -5.613  23.395  0.00  0.00     0.157 HD
ATOM     31  H4  MOL d          43.518  -5.580  25.087  0.00  0.00     0.157 HD
ENDBRANCH  25  29
ENDBRANCH   1  25
TORSDOF 7
