REMARK  6 active torsions:
REMARK  status: ('A' for Active; 'I' for Inactive)
REMARK    1  A    between atoms: N7_7  and  C37_21 
REMARK    2  A    between atoms: C8_8  and  C10_10 
REMARK       I    between atoms: C10_10  and  N11_11 
REMARK    3  A    between atoms: N11_11  and  C12_12 
REMARK    4  A    between atoms: N15_15  and  C27_18 
REMARK    5  A    between atoms: C37_21  and  C38_22 
REMARK    6  A    between atoms: C43_25  and  C45_27 
ROOT
ATOM      1  C1  IIA d           2.285   8.585  25.948  0.00  0.00     0.002 A 
ATOM      2  C2  IIA d           3.448   8.957  25.115  0.00  0.00     0.030 A 
ATOM      3  C3  IIA d           4.095   8.010  24.168  0.00  0.00     0.045 A 
ATOM      4  C4  IIA d           3.526   6.631  24.099  0.00  0.00    -0.007 A 
ATOM      5  C5  IIA d           2.380   6.250  24.927  0.00  0.00     0.014 A 
ATOM      6  C6  IIA d           1.763   7.218  25.844  0.00  0.00     0.001 A 
ATOM      7  N7  IIA d           5.174   8.019  23.235  0.00  0.00    -0.336 N 
ATOM      8  C8  IIA d           5.255   6.795  22.715  0.00  0.00     0.104 A 
ATOM      9  C9  IIA d           4.275   5.911  23.178  0.00  0.00     0.049 A 
ENDROOT
BRANCH   8  10
ATOM     10  C10 IIA d           6.270   6.301  21.940  0.00  0.00     0.268 C 
ATOM     11  N11 IIA d           5.842   5.311  21.184  0.00  0.00    -0.351 N 
ATOM     12  H6  IIA d           4.875   5.172  20.971  0.00  0.00     0.163 HD
ATOM     13  O56 IIA d           7.427   6.725  21.963  0.00  0.00    -0.266 OA
BRANCH  11  14
ATOM     14  C12 IIA d           6.861   4.462  20.699  0.00  0.00     0.087 C 
ATOM     15  C13 IIA d           6.268   3.075  20.483  0.00  0.00     0.053 C 
ATOM     16  C14 IIA d           7.267   2.094  19.874  0.00  0.00     0.237 C 
ATOM     17  N15 IIA d           7.779   2.686  18.587  0.00  0.00    -0.067 N 
ATOM     18  C16 IIA d           8.425   4.024  18.744  0.00  0.00     0.237 C 
ATOM     19  H12 IIA d           6.970   2.834  18.005  0.00  0.00     0.280 HD
ATOM     20  C17 IIA d           7.400   4.971  19.365  0.00  0.00     0.053 C 
BRANCH  17  21
ATOM     21  C27 IIA d           8.654   1.730  17.863  0.00  0.00     0.180 C 
ATOM     22  C28 IIA d           9.302   2.355  16.642  0.00  0.00     0.039 C 
ATOM     23  C32 IIA d           7.818   0.553  17.432  0.00  0.00     0.039 C 
ENDBRANCH  17  21
ENDBRANCH  11  14
ENDBRANCH   8  10
BRANCH   7  24
ATOM     24  C37 IIA d           6.136   9.032  22.749  0.00  0.00     0.191 C 
BRANCH  24  25
ATOM     25  C38 IIA d           7.403   9.158  23.557  0.00  0.00     0.083 C 
ATOM     26  N41 IIA d           8.415   9.916  23.123  0.00  0.00    -0.131 NA
ATOM     27  O42 IIA d           9.473   9.732  24.021  0.00  0.00    -0.212 OA
ATOM     28  C43 IIA d           9.042   8.875  24.991  0.00  0.00     0.120 C 
ATOM     29  C44 IIA d           7.654   8.519  24.841  0.00  0.00     0.072 C 
BRANCH  28  30
ATOM     30  C45 IIA d           9.948   8.292  25.964  0.00  0.00     0.042 A 
ATOM     31  S46 IIA d          11.576   8.474  25.456  0.00  0.00    -0.075 SA
ATOM     32  C47 IIA d          12.092   7.635  26.924  0.00  0.00     0.075 A 
ATOM     33  C48 IIA d          11.084   7.221  27.707  0.00  0.00     0.033 A 
ATOM     34 CL50 IIA d          13.756   7.409  27.144  0.00  0.00    -0.076 Cl
ATOM     35  C49 IIA d           9.802   7.596  27.114  0.00  0.00     0.024 A 
ENDBRANCH  28  30
ENDBRANCH  24  25
ENDBRANCH   7  24
TORSDOF 6
