REMARK  8 active torsions:
REMARK  status: ('A' for Active; 'I' for Inactive)
REMARK    1  A    between atoms: O3A_8  and  PB_1 
REMARK    2  A    between atoms: PA_5  and  O3A_8 
REMARK    3  A    between atoms: PA_5  and  O5'_9 
REMARK    4  A    between atoms: O5'_9  and  C5'_10 
REMARK    5  A    between atoms: C5'_10  and  C4'_11 
REMARK    6  A    between atoms: C3'_13  and  O3'_14 
REMARK    7  A    between atoms: C2'_15  and  O2'_16 
REMARK    8  A    between atoms: C1'_17  and  N9_18 
ROOT
ATOM      1  C4' ADP d          86.289  52.030   3.416  0.00  0.00     0.180 A 
ATOM      2  O4' ADP d          87.063  53.071   4.020  0.00  0.00    -0.353 OA
ATOM      3  C3' ADP d          86.377  52.207   1.905  0.00  0.00     0.182 A 
ATOM      4  C2' ADP d          87.204  53.455   1.655  0.00  0.00     0.198 A 
ATOM      5  C1' ADP d          87.548  53.995   3.040  0.00  0.00     0.262 A 
ENDROOT
BRANCH   5   6
ATOM      6  N9  ADP d          89.011  54.115   3.203  0.00  0.00    -0.294 N 
ATOM      7  C8  ADP d          89.870  53.082   3.157  0.00  0.00     0.214 A 
ATOM      8  N7  ADP d          91.141  53.519   3.344  0.00  0.00    -0.236 NA
ATOM      9  C5  ADP d          91.101  54.850   3.524  0.00  0.00     0.149 A 
ATOM     10  C6  ADP d          92.093  55.919   3.774  0.00  0.00     0.155 A 
ATOM     11  C4  ADP d          89.689  55.246   3.430  0.00  0.00     0.167 A 
ATOM     12  N6  ADP d          93.408  55.614   3.869  0.00  0.00    -0.382 N 
ATOM     13  N1  ADP d          91.638  57.190   3.900  0.00  0.00    -0.222 NA
ATOM     14  H10 ADP d          94.098  56.359   4.043  0.00  0.00     0.157 HD
ATOM     15  H11 ADP d          93.719  54.637   3.767  0.00  0.00     0.157 HD
ATOM     16  C2  ADP d          90.323  57.491   3.805  0.00  0.00     0.237 A 
ATOM     17  N3  ADP d          89.369  56.560   3.578  0.00  0.00    -0.222 NA
ENDBRANCH   5   6
BRANCH   4  18
ATOM     18  O2' ADP d          86.504  54.436   0.870  0.00  0.00    -0.388 OA
ATOM     19  H7  ADP d          85.712  54.697   1.325  0.00  0.00     0.210 HD
ENDBRANCH   4  18
BRANCH   1  20
ATOM     20  C5' ADP d          86.746  50.665   3.904  0.00  0.00     0.216 C 
BRANCH  20  21
ATOM     21  O5' ADP d          85.608  49.926   4.345  0.00  0.00    -0.287 OA
BRANCH  21  22
ATOM     22  PA  ADP d          84.673  49.135   3.300  0.00  0.00     0.418 P 
ATOM     23  O1A ADP d          85.138  49.454   1.896  0.00  0.00    -0.624 OA
ATOM     24  O2A ADP d          84.590  47.688   3.709  0.00  0.00    -0.624 OA
BRANCH  22  25
ATOM     25  O3A ADP d          83.209  49.779   3.545  0.00  0.00    -0.173 OA
BRANCH  25  26
ATOM     26  PB  ADP d          82.395  49.468   4.907  0.00  0.00     0.431 P 
ATOM     27  O1B ADP d          81.826  48.080   4.717  0.00  0.00    -0.616 OA
ATOM     28  O2B ADP d          83.480  49.564   5.945  0.00  0.00    -0.616 OA
ATOM     29  O3B ADP d          81.347  50.554   5.037  0.00  0.00    -0.616 OA
ENDBRANCH  25  26
ENDBRANCH  22  25
ENDBRANCH  21  22
ENDBRANCH  20  21
ENDBRANCH   1  20
BRANCH   3  30
ATOM     30  O3' ADP d          85.059  52.350   1.382  0.00  0.00    -0.390 OA
ATOM     31  H5  ADP d          84.552  51.573   1.587  0.00  0.00     0.210 HD
ENDBRANCH   3  30
TORSDOF 8
