REMARK  11 active torsions:
REMARK  status: ('A' for Active; 'I' for Inactive)
REMARK    1  A    between atoms: NBI_2  and  CBE_4 
REMARK    2  A    between atoms: NBK_9  and  CAW_10 
REMARK    3  A    between atoms: CAW_10  and  CBD_11 
REMARK    4  A    between atoms: CBB_16  and  CAU_17 
REMARK    5  A    between atoms: CAU_17  and  CAS_18 
REMARK    6  A    between atoms: CAS_18  and  CAR_19 
REMARK    7  A    between atoms: CAR_19  and  CAT_20 
REMARK    8  A    between atoms: CAT_20  and  CBA_21 
REMARK    9  A    between atoms: CBC_26  and  CAV_27 
REMARK   10  A    between atoms: CAV_27  and  N9_28 
REMARK   11  A    between atoms: C6_36  and  N6_37 
ROOT
ATOM      1  CAT QMQ d         -15.249  10.972 -12.424  0.00  0.00     0.038 C 
ENDROOT
BRANCH   1   2
ATOM      2  CAR QMQ d         -15.676  12.443 -12.172  0.00  0.00     0.005 C 
BRANCH   2   3
ATOM      3  CAS QMQ d         -15.050  12.951 -10.856  0.00  0.00     0.005 C 
BRANCH   3   4
ATOM      4  CAU QMQ d         -15.537  14.372 -10.448  0.00  0.00     0.038 C 
BRANCH   4   5
ATOM      5  CBB QMQ d         -14.537  14.980  -9.662  0.00  0.00    -0.058 A 
ATOM      6  CAG QMQ d         -13.746  16.021 -10.174  0.00  0.00     0.007 A 
ATOM      7  CAK QMQ d         -12.738  16.606  -9.395  0.00  0.00     0.009 A 
ATOM      8  CBD QMQ d         -12.508  16.158  -8.085  0.00  0.00    -0.040 A 
ATOM      9  CAJ QMQ d         -13.305  15.116  -7.584  0.00  0.00     0.009 A 
ATOM     10  CAF QMQ d         -14.307  14.526  -8.357  0.00  0.00     0.007 A 
BRANCH   8  11
ATOM     11  CAW QMQ d         -11.486  16.732  -7.285  0.00  0.00     0.161 C 
BRANCH  11  12
ATOM     12  NBK QMQ d         -10.835  15.704  -6.387  0.00  0.00    -0.382 N 
ATOM     13  CAP QMQ d         -10.059  14.628  -6.916  0.00  0.00     0.152 A 
ATOM     14  CAM QMQ d          -9.485  13.689  -6.043  0.00  0.00     0.022 A 
ATOM     15  CBE QMQ d          -9.650  13.772  -4.643  0.00  0.00     0.028 A 
ATOM     16  CAL QMQ d         -10.410  14.834  -4.127  0.00  0.00     0.046 A 
ATOM     17  CAO QMQ d         -10.994  15.778  -4.986  0.00  0.00     0.088 A 
BRANCH  15  18
ATOM     18  NBI QMQ d          -9.091  12.847  -3.811  0.00  0.00    -0.390 N 
ATOM     19  CAA QMQ d          -9.475  12.827  -2.382  0.00  0.00     0.149 C 
ATOM     20  CAB QMQ d          -8.151  11.842  -4.364  0.00  0.00     0.149 C 
ENDBRANCH  15  18
ENDBRANCH  11  12
ENDBRANCH   8  11
ENDBRANCH   4   5
ENDBRANCH   3   4
ENDBRANCH   2   3
ENDBRANCH   1   2
BRANCH   1  21
ATOM     21  CBA QMQ d         -16.268  10.187 -13.023  0.00  0.00    -0.058 A 
ATOM     22  CAE QMQ d         -16.662  10.375 -14.362  0.00  0.00     0.007 A 
ATOM     23  CAI QMQ d         -17.674   9.583 -14.939  0.00  0.00     0.009 A 
ATOM     24  CBC QMQ d         -18.294   8.575 -14.187  0.00  0.00    -0.040 A 
ATOM     25  CAH QMQ d         -17.900   8.391 -12.857  0.00  0.00     0.009 A 
ATOM     26  CAD QMQ d         -16.891   9.181 -12.276  0.00  0.00     0.007 A 
BRANCH  24  27
ATOM     27  CAV QMQ d         -19.316   7.775 -14.749  0.00  0.00     0.170 C 
BRANCH  27  28
ATOM     28  N9  QMQ d         -18.847   6.363 -15.167  0.00  0.00    -0.320 N 
ATOM     29  C8  QMQ d         -17.658   5.795 -14.948  0.00  0.00     0.212 A 
ATOM     30  N7  QMQ d         -17.652   4.567 -15.455  0.00  0.00    -0.236 NA
ATOM     31  C5  QMQ d         -18.845   4.361 -16.007  0.00  0.00     0.149 A 
ATOM     32  C4  QMQ d         -19.587   5.469 -15.819  0.00  0.00     0.165 A 
ATOM     33  C6  QMQ d         -19.332   3.302 -16.654  0.00  0.00     0.155 A 
ATOM     34  N3  QMQ d         -20.841   5.548 -16.286  0.00  0.00    -0.222 NA
ATOM     35  C2  QMQ d         -21.388   4.457 -16.965  0.00  0.00     0.237 A 
ATOM     36  N1  QMQ d         -20.590   3.323 -17.132  0.00  0.00    -0.222 NA
BRANCH  33  37
ATOM     37  N6  QMQ d         -18.512   2.233 -16.795  0.00  0.00    -0.382 N 
ATOM     38  H34 QMQ d         -18.843   1.391 -17.288  0.00  0.00     0.157 HD
ATOM     39  H35 QMQ d         -17.557   2.262 -16.410  0.00  0.00     0.157 HD
ENDBRANCH  33  37
ENDBRANCH  27  28
ENDBRANCH  24  27
ENDBRANCH   1  21
TORSDOF 11
