REMARK  18 active torsions:
REMARK  status: ('A' for Active; 'I' for Inactive)
REMARK    1  A    between atoms: C17_5  and  C25_4 
REMARK       I    between atoms: C25_4  and  N2_34 
REMARK    2  A    between atoms: C16_6  and  C17_5 
REMARK    3  A    between atoms: C17_5  and  C18_23 
REMARK    4  A    between atoms: C15_15  and  C16_6 
REMARK    5  A    between atoms: C12_9  and  C13_8 
REMARK    6  A    between atoms: C6_22  and  C7_12 
REMARK    7  A    between atoms: C18_23  and  P1_24 
REMARK    8  A    between atoms: P1_24  and  C19_27 
REMARK    9  A    between atoms: N2_34  and  C26_35 
REMARK   10  A    between atoms: C26_35  and  C30_36 
REMARK   11  A    between atoms: C26_35  and  C27_38 
REMARK       I    between atoms: C30_36  and  N3_43 
REMARK   12  A    between atoms: C27_38  and  C28_39 
REMARK   13  A    between atoms: C28_39  and  C29_40 
REMARK   14  A    between atoms: N3_43  and  C31_44 
REMARK   15  A    between atoms: C31_44  and  C35_45 
REMARK   16  A    between atoms: C31_44  and  C32_47 
REMARK       I    between atoms: C35_45  and  N4_52 
REMARK   17  A    between atoms: C32_47  and  C33_48 
REMARK   18  A    between atoms: C33_48  and  C34_49 
ROOT
ATOM      1  C17 R47 d           8.834  25.869   2.487  0.00  0.00     0.094 C 
ENDROOT
BRANCH   1   2
ATOM      2  C25 R47 d           9.264  26.797   3.448  0.00  0.00     0.223 C 
ATOM      3  O4  R47 d          10.146  26.740   4.221  0.00  0.00    -0.273 OA
ATOM      4  N2  R47 d           8.535  27.966   3.459  0.00  0.00    -0.347 N 
ATOM      5  H19 R47 d           7.734  28.028   2.864  0.00  0.00     0.163 HD
BRANCH   4   6
ATOM      6  C26 R47 d           8.866  29.117   4.290  0.00  0.00     0.177 C 
BRANCH   6   7
ATOM      7  C30 R47 d           8.042  29.177   5.564  0.00  0.00     0.241 C 
ATOM      8  O7  R47 d           6.871  28.777   5.585  0.00  0.00    -0.271 OA
ATOM      9  N3  R47 d           8.644  29.697   6.627  0.00  0.00    -0.346 N 
ATOM     10  H25 R47 d           9.612  29.945   6.579  0.00  0.00     0.163 HD
BRANCH   9  11
ATOM     11  C31 R47 d           7.902  29.908   7.863  0.00  0.00     0.176 C 
BRANCH  11  12
ATOM     12  C35 R47 d           6.747  30.849   7.643  0.00  0.00     0.238 C 
ATOM     13  O10 R47 d           5.619  30.596   8.099  0.00  0.00    -0.271 OA
ATOM     14  N4  R47 d           7.039  31.952   6.962  0.00  0.00    -0.368 N 
ATOM     15  H31 R47 d           6.326  32.627   6.774  0.00  0.00     0.159 HD
ATOM     16  H32 R47 d           7.972  32.107   6.637  0.00  0.00     0.159 HD
ENDBRANCH  11  12
BRANCH  11  17
ATOM     17  C32 R47 d           8.798  30.513   8.928  0.00  0.00     0.045 C 
BRANCH  17  18
ATOM     18  C33 R47 d           9.727  29.539   9.528  0.00  0.00     0.116 C 
BRANCH  18  19
ATOM     19  C34 R47 d          10.332  30.053  10.807  0.00  0.00     0.172 C 
ATOM     20  O8  R47 d          10.633  29.226  11.693  0.00  0.00    -0.648 OA
ATOM     21  O9  R47 d          10.509  31.286  10.914  0.00  0.00    -0.648 OA
ENDBRANCH  18  19
ENDBRANCH  17  18
ENDBRANCH  11  17
ENDBRANCH   9  11
ENDBRANCH   6   7
BRANCH   6  22
ATOM     22  C27 R47 d           8.715  30.403   3.474  0.00  0.00     0.045 C 
BRANCH  22  23
ATOM     23  C28 R47 d           9.772  30.507   2.387  0.00  0.00     0.116 C 
BRANCH  23  24
ATOM     24  C29 R47 d           9.656  31.768   1.541  0.00  0.00     0.172 C 
ATOM     25  O5  R47 d          10.480  32.693   1.726  0.00  0.00    -0.648 OA
ATOM     26  O6  R47 d           8.770  31.818   0.666  0.00  0.00    -0.648 OA
ENDBRANCH  23  24
ENDBRANCH  22  23
ENDBRANCH   6  22
ENDBRANCH   4   6
ENDBRANCH   1   2
BRANCH   1  27
ATOM     27  C16 R47 d           8.999  24.464   3.128  0.00  0.00     0.082 C 
BRANCH  27  28
ATOM     28  C15 R47 d           7.879  24.042   4.006  0.00  0.00     0.082 A 
ATOM     29  O1  R47 d           7.987  23.008   4.825  0.00  0.00    -0.217 OA
ATOM     30  N1  R47 d           6.884  22.707   5.481  0.00  0.00    -0.128 NA
ATOM     31  C13 R47 d           6.010  23.550   5.070  0.00  0.00     0.097 A 
ATOM     32  C14 R47 d           6.625  24.389   4.067  0.00  0.00     0.069 A 
BRANCH  31  33
ATOM     33  C12 R47 d           4.603  23.513   5.501  0.00  0.00    -0.005 A 
ATOM     34  C11 R47 d           4.259  22.674   6.642  0.00  0.00     0.014 A 
ATOM     35  C10 R47 d           2.955  22.647   7.026  0.00  0.00     0.013 A 
ATOM     36  C7  R47 d           1.934  23.426   6.285  0.00  0.00    -0.026 A 
ATOM     37  C8  R47 d           2.304  24.155   5.194  0.00  0.00     0.013 A 
ATOM     38  C9  R47 d           3.693  24.202   4.785  0.00  0.00     0.014 A 
BRANCH  36  39
ATOM     39  C6  R47 d           0.506  23.371   6.679  0.00  0.00    -0.024 A 
ATOM     40  C2  R47 d          -0.342  24.332   6.299  0.00  0.00     0.036 A 
ATOM     41  C1  R47 d          -1.719  24.177   6.672  0.00  0.00     0.034 A 
ATOM     42 CL1  R47 d          -2.745  25.381   6.111  0.00  0.00    -0.084 Cl
ATOM     43  C3  R47 d          -2.204  23.129   7.317  0.00  0.00     0.024 A 
ATOM     44  C4  R47 d          -1.322  22.082   7.708  0.00  0.00     0.003 A 
ATOM     45  C5  R47 d          -0.026  22.223   7.401  0.00  0.00     0.012 A 
ENDBRANCH  36  39
ENDBRANCH  31  33
ENDBRANCH  27  28
ENDBRANCH   1  27
BRANCH   1  46
ATOM     46  C18 R47 d           9.794  25.989   1.245  0.00  0.00     0.123 C 
BRANCH  46  47
ATOM     47  P1  R47 d           9.274  25.013  -0.196  0.00  0.00     0.141 P 
ATOM     48  O2  R47 d           7.720  25.310  -0.391  0.00  0.00    -0.664 OA
ATOM     49  O3  R47 d           9.567  23.488  -0.083  0.00  0.00    -0.664 OA
BRANCH  47  50
ATOM     50  C19 R47 d          10.170  25.752  -1.582  0.00  0.00     0.030 A 
ATOM     51  C20 R47 d          11.623  25.709  -1.552  0.00  0.00     0.019 A 
ATOM     52  C21 R47 d          12.297  26.256  -2.624  0.00  0.00     0.020 A 
ATOM     53  C22 R47 d          11.515  26.785  -3.789  0.00  0.00     0.011 A 
ATOM     54 BR1  R47 d          12.068  27.474  -5.522  0.00  0.00    -0.051 Br
ATOM     55  C23 R47 d          10.199  26.787  -3.774  0.00  0.00     0.020 A 
ATOM     56  C24 R47 d           9.486  26.291  -2.636  0.00  0.00     0.019 A 
ENDBRANCH  47  50
ENDBRANCH  46  47
ENDBRANCH   1  46
TORSDOF 18
