REMARK  14 active torsions:
REMARK  status: ('A' for Active; 'I' for Inactive)
REMARK       I    between atoms: N1_26  and  C3_3 
REMARK    1  A    between atoms: C3_3  and  O1_29 
REMARK    2  A    between atoms: O1_29  and  C4_4 
REMARK    3  A    between atoms: C6_6  and  C5_5 
REMARK    4  A    between atoms: C5_5  and  C7_7 
REMARK    5  A    between atoms: C5_5  and  N1_26 
REMARK    6  A    between atoms: C14_14  and  C6_6 
REMARK    7  A    between atoms: C6_6  and  O3_31 
REMARK    8  A    between atoms: C7_7  and  C8_8 
REMARK    9  A    between atoms: N2_27  and  C14_14 
REMARK   10  A    between atoms: C15_15  and  C16_16 
REMARK   11  A    between atoms: N2_27  and  C15_15 
REMARK   12  A    between atoms: S1_35  and  C17_17 
REMARK   13  A    between atoms: C20_20  and  N3_28 
REMARK   14  A    between atoms: N2_27  and  S1_35 
ROOT
ATOM      1  C6  MOL d          13.641  18.977  17.807  0.00  0.00     0.160 C 
ENDROOT
BRANCH   1   2
ATOM      2  C5  MOL d          14.142  20.051  16.847  0.00  0.00     0.121 C 
BRANCH   2   3
ATOM      3  C7  MOL d          14.828  19.529  15.583  0.00  0.00     0.066 C 
BRANCH   3   4
ATOM      4  C8  MOL d          15.227  20.669  14.655  0.00  0.00    -0.056 A 
ATOM      5  C9  MOL d          16.523  21.149  14.646  0.00  0.00     0.007 A 
ATOM      6  C11 MOL d          16.831  22.242  13.837  0.00  0.00     0.001 A 
ATOM      7  C13 MOL d          15.856  22.842  13.076  0.00  0.00     0.000 A 
ATOM      8  C12 MOL d          14.569  22.345  12.971  0.00  0.00     0.001 A 
ATOM      9  C10 MOL d          14.310  21.278  13.815  0.00  0.00     0.007 A 
ENDBRANCH   3   4
ENDBRANCH   2   3
BRANCH   2  10
ATOM     10  N1  MOL d          15.038  20.962  17.528  0.00  0.00    -0.329 N 
ATOM     11  C3  MOL d          14.721  22.232  17.857  0.00  0.00     0.361 C 
ATOM     12  O2  MOL d          13.614  22.731  17.714  0.00  0.00    -0.238 OA
ATOM     13  H32 MOL d          15.949  20.629  17.770  0.00  0.00     0.165 HD
BRANCH  11  14
ATOM     14  O1  MOL d          15.775  22.911  18.409  0.00  0.00    -0.296 OA
BRANCH  14  15
ATOM     15  C4  MOL d          15.452  24.237  18.902  0.00  0.00     0.159 C 
ATOM     16  C1  MOL d          16.779  24.952  19.215  0.00  0.00     0.200 C 
ATOM     17  O6  MOL d          17.140  24.461  20.501  0.00  0.00    -0.389 OA
ATOM     18  C25 MOL d          15.916  24.533  21.231  0.00  0.00     0.170 C 
ATOM     19  C2  MOL d          14.838  24.045  20.291  0.00  0.00     0.061 C 
ENDBRANCH  14  15
ENDBRANCH  11  14
ENDBRANCH   2  10
ENDBRANCH   1   2
BRANCH   1  20
ATOM     20  C14 MOL d          12.499  18.150  17.228  0.00  0.00     0.169 C 
BRANCH  20  21
ATOM     21  N2  MOL d          11.216  18.813  17.151  0.00  0.00    -0.304 N 
BRANCH  21  22
ATOM     22  C15 MOL d          10.245  18.375  18.158  0.00  0.00     0.139 C 
BRANCH  22  23
ATOM     23  C16 MOL d          10.663  18.884  19.544  0.00  0.00    -0.004 C 
ATOM     24  C23 MOL d          10.674  20.421  19.509  0.00  0.00     0.011 C 
ATOM     25  C24 MOL d           9.590  18.439  20.559  0.00  0.00     0.011 C 
ENDBRANCH  22  23
ENDBRANCH  21  22
BRANCH  21  26
ATOM     26  S1  MOL d          10.577  19.103  15.670  0.00  0.00     0.260 S 
ATOM     27  O4  MOL d          11.663  19.393  14.655  0.00  0.00    -0.200 OA
ATOM     28  O5  MOL d           9.604  20.252  15.750  0.00  0.00    -0.200 OA
BRANCH  26  29
ATOM     29  C17 MOL d           9.755  17.673  15.052  0.00  0.00     0.079 C 
ATOM     30  C18 MOL d          10.465  16.794  14.260  0.00  0.00     0.027 C 
ATOM     31  C19 MOL d           9.806  15.683  13.754  0.00  0.00     0.030 C 
ATOM     32  C20 MOL d           8.559  15.340  14.215  0.00  0.00     0.025 C 
ATOM     33  C21 MOL d           7.796  16.279  14.918  0.00  0.00     0.030 C 
ATOM     34  C22 MOL d           8.440  17.409  15.376  0.00  0.00     0.027 C 
BRANCH  32  35
ATOM     35  N3  MOL d           7.967  14.241  13.766  0.00  0.00    -0.399 N 
ATOM     36  H33 MOL d           8.512  13.538  13.246  0.00  0.00     0.156 HD
ATOM     37  H34 MOL d           6.963  14.091  13.937  0.00  0.00     0.156 HD
ENDBRANCH  32  35
ENDBRANCH  26  29
ENDBRANCH  21  26
ENDBRANCH  20  21
ENDBRANCH   1  20
BRANCH   1  38
ATOM     38  O3  MOL d          14.686  18.069  18.122  0.00  0.00    -0.392 OA
ATOM     39  H35 MOL d          15.421  18.548  18.488  0.00  0.00     0.210 HD
ENDBRANCH   1  38
TORSDOF 14
