REMARK  5 active torsions:
REMARK  status: ('A' for Active; 'I' for Inactive)
REMARK    1  A    between atoms: C8_9  and  S_12 
REMARK    2  A    between atoms: S_12  and  N1'_15 
REMARK    3  A    between atoms: N1'_15  and  C1'_16 
REMARK    4  A    between atoms: C1'_16  and  C2'_17 
REMARK    5  A    between atoms: C2'_17  and  N2'_18 
ROOT
ATOM      1  C1  CKI d          29.234  10.747  69.976  0.00  0.00     0.130 A 
ATOM      2  N2  CKI d          28.839  11.414  71.085  0.00  0.00    -0.272 NA
ATOM      3  C3  CKI d          27.626  11.150  71.658  0.00  0.00     0.117 A 
ATOM      4  C4  CKI d          26.785  10.194  71.122  0.00  0.00     0.033 A 
ATOM      5  C5  CKI d          26.339   8.394  69.323  0.00  0.00     0.045 A 
ATOM      6 CL5  CKI d          24.840   7.980  69.930  0.00  0.00    -0.083 Cl
ATOM      7  C6  CKI d          26.783   7.699  68.160  0.00  0.00     0.026 A 
ATOM      8  C7  CKI d          28.005   8.003  67.607  0.00  0.00     0.028 A 
ATOM      9  C8  CKI d          28.842   9.013  68.199  0.00  0.00     0.092 A 
ATOM     10  C9  CKI d          28.405   9.736  69.386  0.00  0.00     0.017 A 
ATOM     11  C10 CKI d          27.177   9.441  69.937  0.00  0.00     0.000 A 
ENDROOT
BRANCH   9  12
ATOM     12  S   CKI d          30.380   9.320  67.413  0.00  0.00     0.259 S 
ATOM     13  O1S CKI d          31.499   8.968  68.316  0.00  0.00    -0.201 OA
ATOM     14  O2S CKI d          30.476  10.798  67.070  0.00  0.00    -0.201 OA
BRANCH  12  15
ATOM     15  N1' CKI d          30.437   8.443  66.027  0.00  0.00    -0.314 N 
ATOM     16  H6  CKI d          30.093   8.759  65.143  0.00  0.00     0.172 HD
BRANCH  15  17
ATOM     17  C1' CKI d          31.063   7.127  66.259  0.00  0.00     0.159 C 
BRANCH  17  18
ATOM     18  C2' CKI d          30.799   6.413  67.598  0.00  0.00     0.249 C 
BRANCH  18  19
ATOM     19  N2' CKI d          31.586   5.220  67.939  0.00  0.00    -0.078 N 
ATOM     20  H11 CKI d          31.296   4.872  68.840  0.00  0.00     0.274 HD
ATOM     21  H12 CKI d          32.564   5.461  67.971  0.00  0.00     0.274 HD
ATOM     22  H13 CKI d          31.437   4.508  67.241  0.00  0.00     0.274 HD
ENDBRANCH  18  19
ENDBRANCH  17  18
ENDBRANCH  15  17
ENDBRANCH  12  15
ENDBRANCH   9  12
TORSDOF 5
