REMARK  3 active torsions:
REMARK  status: ('A' for Active; 'I' for Inactive)
REMARK    1  A    between atoms: C1_13  and  N3_2 
REMARK    2  A    between atoms: C2_12  and  C6_5 
REMARK    3  A    between atoms: C10_8  and  O1_16 
ROOT
ATOM      1  C6  MOL d          13.833  -1.515  51.843  0.00  0.00     0.018 A 
ATOM      2  C7  MOL d          12.662  -1.174  51.087  0.00  0.00     0.048 A 
ATOM      3  C8  MOL d          11.399  -1.065  51.731  0.00  0.00     0.051 A 
ATOM      4  C10 MOL d          12.430  -1.608  53.926  0.00  0.00     0.090 A 
ATOM      5  C11 MOL d          13.694  -1.722  53.258  0.00  0.00     0.054 A 
ATOM      6  C9  MOL d          11.282  -1.283  53.135  0.00  0.00     0.069 A 
ATOM      7 CL1  MOL d          12.725  -0.888  49.363  0.00  0.00    -0.083 Cl
ATOM      8 CL2  MOL d           9.704  -1.144  53.843  0.00  0.00    -0.081 Cl
ENDROOT
BRANCH   1   9
ATOM      9  C2  MOL d          15.152  -1.671  51.213  0.00  0.00     0.089 A 
ATOM     10  C3  MOL d          15.746  -2.943  51.165  0.00  0.00     0.060 A 
ATOM     11  C4  MOL d          16.979  -3.021  50.538  0.00  0.00     0.052 A 
ATOM     12  N1  MOL d          17.598  -1.932  49.990  0.00  0.00    -0.068 NA
ATOM     13  C5  MOL d          17.679  -4.349  50.443  0.00  0.00     0.071 C 
ATOM     14  C1  MOL d          16.963  -0.715  50.071  0.00  0.00     0.721 A 
ATOM     15  N2  MOL d          15.741  -0.554  50.675  0.00  0.00    -0.062 NA
BRANCH  14  16
ATOM     16  N3  MOL d          17.589   0.394  49.514  0.00  0.00    -0.231 N 
ATOM     17  H1  MOL d          18.506   0.292  49.057  0.00  0.00     0.174 HD
ATOM     18  H2  MOL d          17.136   1.318  49.559  0.00  0.00     0.174 HD
ENDBRANCH  14  16
ENDBRANCH   1   9
BRANCH   4  19
ATOM     19  O1  MOL d          12.216  -1.791  55.290  0.00  0.00    -0.354 OA
ATOM     20  C12 MOL d          13.318  -2.117  56.150  0.00  0.00     0.210 C 
ENDBRANCH   4  19
TORSDOF 3
