REMARK  14 active torsions:
REMARK  status: ('A' for Active; 'I' for Inactive)
REMARK    1  A    between atoms: C3_3  and  O1_29 
REMARK       I    between atoms: C3_3  and  N1_26 
REMARK    2  A    between atoms: O1_29  and  C4_4 
REMARK    3  A    between atoms: C5_5  and  C6_6 
REMARK    4  A    between atoms: C5_5  and  C7_7 
REMARK    5  A    between atoms: N1_26  and  C5_5 
REMARK    6  A    between atoms: C6_6  and  C14_14 
REMARK    7  A    between atoms: C6_6  and  O3_31 
REMARK    8  A    between atoms: C7_7  and  C8_8 
REMARK    9  A    between atoms: C14_14  and  N2_27 
REMARK   10  A    between atoms: C15_15  and  C16_16 
REMARK   11  A    between atoms: N2_27  and  C15_15 
REMARK   12  A    between atoms: S1_35  and  C17_17 
REMARK   13  A    between atoms: C20_20  and  N3_28 
REMARK   14  A    between atoms: N2_27  and  S1_35 
ROOT
ATOM      1  C6  MOL d          10.387  18.119   8.484  0.00  0.00     0.160 C 
ENDROOT
BRANCH   1   2
ATOM      2  C5  MOL d          10.960  16.662   8.145  0.00  0.00     0.121 C 
BRANCH   2   3
ATOM      3  C7  MOL d          12.416  16.278   8.652  0.00  0.00     0.066 C 
BRANCH   3   4
ATOM      4  C8  MOL d          12.831  14.914   8.170  0.00  0.00    -0.056 A 
ATOM      5  C9  MOL d          13.636  14.825   6.978  0.00  0.00     0.007 A 
ATOM      6  C11 MOL d          13.891  13.566   6.331  0.00  0.00     0.001 A 
ATOM      7  C13 MOL d          13.371  12.357   6.887  0.00  0.00     0.000 A 
ATOM      8  C12 MOL d          12.574  12.434   8.116  0.00  0.00     0.001 A 
ATOM      9  C10 MOL d          12.299  13.706   8.765  0.00  0.00     0.007 A 
ENDBRANCH   3   4
ENDBRANCH   2   3
BRANCH   2  10
ATOM     10  N1  MOL d          10.940  16.472   6.713  0.00  0.00    -0.329 N 
ATOM     11  C3  MOL d          10.149  15.702   5.999  0.00  0.00     0.361 C 
ATOM     12  O2  MOL d           9.081  15.313   6.287  0.00  0.00    -0.238 OA
ATOM     13  H32 MOL d          11.618  16.995   6.197  0.00  0.00     0.165 HD
BRANCH  11  14
ATOM     14  O1  MOL d          10.726  15.662   4.731  0.00  0.00    -0.296 OA
BRANCH  14  15
ATOM     15  C4  MOL d          10.113  15.149   3.548  0.00  0.00     0.159 C 
ATOM     16  C1  MOL d          11.169  14.977   2.445  0.00  0.00     0.200 C 
ATOM     17  O6  MOL d          11.053  16.082   1.515  0.00  0.00    -0.389 OA
ATOM     18  C25 MOL d           9.751  16.626   1.633  0.00  0.00     0.170 C 
ATOM     19  C2  MOL d           9.176  16.224   2.997  0.00  0.00     0.061 C 
ENDBRANCH  14  15
ENDBRANCH  11  14
ENDBRANCH   2  10
ENDBRANCH   1   2
BRANCH   1  20
ATOM     20  C14 MOL d           9.695  18.411   9.891  0.00  0.00     0.169 C 
BRANCH  20  21
ATOM     21  N2  MOL d           8.516  17.580  10.228  0.00  0.00    -0.304 N 
BRANCH  21  22
ATOM     22  C15 MOL d           7.381  17.697   9.170  0.00  0.00     0.139 C 
BRANCH  22  23
ATOM     23  C16 MOL d           6.186  18.406   9.790  0.00  0.00    -0.004 C 
ATOM     24  C23 MOL d           6.146  19.937   9.614  0.00  0.00     0.011 C 
ATOM     25  C24 MOL d           4.822  17.695   9.731  0.00  0.00     0.011 C 
ENDBRANCH  22  23
ENDBRANCH  21  22
BRANCH  21  26
ATOM     26  S1  MOL d           8.765  16.112  11.200  0.00  0.00     0.260 S 
ATOM     27  O5  MOL d           7.707  15.160  11.071  0.00  0.00    -0.200 OA
ATOM     28  O4  MOL d          10.051  15.511  10.847  0.00  0.00    -0.200 OA
BRANCH  26  29
ATOM     29  C17 MOL d           8.832  16.381  12.886  0.00  0.00     0.079 A 
ATOM     30  C18 MOL d          10.073  16.363  13.604  0.00  0.00     0.027 A 
ATOM     31  C19 MOL d          10.092  16.692  14.992  0.00  0.00     0.030 A 
ATOM     32  C20 MOL d           8.865  17.054  15.620  0.00  0.00     0.025 A 
ATOM     33  C21 MOL d           7.652  17.006  14.926  0.00  0.00     0.030 A 
ATOM     34  C22 MOL d           7.639  16.669  13.555  0.00  0.00     0.027 A 
BRANCH  32  35
ATOM     35  N3  MOL d           8.840  17.322  16.898  0.00  0.00    -0.399 N 
ATOM     36  H33 MOL d           9.719  17.363  17.433  0.00  0.00     0.156 HD
ATOM     37  H34 MOL d           7.941  17.492  17.371  0.00  0.00     0.156 HD
ENDBRANCH  32  35
ENDBRANCH  26  29
ENDBRANCH  21  26
ENDBRANCH  20  21
ENDBRANCH   1  20
BRANCH   1  38
ATOM     38  O3  MOL d          11.432  19.030   8.466  0.00  0.00    -0.392 OA
ATOM     39  H35 MOL d          11.917  18.938   7.654  0.00  0.00     0.210 HD
ENDBRANCH   1  38
TORSDOF 14
