REMARK  8 active torsions:
REMARK  status: ('A' for Active; 'I' for Inactive)
REMARK    1  A    between atoms: C27_5  and  N28_6 
REMARK    2  A    between atoms: C18_12  and  C16_13 
REMARK    3  A    between atoms: C12_18  and  S9_19 
REMARK    4  A    between atoms: S9_19  and  N5_22 
REMARK       I    between atoms: N5_22  and  C4_23 
REMARK    5  A    between atoms: C4_23  and  C3_25 
REMARK    6  A    between atoms: C3_25  and  N7_26 
REMARK    7  A    between atoms: C3_25  and  C2_27 
REMARK    8  A    between atoms: C2_27  and  O6_29 
ROOT
ATOM      1  C16 1B3 d          16.735 -37.440 -17.768  0.00  0.00    -0.024 A 
ATOM      2  C17 1B3 d          15.568 -37.650 -17.058  0.00  0.00     0.037 A 
ATOM      3  C15 1B3 d          16.691 -36.810 -19.028  0.00  0.00     0.012 A 
ATOM      4  C14 1B3 d          15.457 -36.522 -19.641  0.00  0.00     0.002 A 
ATOM      5  C13 1B3 d          14.283 -36.781 -18.908  0.00  0.00     0.025 A 
ATOM      6  C12 1B3 d          14.333 -37.340 -17.624  0.00  0.00     0.080 A 
ENDROOT
BRANCH   6   7
ATOM      7  S9  1B3 d          12.953 -37.646 -16.810  0.00  0.00     0.265 S 
ATOM      8  O10 1B3 d          12.483 -38.962 -17.196  0.00  0.00    -0.200 OA
ATOM      9  O11 1B3 d          13.184 -37.591 -15.418  0.00  0.00    -0.200 OA
BRANCH   7  10
ATOM     10  N5  1B3 d          11.810 -36.640 -17.234  0.00  0.00    -0.248 N 
ATOM     11  C4  1B3 d          11.877 -35.343 -16.908  0.00  0.00     0.264 C 
ATOM     12  O8  1B3 d          12.819 -34.881 -16.264  0.00  0.00    -0.270 OA
ATOM     13  H10 1B3 d          11.025 -36.977 -17.754  0.00  0.00     0.182 HD
BRANCH  11  14
ATOM     14  C3  1B3 d          10.727 -34.495 -17.355  0.00  0.00     0.303 C 
BRANCH  14  15
ATOM     15  N7  1B3 d          10.393 -33.492 -16.339  0.00  0.00    -0.064 N 
ATOM     16  H12 1B3 d          10.139 -33.955 -15.480  0.00  0.00     0.275 HD
ATOM     17  H13 1B3 d           9.619 -32.933 -16.661  0.00  0.00     0.275 HD
ATOM     18  H14 1B3 d          11.192 -32.899 -16.177  0.00  0.00     0.275 HD
ENDBRANCH  14  15
BRANCH  14  19
ATOM     19  C2  1B3 d          11.099 -33.718 -18.620  0.00  0.00     0.153 C 
ATOM     20  C1  1B3 d          11.057 -34.664 -19.844  0.00  0.00     0.042 C 
BRANCH  19  21
ATOM     21  O6  1B3 d          10.181 -32.622 -18.776  0.00  0.00    -0.393 OA
ATOM     22  H19 1B3 d          10.228 -32.059 -18.012  0.00  0.00     0.210 HD
ENDBRANCH  19  21
ENDBRANCH  14  19
ENDBRANCH  11  14
ENDBRANCH   7  10
ENDBRANCH   6   7
BRANCH   1  23
ATOM     23  C18 1B3 d          18.082 -37.682 -17.146  0.00  0.00    -0.024 A 
ATOM     24  C23 1B3 d          19.234 -37.605 -17.936  0.00  0.00     0.045 A 
ATOM     25  C22 1B3 d          20.483 -37.756 -17.305  0.00  0.00     0.074 A 
ATOM     26  N24 1B3 d          21.635 -37.681 -17.982  0.00  0.00    -0.218 NA
ATOM     27  C21 1B3 d          20.557 -37.967 -15.858  0.00  0.00     0.038 A 
ATOM     28  C25 1B3 d          22.806 -37.839 -17.324  0.00  0.00     0.225 A 
ATOM     29 CL2  1B3 d          24.248 -37.729 -18.323  0.00  0.00    -0.041 Cl
ATOM     30  N26 1B3 d          22.951 -38.034 -15.992  0.00  0.00    -0.200 NA
ATOM     31  C27 1B3 d          21.897 -38.098 -15.209  0.00  0.00     0.137 A 
ATOM     32  C20 1B3 d          19.382 -38.026 -15.108  0.00  0.00     0.018 A 
ATOM     33  C19 1B3 d          18.152 -37.900 -15.756  0.00  0.00     0.013 A 
BRANCH  31  34
ATOM     34  N28 1B3 d          22.041 -38.285 -13.883  0.00  0.00    -0.383 N 
ATOM     35  H1  1B3 d          21.210 -38.334 -13.277  0.00  0.00     0.157 HD
ATOM     36  H2  1B3 d          22.982 -38.379 -13.475  0.00  0.00     0.157 HD
ENDBRANCH  31  34
ENDBRANCH   1  23
TORSDOF 8
