REMARK  7 active torsions:
REMARK  status: ('A' for Active; 'I' for Inactive)
REMARK    1  A    between atoms: C05_7  and  C02_4 
REMARK    2  A    between atoms: C10_12  and  C07_9 
REMARK    3  A    between atoms: C16_18  and  C14_16 
REMARK       I    between atoms: N18_20  and  C16_18 
REMARK    4  A    between atoms: C19_21  and  N18_20 
REMARK    5  A    between atoms: C20_22  and  C19_21 
REMARK    6  A    between atoms: C20_22  and  C26_27 
REMARK    7  A    between atoms: C28_29  and  C31_32 
ROOT
ATOM      1  C19 NU7 d          -9.485   5.572 -16.692  0.00  0.00     0.139 C 
ENDROOT
BRANCH   1   2
ATOM      2  N18 NU7 d          -9.120   4.262 -16.115  0.00  0.00    -0.356 N 
ATOM      3  C16 NU7 d         -10.024   3.365 -15.710  0.00  0.00     0.251 C 
ATOM      4  O17 NU7 d         -11.233   3.615 -15.701  0.00  0.00    -0.268 OA
ATOM      5  H9  NU7 d          -8.150   4.036 -16.023  0.00  0.00     0.162 HD
BRANCH   3   6
ATOM      6  C14 NU7 d          -9.537   2.015 -15.341  0.00  0.00     0.032 A 
ATOM      7  C13 NU7 d         -10.254   0.877 -15.741  0.00  0.00     0.017 A 
ATOM      8  C12 NU7 d          -9.781  -0.401 -15.411  0.00  0.00     0.002 A 
ATOM      9  C11 NU7 d          -8.590  -0.550 -14.685  0.00  0.00     0.015 A 
ATOM     10  C10 NU7 d          -7.880   0.588 -14.286  0.00  0.00     0.015 A 
ATOM     11  C15 NU7 d          -8.344   1.866 -14.621  0.00  0.00     0.032 A 
BRANCH  10  12
ATOM     12  C07 NU7 d          -6.618   0.456 -13.539  0.00  0.00     0.189 A 
ATOM     13  N06 NU7 d          -5.925  -0.734 -13.301  0.00  0.00    -0.196 NA
ATOM     14  C05 NU7 d          -4.830  -0.443 -12.623  0.00  0.00     0.280 A 
ATOM     15  O09 NU7 d          -4.788   0.926 -12.408  0.00  0.00    -0.186 OA
ATOM     16  N08 NU7 d          -5.934   1.453 -13.012  0.00  0.00    -0.105 NA
BRANCH  14  17
ATOM     17  C02 NU7 d          -3.790  -1.410 -12.141  0.00  0.00     0.460 C 
ATOM     18  F01 NU7 d          -2.606  -1.094 -12.654  0.00  0.00    -0.163 F 
ATOM     19  F03 NU7 d          -4.088  -2.642 -12.528  0.00  0.00    -0.163 F 
ATOM     20  F04 NU7 d          -3.788  -1.321 -10.815  0.00  0.00    -0.163 F 
ENDBRANCH  14  17
ENDBRANCH  10  12
ENDBRANCH   3   6
ENDBRANCH   1   2
BRANCH   1  21
ATOM     21  C20 NU7 d          -8.579   5.886 -17.896  0.00  0.00     0.030 C 
ATOM     22  C21 NU7 d          -8.970   7.259 -18.504  0.00  0.00     0.046 C 
ATOM     23  C22 NU7 d         -10.102   7.183 -19.549  0.00  0.00     0.235 C 
ATOM     24  N2  NU7 d          -9.863   6.143 -20.564  0.00  0.00    -0.075 N 
ATOM     25  C1  NU7 d          -8.636   6.416 -21.340  0.00  0.00     0.269 C 
ATOM     26  C24 NU7 d          -9.792   4.822 -19.925  0.00  0.00     0.235 C 
ATOM     27  H4  NU7 d         -10.642   6.144 -21.203  0.00  0.00     0.279 HD
ATOM     28  C25 NU7 d          -8.618   4.733 -18.931  0.00  0.00     0.046 C 
BRANCH  21  29
ATOM     29  C26 NU7 d          -7.165   5.968 -17.358  0.00  0.00     0.086 A 
ATOM     30  N27 NU7 d          -6.380   4.963 -16.998  0.00  0.00    -0.244 NA
ATOM     31  C28 NU7 d          -5.093   5.270 -16.530  0.00  0.00     0.074 A 
ATOM     32  C29 NU7 d          -4.776   6.576 -16.499  0.00  0.00     0.084 A 
ATOM     33  S30 NU7 d          -6.207   7.429 -17.095  0.00  0.00    -0.083 SA
BRANCH  31  34
ATOM     34  C31 NU7 d          -4.138   4.211 -16.093  0.00  0.00    -0.007 A 
ATOM     35  C32 NU7 d          -2.750   4.446 -16.050  0.00  0.00     0.014 A 
ATOM     36  C33 NU7 d          -1.868   3.441 -15.635  0.00  0.00     0.001 A 
ATOM     37  C34 NU7 d          -2.360   2.188 -15.253  0.00  0.00     0.000 A 
ATOM     38  C35 NU7 d          -3.738   1.946 -15.290  0.00  0.00     0.001 A 
ATOM     39  C36 NU7 d          -4.625   2.952 -15.706  0.00  0.00     0.014 A 
ENDBRANCH  31  34
ENDBRANCH  21  29
ENDBRANCH   1  21
TORSDOF 7
