REMARK  23 active torsions:
REMARK  status: ('A' for Active; 'I' for Inactive)
REMARK    1  A    between atoms: CBD_3  and  CAO_2 
REMARK    2  A    between atoms: CBS_4  and  CBD_3 
REMARK    3  A    between atoms: CBH_10  and  CBU_9 
REMARK    4  A    between atoms: CCC_31  and  CBH_10 
REMARK       I    between atoms: CBR_11  and  N_13 
REMARK    5  A    between atoms: CCC_31  and  CBR_11 
REMARK    6  A    between atoms: N_13  and  CA_14 
REMARK    7  A    between atoms: CA_14  and  CB_15 
REMARK    8  A    between atoms: CA_14  and  C_18 
REMARK       I    between atoms: C_18  and  NBJ_20 
REMARK    9  A    between atoms: NBJ_20  and  CBB_21 
REMARK   10  A    between atoms: CBB_21  and  CAN_22 
REMARK   11  A    between atoms: CCC_31  and  OAM_24 
REMARK   12  A    between atoms: CBF_25  and  CBC_26 
REMARK   13  A    between atoms: CBF_25  and  CCC_31 
REMARK   14  A    between atoms: CBC_26  and  CBE_27 
REMARK   15  A    between atoms: CBE_27  and  NCA_28 
REMARK   16  A    between atoms: NCA_28  and  NBM_29 
REMARK   17  A    between atoms: NCA_28  and  CBG_43 
REMARK       I    between atoms: NBM_29  and  CBQ_30 
REMARK   18  A    between atoms: CBQ_30  and  CBZ_33 
REMARK   19  A    between atoms: CBZ_33  and  CCB_34 
REMARK   20  A    between atoms: CBZ_33  and  NBK_38 
REMARK       I    between atoms: NBK_38  and  CBO_39 
REMARK   21  A    between atoms: CBO_39  and  OBN_41 
REMARK   22  A    between atoms: CBG_43  and  CBT_44 
REMARK   23  A    between atoms: CBW_49  and  CBV_50 
ROOT
ATOM      1  CBE MOL d          15.190  23.696   6.278  0.00  0.00     0.263 C 
ENDROOT
BRANCH   1   2
ATOM      2  CBC MOL d          13.771  24.138   6.213  0.00  0.00     0.033 C 
BRANCH   2   3
ATOM      3  CBF MOL d          13.154  23.564   4.998  0.00  0.00     0.050 C 
BRANCH   3   4
ATOM      4  CCC MOL d          12.061  24.453   4.502  0.00  0.00     0.142 C 
BRANCH   4   5
ATOM      5  CBH MOL d          11.550  23.888   3.094  0.00  0.00     0.086 C 
BRANCH   5   6
ATOM      6  CBU MOL d          10.179  24.245   2.894  0.00  0.00    -0.055 A 
ATOM      7  CAV MOL d           9.859  25.472   2.332  0.00  0.00     0.007 A 
ATOM      8  CAT MOL d           8.508  25.830   2.133  0.00  0.00     0.007 A 
ATOM      9  CBS MOL d           7.489  24.945   2.502  0.00  0.00    -0.058 A 
ATOM     10  CAU MOL d           7.819  23.705   3.070  0.00  0.00     0.007 A 
ATOM     11  CAW MOL d           9.158  23.356   3.265  0.00  0.00     0.007 A 
BRANCH   9  12
ATOM     12  CBD MOL d           6.110  25.298   2.305  0.00  0.00     0.038 C 
BRANCH  12  13
ATOM     13  CAO MOL d           5.871  25.674   0.888  0.00  0.00     0.000 C 
ATOM     14  CAB MOL d           4.532  25.365   0.241  0.00  0.00     0.005 C 
ENDBRANCH  12  13
ENDBRANCH   9  12
ENDBRANCH   5   6
ENDBRANCH   4   5
BRANCH   4  15
ATOM     15  CBR MOL d          10.840  24.468   5.534  0.00  0.00     0.253 C 
ATOM     16  OAL MOL d          10.478  23.438   6.114  0.00  0.00    -0.270 OA
ATOM     17  N   MOL d          10.258  25.666   5.708  0.00  0.00    -0.345 N 
ATOM     18  H   MOL d          10.611  26.460   5.213  0.00  0.00     0.163 HD
BRANCH  17  19
ATOM     19  CA  MOL d           9.081  25.835   6.637  0.00  0.00     0.180 C 
BRANCH  19  20
ATOM     20  CB  MOL d           9.524  26.426   8.111  0.00  0.00     0.009 C 
ATOM     21  CG1 MOL d          10.958  25.969   8.465  0.00  0.00     0.012 C 
ATOM     22  CG2 MOL d           9.443  27.980   8.121  0.00  0.00     0.012 C 
ENDBRANCH  19  20
BRANCH  19  23
ATOM     23  C   MOL d           8.030  26.809   5.921  0.00  0.00     0.240 C 
ATOM     24  O   MOL d           8.372  27.930   5.479  0.00  0.00    -0.271 OA
ATOM     25  NBJ MOL d           6.846  26.348   5.830  0.00  0.00    -0.359 N 
ATOM     26  H   MOL d           6.647  25.440   6.198  0.00  0.00     0.162 HD
BRANCH  25  27
ATOM     27  CBB MOL d           5.793  27.098   5.214  0.00  0.00     0.122 C 
BRANCH  27  28
ATOM     28  CAN MOL d           5.049  27.811   6.257  0.00  0.00     0.015 C 
ATOM     29  CAA MOL d           4.498  27.047   7.435  0.00  0.00     0.006 C 
ENDBRANCH  27  28
ENDBRANCH  25  27
ENDBRANCH  19  23
ENDBRANCH  17  19
ENDBRANCH   4  15
BRANCH   4  30
ATOM     30  OAM MOL d          12.558  25.769   4.330  0.00  0.00    -0.380 OA
ATOM     31  H   MOL d          11.866  26.326   3.992  0.00  0.00     0.211 HD
ENDBRANCH   4  30
ENDBRANCH   3   4
ENDBRANCH   2   3
ENDBRANCH   1   2
BRANCH   1  32
ATOM     32  NCA MOL d          15.298  22.342   6.841  0.00  0.00     0.015 N 
ATOM     33  H   MOL d          14.387  21.950   7.022  0.00  0.00     0.309 HD
BRANCH  32  34
ATOM     34  NBM MOL d          15.911  21.662   6.125  0.00  0.00    -0.185 N 
ATOM     35  CBQ MOL d          15.271  20.617   5.520  0.00  0.00     0.265 C 
ATOM     36  OAK MOL d          14.060  20.338   5.680  0.00  0.00    -0.269 OA
ATOM     37  H   MOL d          16.881  21.837   5.956  0.00  0.00     0.197 HD
BRANCH  35  38
ATOM     38  CBZ MOL d          16.187  19.775   4.611  0.00  0.00     0.188 C 
BRANCH  38  39
ATOM     39  CCB MOL d          15.393  19.051   3.475  0.00  0.00    -0.022 C 
ATOM     40  CAG MOL d          14.546  20.076   2.688  0.00  0.00     0.017 C 
ATOM     41  CAH MOL d          14.462  17.962   4.090  0.00  0.00     0.017 C 
ATOM     42  CAF MOL d          16.429  18.360   2.496  0.00  0.00     0.017 C 
ENDBRANCH  38  39
BRANCH  38  43
ATOM     43  NBK MOL d          16.850  18.781   5.456  0.00  0.00    -0.323 N 
ATOM     44  CBO MOL d          18.123  18.764   5.594  0.00  0.00     0.360 C 
ATOM     45  OAI MOL d          18.825  19.603   4.998  0.00  0.00    -0.239 OA
ATOM     46  H   MOL d          16.297  18.100   5.936  0.00  0.00     0.165 HD
BRANCH  44  47
ATOM     47  OBN MOL d          18.718  17.792   6.421  0.00  0.00    -0.309 OA
ATOM     48  CAC MOL d          20.040  18.164   6.759  0.00  0.00     0.215 C 
ENDBRANCH  44  47
ENDBRANCH  38  43
ENDBRANCH  35  38
ENDBRANCH  32  34
BRANCH  32  49
ATOM     49  CBG MOL d          16.047  22.468   8.005  0.00  0.00     0.301 C 
BRANCH  49  50
ATOM     50  CBT MOL d          16.228  21.187   8.747  0.00  0.00    -0.030 A 
ATOM     51  CAX MOL d          15.162  20.585   9.349  0.00  0.00     0.010 A 
ATOM     52  CAZ MOL d          15.333  19.379  10.054  0.00  0.00     0.013 A 
ATOM     53  CBW MOL d          16.578  18.786  10.147  0.00  0.00    -0.026 A 
ATOM     54  CBA MOL d          17.679  19.390   9.542  0.00  0.00     0.013 A 
ATOM     55  CAY MOL d          17.512  20.594   8.837  0.00  0.00     0.010 A 
BRANCH  53  56
ATOM     56  CBV MOL d          16.729  17.568  10.874  0.00  0.00    -0.023 A 
ATOM     57  CAR MOL d          17.902  17.390  11.661  0.00  0.00     0.031 A 
ATOM     58  CAP MOL d          18.098  16.228  12.395  0.00  0.00     0.117 A 
ATOM     59  NBI MOL d          17.152  15.230  12.372  0.00  0.00    -0.273 NA
ATOM     60  CAQ MOL d          15.980  15.389  11.601  0.00  0.00     0.117 A 
ATOM     61  CAS MOL d          15.777  16.587  10.845  0.00  0.00     0.031 A 
ENDBRANCH  53  56
ENDBRANCH  49  50
ENDBRANCH  32  49
ENDBRANCH   1  32
TORSDOF 23
