REMARK  12 active torsions:
REMARK  status: ('A' for Active; 'I' for Inactive)
REMARK    1  A    between atoms: SG_1  and  CA1_2 
REMARK    2  A    between atoms: CA1_2  and  C1_8 
REMARK    3  A    between atoms: CA1_2  and  CB1_3 
REMARK    4  A    between atoms: CB1_3  and  CG1_4 
REMARK    5  A    between atoms: CG1_4  and  CD1_5 
REMARK    6  A    between atoms: CD1_5  and  CE1_6 
REMARK       I    between atoms: C1_8  and  N2_10 
REMARK    7  A    between atoms: N2_10  and  CA2_11 
REMARK    8  A    between atoms: CA2_11  and  C2_19 
REMARK    9  A    between atoms: CA2_11  and  CB2_12 
REMARK   10  A    between atoms: CB2_12  and  CG2_13 
REMARK       I    between atoms: C2_19  and  N3_21 
REMARK   11  A    between atoms: N3_21  and  CA3_22 
REMARK   12  A    between atoms: CA3_22  and  C3_24 
ROOT
ATOM      1  CA2 TI1 d          36.313  42.020  -3.248  0.00  0.00     0.180 C 
ENDROOT
BRANCH   1   2
ATOM      2  N2  TI1 d          35.297  41.676  -4.237  0.00  0.00    -0.346 N 
ATOM      3  C1  TI1 d          35.561  41.869  -5.523  0.00  0.00     0.232 C 
ATOM      4  O1  TI1 d          36.645  42.319  -5.916  0.00  0.00    -0.272 OA
ATOM      5  H14 TI1 d          34.416  41.301  -3.950  0.00  0.00     0.163 HD
BRANCH   3   6
ATOM      6  CA1 TI1 d          34.469  41.549  -6.538  0.00  0.00     0.136 C 
BRANCH   6   7
ATOM      7  SG  TI1 d          34.131  43.301  -7.063  0.00  0.00    -0.168 SA
ATOM      8  H1  TI1 d          33.405  43.307  -7.763  0.00  0.00     0.102 HD
ENDBRANCH   6   7
BRANCH   6   9
ATOM      9  CB1 TI1 d          35.101  40.696  -7.644  0.00  0.00     0.024 C 
BRANCH   9  10
ATOM     10  CG1 TI1 d          34.190  39.696  -8.271  0.00  0.00     0.002 C 
BRANCH  10  11
ATOM     11  CD1 TI1 d          33.801  38.640  -7.263  0.00  0.00    -0.000 C 
BRANCH  11  12
ATOM     12  CE1 TI1 d          32.783  37.699  -7.871  0.00  0.00    -0.005 C 
ATOM     13  CF1 TI1 d          32.412  36.623  -6.903  0.00  0.00     0.005 C 
ENDBRANCH  11  12
ENDBRANCH  10  11
ENDBRANCH   9  10
ENDBRANCH   6   9
ENDBRANCH   3   6
ENDBRANCH   1   2
BRANCH   1  14
ATOM     14  C2  TI1 d          37.557  41.131  -3.289  0.00  0.00     0.241 C 
ATOM     15  N3  TI1 d          37.347  39.820  -3.324  0.00  0.00    -0.345 N 
ATOM     16  H23 TI1 d          36.407  39.480  -3.329  0.00  0.00     0.163 HD
ATOM     17  O2  TI1 d          38.688  41.634  -3.290  0.00  0.00    -0.271 OA
BRANCH  15  18
ATOM     18  CA3 TI1 d          38.445  38.860  -3.356  0.00  0.00     0.181 C 
ATOM     19  CB3 TI1 d          38.358  37.935  -2.149  0.00  0.00     0.043 C 
BRANCH  18  20
ATOM     20  C3  TI1 d          38.434  38.057  -4.656  0.00  0.00     0.196 C 
ATOM     21  OXT TI1 d          39.486  37.504  -5.018  0.00  0.00    -0.646 OA
ATOM     22  O3  TI1 d          37.387  38.018  -5.334  0.00  0.00    -0.646 OA
ENDBRANCH  18  20
ENDBRANCH  15  18
ENDBRANCH   1  14
BRANCH   1  23
ATOM     23  CB2 TI1 d          35.738  42.052  -1.830  0.00  0.00     0.073 C 
BRANCH  23  24
ATOM     24  CG2 TI1 d          36.605  42.796  -0.859  0.00  0.00    -0.056 A 
ATOM     25  CD4 TI1 d          37.172  42.147   0.234  0.00  0.00     0.007 A 
ATOM     26  CE4 TI1 d          38.040  42.828   1.098  0.00  0.00     0.001 A 
ATOM     27  CZ2 TI1 d          38.340  44.169   0.866  0.00  0.00     0.000 A 
ATOM     28  CE3 TI1 d          37.774  44.830  -0.219  0.00  0.00     0.001 A 
ATOM     29  CD3 TI1 d          36.910  44.143  -1.076  0.00  0.00     0.007 A 
ENDBRANCH  23  24
ENDBRANCH   1  23
TORSDOF 12
