REMARK  0 active torsions:
REMARK  status: ('A' for Active; 'I' for Inactive)
ROOT
ATOM      1  C1  ABV d          18.562   5.381  -1.692  0.00  0.00     0.021 A 
ATOM      2  N1  ABV d          20.338   8.185  -3.052  0.00  0.00    -0.224 NA
ATOM      3  S1  ABV d          18.214   8.134  -1.770  0.00  0.00    -0.051 SA
ATOM      4  C2  ABV d          19.344   4.306  -2.055  0.00  0.00     0.002 A 
ATOM      5  N2  ABV d          19.378  10.308  -2.702  0.00  0.00    -0.378 N 
ATOM      6  C3  ABV d          20.510   4.505  -2.785  0.00  0.00     0.002 A 
ATOM      7  C4  ABV d          20.897   5.790  -3.144  0.00  0.00     0.033 A 
ATOM      8  C5  ABV d          20.113   6.882  -2.783  0.00  0.00     0.076 A 
ATOM      9  C6  ABV d          18.937   6.652  -2.049  0.00  0.00     0.037 A 
ATOM     10  C7  ABV d          19.392   8.990  -2.572  0.00  0.00     0.165 A 
ATOM     11  H3  ABV d          20.137  10.783  -3.211  0.00  0.00     0.158 HD
ATOM     12  H4  ABV d          18.608  10.858  -2.294  0.00  0.00     0.158 HD
ENDROOT
TORSDOF 0
