REMARK  10 active torsions:
REMARK  status: ('A' for Active; 'I' for Inactive)
REMARK    1  A    between atoms: C2_1  and  O2_7 
REMARK    2  A    between atoms: C3_2  and  O3_8 
REMARK    3  A    between atoms: C4_3  and  O4_9 
REMARK    4  A    between atoms: C5_4  and  C6_5 
REMARK    5  A    between atoms: C6_5  and  O6_11 
REMARK    6  A    between atoms: O4_19  and  C1_6 
REMARK    7  A    between atoms: C5_13  and  C6_12 
REMARK    8  A    between atoms: C6_12  and  O6_17 
REMARK    9  A    between atoms: C4_14  and  O4_19 
REMARK   10  A    between atoms: C3_15  and  O3_20 
ROOT
ATOM      1  C2  BGC d          61.317  47.735  36.372  0.00  0.00     0.204 C 
ATOM      2  C3  BGC d          60.669  48.677  37.399  0.00  0.00     0.183 C 
ATOM      3  C4  BGC d          59.168  48.411  37.530  0.00  0.00     0.180 C 
ATOM      4  C5  BGC d          58.948  46.926  37.816  0.00  0.00     0.179 C 
ATOM      5  C1  BGC d          60.970  46.291  36.705  0.00  0.00     0.292 C 
ATOM      6  O5  BGC d          59.549  46.175  36.755  0.00  0.00    -0.348 OA
ENDROOT
BRANCH   5   7
ATOM      7  O4  BGC d          61.351  45.524  35.657  0.00  0.00    -0.348 OA
BRANCH   7   8
ATOM      8  C4  BGC d          61.283  44.112  35.803  0.00  0.00     0.188 C 
ATOM      9  C5  BGC d          62.685  43.523  36.037  0.00  0.00     0.213 C 
ATOM     10  O5  BGC d          62.575  42.109  36.174  0.00  0.00    -0.195 OA
ATOM     11  N1  BGC d          62.047  41.538  34.952  0.00  0.00     0.042 N 
ATOM     12  C2  BGC d          60.694  41.979  34.597  0.00  0.00     0.302 C 
ATOM     13  H21 BGC d          62.666  41.788  34.197  0.00  0.00     0.315 HD
ATOM     14  H22 BGC d          62.032  40.535  35.056  0.00  0.00     0.315 HD
ATOM     15  C3  BGC d          60.687  43.521  34.517  0.00  0.00     0.178 C 
BRANCH   9  16
ATOM     16  C6  BGC d          63.320  43.982  37.335  0.00  0.00     0.201 C 
BRANCH  16  17
ATOM     17  O6  BGC d          62.483  43.673  38.446  0.00  0.00    -0.398 OA
ATOM     18  H19 BGC d          62.347  42.734  38.487  0.00  0.00     0.209 HD
ENDBRANCH  16  17
ENDBRANCH   9  16
BRANCH  15  19
ATOM     19  O3  BGC d          59.377  43.926  34.298  0.00  0.00    -0.391 OA
ATOM     20  H20 BGC d          59.344  44.874  34.245  0.00  0.00     0.210 HD
ENDBRANCH  15  19
ENDBRANCH   7   8
ENDBRANCH   5   7
BRANCH   1  21
ATOM     21  O2  BGC d          62.721  47.914  36.320  0.00  0.00    -0.388 OA
ATOM     22  H8  BGC d          63.087  47.348  35.651  0.00  0.00     0.210 HD
ENDBRANCH   1  21
BRANCH   2  23
ATOM     23  O3  BGC d          60.877  50.031  37.026  0.00  0.00    -0.390 OA
ATOM     24  H9  BGC d          60.510  50.602  37.691  0.00  0.00     0.210 HD
ENDBRANCH   2  23
BRANCH   4  25
ATOM     25  C6  BGC d          57.489  46.520  37.940  0.00  0.00     0.198 C 
BRANCH  25  26
ATOM     26  O6  BGC d          56.847  46.759  36.699  0.00  0.00    -0.398 OA
ATOM     27  H11 BGC d          57.270  46.245  36.021  0.00  0.00     0.209 HD
ENDBRANCH  25  26
ENDBRANCH   4  25
BRANCH   3  28
ATOM     28  O4  BGC d          58.605  49.190  38.577  0.00  0.00    -0.390 OA
ATOM     29  H10 BGC d          58.744  50.112  38.395  0.00  0.00     0.210 HD
ENDBRANCH   3  28
TORSDOF 10
