REMARK  13 active torsions:
REMARK  status: ('A' for Active; 'I' for Inactive)
REMARK    1  A    between atoms: SG_1  and  CA1_2 
REMARK    2  A    between atoms: CA1_2  and  C1_10 
REMARK    3  A    between atoms: CA1_2  and  CB1_3 
REMARK    4  A    between atoms: CB1_3  and  CG1_4 
REMARK       I    between atoms: C1_10  and  N2_12 
REMARK    5  A    between atoms: N2_12  and  CA2_13 
REMARK    6  A    between atoms: CA2_13  and  C2_21 
REMARK    7  A    between atoms: CA2_13  and  CB2_14 
REMARK    8  A    between atoms: CB2_14  and  CG2_15 
REMARK       I    between atoms: C2_21  and  N3_23 
REMARK    9  A    between atoms: N3_23  and  CA3_24 
REMARK   10  A    between atoms: CA3_24  and  C3_33 
REMARK   11  A    between atoms: CA3_24  and  CB3_25 
REMARK   12  A    between atoms: CB3_25  and  CG3_26 
REMARK   13  A    between atoms: CZ3_31  and  OH_32 
ROOT
ATOM      1  CA2 TI2 d          36.557  42.175  -3.060  0.00  0.00     0.180 C 
ENDROOT
BRANCH   1   2
ATOM      2  N2  TI2 d          35.542  41.802  -4.022  0.00  0.00    -0.346 N 
ATOM      3  C1  TI2 d          35.758  41.918  -5.322  0.00  0.00     0.232 C 
ATOM      4  O1  TI2 d          36.801  42.379  -5.799  0.00  0.00    -0.272 OA
ATOM      5  H10 TI2 d          34.663  41.451  -3.699  0.00  0.00     0.163 HD
BRANCH   3   6
ATOM      6  CA1 TI2 d          34.603  41.542  -6.228  0.00  0.00     0.140 C 
BRANCH   6   7
ATOM      7  SG  TI2 d          34.226  43.172  -6.987  0.00  0.00    -0.168 SA
ATOM      8  H1  TI2 d          33.456  43.072  -7.630  0.00  0.00     0.102 HD
ENDBRANCH   6   7
BRANCH   6   9
ATOM      9  CB1 TI2 d          35.056  40.503  -7.240  0.00  0.00     0.063 C 
BRANCH   9  10
ATOM     10  CG1 TI2 d          33.931  39.773  -7.861  0.00  0.00    -0.057 A 
ATOM     11  CD2 TI2 d          33.262  38.782  -7.142  0.00  0.00     0.007 A 
ATOM     12  CE2 TI2 d          32.168  38.139  -7.677  0.00  0.00     0.001 A 
ATOM     13  CZ1 TI2 d          31.723  38.481  -8.951  0.00  0.00     0.000 A 
ATOM     14  CE1 TI2 d          32.390  39.467  -9.677  0.00  0.00     0.001 A 
ATOM     15  CD1 TI2 d          33.491  40.105  -9.127  0.00  0.00     0.007 A 
ENDBRANCH   9  10
ENDBRANCH   6   9
ENDBRANCH   3   6
ENDBRANCH   1   2
BRANCH   1  16
ATOM     16  C2  TI2 d          37.724  41.205  -3.012  0.00  0.00     0.241 C 
ATOM     17  N3  TI2 d          37.386  39.928  -3.111  0.00  0.00    -0.344 N 
ATOM     18  H19 TI2 d          36.419  39.712  -3.247  0.00  0.00     0.163 HD
ATOM     19  O2  TI2 d          38.888  41.610  -2.904  0.00  0.00    -0.271 OA
BRANCH  17  20
ATOM     20  CA3 TI2 d          38.319  38.821  -3.036  0.00  0.00     0.189 C 
BRANCH  20  21
ATOM     21  C3  TI2 d          38.474  38.218  -4.436  0.00  0.00     0.197 C 
ATOM     22  OXT TI2 d          39.615  37.943  -4.837  0.00  0.00    -0.646 OA
ATOM     23  O3  TI2 d          37.458  38.060  -5.147  0.00  0.00    -0.646 OA
ENDBRANCH  20  21
BRANCH  20  24
ATOM     24  CB3 TI2 d          37.699  37.818  -2.069  0.00  0.00     0.074 C 
BRANCH  24  25
ATOM     25  CG3 TI2 d          38.566  36.706  -1.508  0.00  0.00    -0.056 A 
ATOM     26  CD6 TI2 d          37.962  35.471  -1.249  0.00  0.00     0.010 A 
ATOM     27  CE6 TI2 d          38.718  34.431  -0.698  0.00  0.00     0.037 A 
ATOM     28  CZ3 TI2 d          40.075  34.630  -0.414  0.00  0.00     0.065 A 
ATOM     29  CE5 TI2 d          40.678  35.870  -0.683  0.00  0.00     0.037 A 
ATOM     30  CD5 TI2 d          39.919  36.914  -1.232  0.00  0.00     0.010 A 
BRANCH  28  31
ATOM     31  OH  TI2 d          40.806  33.619   0.127  0.00  0.00    -0.361 OA
ATOM     32  H27 TI2 d          40.252  32.856   0.244  0.00  0.00     0.217 HD
ENDBRANCH  28  31
ENDBRANCH  24  25
ENDBRANCH  20  24
ENDBRANCH  17  20
ENDBRANCH   1  16
BRANCH   1  33
ATOM     33  CB2 TI2 d          35.936  42.275  -1.671  0.00  0.00     0.073 C 
BRANCH  33  34
ATOM     34  CG2 TI2 d          36.808  42.963  -0.682  0.00  0.00    -0.056 A 
ATOM     35  CD4 TI2 d          37.317  42.277   0.414  0.00  0.00     0.007 A 
ATOM     36  CE4 TI2 d          38.161  42.922   1.326  0.00  0.00     0.001 A 
ATOM     37  CZ2 TI2 d          38.498  44.265   1.140  0.00  0.00     0.000 A 
ATOM     38  CE3 TI2 d          37.991  44.959   0.044  0.00  0.00     0.001 A 
ATOM     39  CD3 TI2 d          37.148  44.304  -0.862  0.00  0.00     0.007 A 
ENDBRANCH  33  34
ENDBRANCH   1  33
TORSDOF 13
