REMARK  14 active torsions:
REMARK  status: ('A' for Active; 'I' for Inactive)
REMARK    1  A    between atoms: C2_4  and  C1_1 
REMARK       I    between atoms: C1_1  and  N9_18 
REMARK    2  A    between atoms: N1_2  and  C2_4 
REMARK       I    between atoms: C6_13  and  N1_2 
REMARK    3  A    between atoms: C2_4  and  C3_7 
REMARK    4  A    between atoms: N2_5  and  C7_14 
REMARK       I    between atoms: C11_21  and  N2_5 
REMARK    5  A    between atoms: C3_7  and  C4_9 
REMARK    6  A    between atoms: C4_9  and  C5_11 
REMARK    7  A    between atoms: C7_14  and  C6_13 
REMARK    8  A    between atoms: C7_14  and  C8_15 
REMARK    9  A    between atoms: C8_15  and  C9_17 
REMARK   10  A    between atoms: C9_17  and  C10_20 
REMARK   11  A    between atoms: C12_22  and  C11_21 
REMARK   12  A    between atoms: C13_23  and  C12_22 
REMARK   13  A    between atoms: C13_23  and  C27_32 
REMARK   14  A    between atoms: C16_25  and  C21_26 
ROOT
ATOM      1  C7  EEC d           8.664  28.548   5.321  0.00  0.00     0.177 C 
ENDROOT
BRANCH   1   2
ATOM      2  N2  EEC d           8.015  27.473   4.594  0.00  0.00    -0.348 N 
ATOM      3  C11 EEC d           8.679  26.397   4.182  0.00  0.00     0.218 C 
ATOM      4  O2  EEC d           9.876  26.183   4.370  0.00  0.00    -0.274 OA
ATOM      5  H3  EEC d           7.037  27.544   4.396  0.00  0.00     0.163 HD
BRANCH   3   6
ATOM      6  C12 EEC d           7.826  25.395   3.470  0.00  0.00     0.109 C 
BRANCH   6   7
ATOM      7  C13 EEC d           8.049  24.113   4.227  0.00  0.00     0.076 C 
BRANCH   7   8
ATOM      8  C27 EEC d           6.836  23.602   4.956  0.00  0.00     0.081 A 
ATOM      9  O5  EEC d           6.902  22.612   5.879  0.00  0.00    -0.217 OA
ATOM     10  N3  EEC d           5.631  22.282   6.415  0.00  0.00    -0.128 NA
ATOM     11  C16 EEC d           4.773  23.115   5.793  0.00  0.00     0.097 A 
ATOM     12  C14 EEC d           5.476  23.944   4.886  0.00  0.00     0.069 A 
BRANCH  11  13
ATOM     13  C21 EEC d           3.315  23.067   6.091  0.00  0.00    -0.005 A 
ATOM     14  C22 EEC d           2.393  23.694   5.259  0.00  0.00     0.014 A 
ATOM     15  C23 EEC d           1.041  23.629   5.558  0.00  0.00     0.001 A 
ATOM     16  C24 EEC d           0.626  22.925   6.689  0.00  0.00     0.000 A 
ATOM     17  C25 EEC d           1.544  22.291   7.522  0.00  0.00     0.001 A 
ATOM     18  C26 EEC d           2.895  22.362   7.220  0.00  0.00     0.014 A 
ENDBRANCH  11  13
ENDBRANCH   7   8
ENDBRANCH   6   7
ENDBRANCH   3   6
ENDBRANCH   1   2
BRANCH   1  19
ATOM     19  C6  EEC d           7.850  28.863   6.533  0.00  0.00     0.241 C 
ATOM     20  N1  EEC d           8.453  29.566   7.488  0.00  0.00    -0.346 N 
ATOM     21  H1  EEC d           9.412  29.835   7.393  0.00  0.00     0.163 HD
ATOM     22  O1  EEC d           6.673  28.523   6.597  0.00  0.00    -0.271 OA
BRANCH  20  23
ATOM     23  C2  EEC d           7.696  29.937   8.671  0.00  0.00     0.176 C 
BRANCH  23  24
ATOM     24  C1  EEC d           6.724  31.041   8.340  0.00  0.00     0.238 C 
ATOM     25  N9  EEC d           7.043  31.818   7.398  0.00  0.00    -0.368 N 
ATOM     26  H13 EEC d           6.433  32.567   7.139  0.00  0.00     0.159 HD
ATOM     27  H14 EEC d           7.906  31.685   6.911  0.00  0.00     0.159 HD
ATOM     28  O9  EEC d           5.680  31.171   8.963  0.00  0.00    -0.271 OA
ENDBRANCH  23  24
BRANCH  23  29
ATOM     29  C3  EEC d           8.743  30.462   9.641  0.00  0.00     0.045 C 
BRANCH  29  30
ATOM     30  C4  EEC d           9.150  29.375  10.621  0.00  0.00     0.116 C 
BRANCH  30  31
ATOM     31  C5  EEC d          10.100  29.966  11.640  0.00  0.00     0.172 C 
ATOM     32  O8  EEC d          10.370  31.193  11.593  0.00  0.00    -0.648 OA
ATOM     33  O8E EEC d          10.584  29.195  12.501  0.00  0.00    -0.648 OA
ENDBRANCH  30  31
ENDBRANCH  29  30
ENDBRANCH  23  29
ENDBRANCH  20  23
ENDBRANCH   1  19
BRANCH   1  34
ATOM     34  C8  EEC d           8.491  29.793   4.461  0.00  0.00     0.045 C 
BRANCH  34  35
ATOM     35  C9  EEC d           9.325  29.828   3.191  0.00  0.00     0.116 C 
BRANCH  35  36
ATOM     36  C10 EEC d           9.133  31.223   2.647  0.00  0.00     0.172 C 
ATOM     37  O4  EEC d           9.736  32.164   3.212  0.00  0.00    -0.648 OA
ATOM     38  O4E EEC d           8.364  31.385   1.673  0.00  0.00    -0.648 OA
ENDBRANCH  35  36
ENDBRANCH  34  35
ENDBRANCH   1  34
TORSDOF 14
