REMARK  6 active torsions:
REMARK  status: ('A' for Active; 'I' for Inactive)
REMARK    1  A    between atoms: N1_1  and  C1'_11 
REMARK    2  A    between atoms: C2'_12  and  O2'_13 
REMARK    3  A    between atoms: C3'_14  and  O3'_15 
REMARK    4  A    between atoms: C4'_16  and  O4'_17 
REMARK    5  A    between atoms: C5'_18  and  C6'_20 
REMARK    6  A    between atoms: C6'_20  and  O6'_21 
ROOT
ATOM      1  N1  D1M d          34.097  23.508  28.807  0.00  0.00    -0.278 N 
ATOM      2  C2  D1M d          33.494  24.363  29.765  0.00  0.00     0.331 A 
ATOM      3  O2  D1M d          32.281  24.570  29.788  0.00  0.00    -0.246 OA
ATOM      4  N3  D1M d          34.319  25.037  30.686  0.00  0.00    -0.274 N 
ATOM      5  C4  D1M d          35.673  24.807  30.700  0.00  0.00     0.269 A 
ATOM      6  O4  D1M d          36.304  25.448  31.522  0.00  0.00    -0.266 OA
ATOM      7  C5  D1M d          36.293  23.901  29.807  0.00  0.00     0.100 A 
ATOM      8  C6  D1M d          35.509  23.279  28.838  0.00  0.00     0.124 A 
ATOM      9  C7  D1M d          37.709  23.693  29.916  0.00  0.00    -0.071 C 
ATOM     10  C8  D1M d          38.877  23.561  30.059  0.00  0.00     0.018 C 
ATOM     11  H1  D1M d          33.917  25.686  31.332  0.00  0.00     0.173 HD
ENDROOT
BRANCH   1  12
ATOM     12  C1' D1M d          33.213  22.851  27.851  0.00  0.00     0.264 C 
ATOM     13  C2' D1M d          33.698  23.181  26.343  0.00  0.00     0.198 C 
ATOM     14  C3' D1M d          32.653  22.576  25.422  0.00  0.00     0.182 C 
ATOM     15  C4' D1M d          32.464  21.092  25.856  0.00  0.00     0.180 C 
ATOM     16  C5' D1M d          32.231  20.862  27.418  0.00  0.00     0.179 C 
ATOM     17  O5' D1M d          33.281  21.431  28.141  0.00  0.00    -0.353 OA
BRANCH  13  18
ATOM     18  O2' D1M d          33.876  24.575  26.155  0.00  0.00    -0.388 OA
ATOM     19  H6  D1M d          34.160  24.739  25.264  0.00  0.00     0.210 HD
ENDBRANCH  13  18
BRANCH  14  20
ATOM     20  O3' D1M d          33.097  22.646  24.054  0.00  0.00    -0.390 OA
ATOM     21  H8  D1M d          32.436  22.265  23.488  0.00  0.00     0.210 HD
ENDBRANCH  14  20
BRANCH  15  22
ATOM     22  O4' D1M d          31.333  20.596  25.159  0.00  0.00    -0.390 OA
ATOM     23  H10 D1M d          31.488  20.655  24.224  0.00  0.00     0.210 HD
ENDBRANCH  15  22
BRANCH  16  24
ATOM     24  C6' D1M d          32.109  19.283  27.746  0.00  0.00     0.198 C 
BRANCH  24  25
ATOM     25  O6' D1M d          33.319  18.699  27.236  0.00  0.00    -0.398 OA
ATOM     26  H14 D1M d          34.067  19.090  27.672  0.00  0.00     0.209 HD
ENDBRANCH  24  25
ENDBRANCH  16  24
ENDBRANCH   1  12
TORSDOF 6
