REMARK  6 active torsions:
REMARK  status: ('A' for Active; 'I' for Inactive)
REMARK    1  A    between atoms: C1_1  and  C2_2 
REMARK    2  A    between atoms: C1_1  and  C8_8 
REMARK    3  A    between atoms: C1_1  and  C14_14 
REMARK    4  A    between atoms: C5_5  and  N1_26 
REMARK    5  A    between atoms: C11_11  and  N2_27 
REMARK    6  A    between atoms: C17_17  and  N3_28 
ROOT
ATOM      1  C1  CVI d         -13.402   2.786 -18.672  0.00  0.00     0.084 C 
ENDROOT
BRANCH   1   2
ATOM      2  C2  CVI d         -12.686   3.393 -17.541  0.00  0.00    -0.045 A 
ATOM      3  C3  CVI d         -11.634   2.712 -16.975  0.00  0.00     0.010 A 
ATOM      4  C4  CVI d         -10.979   3.265 -15.849  0.00  0.00     0.030 A 
ATOM      5  C5  CVI d         -11.424   4.522 -15.372  0.00  0.00     0.029 A 
ATOM      6  C6  CVI d         -12.495   5.198 -15.995  0.00  0.00     0.030 A 
ATOM      7  C7  CVI d         -13.125   4.612 -17.078  0.00  0.00     0.010 A 
BRANCH   5   8
ATOM      8  N1  CVI d         -10.797   5.096 -14.254  0.00  0.00    -0.390 N 
ATOM      9  C20 CVI d          -9.471   4.631 -13.824  0.00  0.00     0.149 C 
ATOM     10  C21 CVI d         -11.391   6.179 -13.484  0.00  0.00     0.149 C 
ENDBRANCH   5   8
ENDBRANCH   1   2
BRANCH   1  11
ATOM     11  C8  CVI d         -14.873   3.070 -18.815  0.00  0.00    -0.045 A 
ATOM     12  C9  CVI d         -15.383   3.569 -20.021  0.00  0.00     0.010 A 
ATOM     13  C10 CVI d         -16.779   3.838 -20.124  0.00  0.00     0.030 A 
ATOM     14  C11 CVI d         -17.638   3.634 -19.046  0.00  0.00     0.029 A 
ATOM     15  C12 CVI d         -17.120   3.163 -17.847  0.00  0.00     0.030 A 
ATOM     16  C13 CVI d         -15.741   2.878 -17.703  0.00  0.00     0.010 A 
BRANCH  14  17
ATOM     17  N2  CVI d         -18.975   3.903 -19.120  0.00  0.00    -0.390 N 
ATOM     18  C22 CVI d         -19.519   4.636 -20.247  0.00  0.00     0.149 C 
ATOM     19  C23 CVI d         -19.755   3.446 -17.985  0.00  0.00     0.149 C 
ENDBRANCH  14  17
ENDBRANCH   1  11
BRANCH   1  20
ATOM     20  C14 CVI d         -12.631   2.031 -19.667  0.00  0.00    -0.045 A 
ATOM     21  C15 CVI d         -11.244   2.168 -19.796  0.00  0.00     0.010 A 
ATOM     22  C16 CVI d         -10.613   1.416 -20.813  0.00  0.00     0.030 A 
ATOM     23  C17 CVI d         -11.334   0.524 -21.634  0.00  0.00     0.029 A 
ATOM     24  C18 CVI d         -12.695   0.416 -21.457  0.00  0.00     0.030 A 
ATOM     25  C19 CVI d         -13.333   1.171 -20.487  0.00  0.00     0.010 A 
BRANCH  23  26
ATOM     26  N3  CVI d         -10.685  -0.198 -22.684  0.00  0.00    -0.390 N 
ATOM     27  C24 CVI d          -9.233  -0.186 -22.733  0.00  0.00     0.149 C 
ATOM     28  C25 CVI d         -11.362  -0.856 -23.810  0.00  0.00     0.149 C 
ENDBRANCH  23  26
ENDBRANCH   1  20
TORSDOF 6
