REMARK  2 active torsions:
REMARK  status: ('A' for Active; 'I' for Inactive)
REMARK    1  A    between atoms: CAS_7  and  CAV_8 
REMARK    2  A    between atoms: CAU_16  and  CAR_17 
ROOT
ATOM      1  CAV MOL d          13.604   0.049  28.778  0.00  0.00     0.166 C 
ATOM      2  CAK MOL d          12.162   0.090  29.030  0.00  0.00     0.063 C 
ATOM      3  NAW MOL d          13.810   0.872  27.613  0.00  0.00    -0.069 N 
ATOM      4  NAN MOL d          15.046   1.232  27.095  0.00  0.00    -0.029 NA
ATOM      5  NAL MOL d          14.791   1.916  26.072  0.00  0.00    -0.008 NA
ATOM      6  NAM MOL d          13.473   2.067  25.801  0.00  0.00     0.065 NA
ATOM      7  CAT MOL d          12.821   1.400  26.783  0.00  0.00     0.741 A 
ATOM      8  NAO MOL d          11.505   1.178  27.017  0.00  0.00    -0.213 N 
ATOM      9  CAU MOL d          11.205   0.044  27.901  0.00  0.00     0.135 C 
ATOM     10  H8  MOL d          10.766   1.764  26.603  0.00  0.00     0.178 HD
ENDROOT
BRANCH   1  11
ATOM     11  CAS MOL d          14.470   0.404  29.931  0.00  0.00    -0.031 A 
ATOM     12  CAJ MOL d          15.133  -0.589  30.597  0.00  0.00     0.028 A 
ATOM     13  CAQ MOL d          15.923  -0.316  31.691  0.00  0.00     0.011 A 
ATOM     14 BRB  MOL d          16.847  -1.758  32.534  0.00  0.00    -0.051 Br
ATOM     15  CAF MOL d          16.057   0.959  32.179  0.00  0.00     0.019 A 
ATOM     16  CAD MOL d          15.375   1.977  31.546  0.00  0.00     0.002 A 
ATOM     17  CAH MOL d          14.584   1.713  30.439  0.00  0.00     0.009 A 
ENDBRANCH   1  11
BRANCH   9  18
ATOM     18  CAR MOL d           9.769  -0.150  28.222  0.00  0.00    -0.034 A 
ATOM     19  CAI MOL d           9.031   0.970  28.499  0.00  0.00     0.028 A 
ATOM     20  CAP MOL d           7.727   0.852  28.825  0.00  0.00     0.011 A 
ATOM     21 BRA  MOL d           6.760   2.405  29.183  0.00  0.00    -0.051 Br
ATOM     22  CAE MOL d           7.075  -0.333  28.901  0.00  0.00     0.019 A 
ATOM     23  CAC MOL d           7.803  -1.484  28.626  0.00  0.00     0.002 A 
ATOM     24  CAG MOL d           9.136  -1.407  28.316  0.00  0.00     0.009 A 
ENDBRANCH   9  18
TORSDOF 2
