REMARK  13 active torsions:
REMARK  status: ('A' for Active; 'I' for Inactive)
REMARK    1  A    between atoms: C1_1  and  S11_2 
REMARK    2  A    between atoms: S11_2  and  N12_3 
REMARK    3  A    between atoms: N12_3  and  C13_4 
REMARK    4  A    between atoms: C13_4  and  C14_16 
REMARK    5  A    between atoms: C13_4  and  C16_25 
REMARK    6  A    between atoms: C5_10  and  C6_11 
REMARK       I    between atoms: C14_16  and  N26_18 
REMARK    7  A    between atoms: N29_21  and  C32_24 
REMARK    8  A    between atoms: C32_24  and  C33_32 
REMARK    9  A    between atoms: C16_25  and  C17_26 
REMARK   10  A    between atoms: C17_26  and  C18_27 
REMARK   11  A    between atoms: C18_27  and  N19_28 
REMARK       I    between atoms: N19_28  and  C20_29 
REMARK       I    between atoms: C20_29  and  N21_30 
REMARK   12  A    between atoms: C33_32  and  C8_33 
REMARK   13  A    between atoms: C8_33  and  N9_34 
ROOT
ATOM      1  C13 MIU d          14.764 -15.071  20.885  0.00  0.00     0.185 C 
ENDROOT
BRANCH   1   2
ATOM      2  N12 MIU d          14.523 -16.047  21.981  0.00  0.00    -0.302 N 
ATOM      3  H1  MIU d          13.873 -15.857  22.716  0.00  0.00     0.173 HD
BRANCH   2   4
ATOM      4  S11 MIU d          15.424 -17.533  21.925  0.00  0.00     0.259 S 
ATOM      5  O24 MIU d          14.927 -18.442  23.121  0.00  0.00    -0.201 OA
ATOM      6  O25 MIU d          15.010 -18.222  20.556  0.00  0.00    -0.201 OA
BRANCH   4   7
ATOM      7  C1  MIU d          17.155 -17.292  21.985  0.00  0.00     0.080 A 
ATOM      8  C2  MIU d          17.976 -17.716  20.908  0.00  0.00     0.025 A 
ATOM      9  C3  MIU d          19.380 -17.502  20.981  0.00  0.00     0.002 A 
ATOM     10  C4  MIU d          19.949 -16.874  22.124  0.00  0.00     0.016 A 
ATOM     11  C5  MIU d          19.116 -16.447  23.213  0.00  0.00     0.049 A 
ATOM     12  C10 MIU d          17.711 -16.669  23.127  0.00  0.00     0.041 A 
BRANCH  11  13
ATOM     13  C6  MIU d          19.750 -15.757  24.454  0.00  0.00     0.417 C 
ATOM     14  F61 MIU d          20.647 -16.581  25.060  0.00  0.00    -0.166 F 
ATOM     15  F1  MIU d          20.399 -14.616  24.076  0.00  0.00    -0.166 F 
ATOM     16  F6  MIU d          18.794 -15.420  25.364  0.00  0.00    -0.166 F 
ENDBRANCH  11  13
ENDBRANCH   4   7
ENDBRANCH   2   4
ENDBRANCH   1   2
BRANCH   1  17
ATOM     17  C14 MIU d          15.946 -14.050  21.248  0.00  0.00     0.243 C 
ATOM     18  O15 MIU d          16.142 -13.800  22.450  0.00  0.00    -0.271 OA
ATOM     19  N26 MIU d          16.751 -13.465  20.272  0.00  0.00    -0.347 N 
ATOM     20  C27 MIU d          18.017 -12.781  20.573  0.00  0.00     0.153 C 
ATOM     21  C31 MIU d          16.315 -13.499  18.805  0.00  0.00     0.153 C 
ATOM     22  C28 MIU d          19.104 -13.451  19.809  0.00  0.00     0.254 C 
ATOM     23  N29 MIU d          18.746 -13.410  18.324  0.00  0.00    -0.068 N 
ATOM     24  C30 MIU d          17.450 -14.137  18.001  0.00  0.00     0.254 C 
ATOM     25  H11 MIU d          18.801 -12.471  17.960  0.00  0.00     0.280 HD
BRANCH  23  26
ATOM     26  C32 MIU d          19.548 -14.410  17.612  0.00  0.00     0.236 C 
BRANCH  26  27
ATOM     27  C33 MIU d          20.469 -14.007  16.424  0.00  0.00     0.055 C 
BRANCH  27  28
ATOM     28  C8  MIU d          20.448 -12.507  16.073  0.00  0.00     0.231 C 
BRANCH  28  29
ATOM     29  N9  MIU d          19.080 -12.103  15.696  0.00  0.00    -0.079 N 
ATOM     30  H33 MIU d          19.071 -11.121  15.467  0.00  0.00     0.274 HD
ATOM     31  H34 MIU d          18.454 -12.274  16.468  0.00  0.00     0.274 HD
ATOM     32  H35 MIU d          18.780 -12.637  14.896  0.00  0.00     0.274 HD
ENDBRANCH  28  29
ENDBRANCH  27  28
ENDBRANCH  26  27
ENDBRANCH  23  26
ENDBRANCH   1  17
BRANCH   1  33
ATOM     33  C16 MIU d          13.338 -14.488  20.624  0.00  0.00     0.037 C 
BRANCH  33  34
ATOM     34  C17 MIU d          12.607 -13.730  21.760  0.00  0.00     0.023 C 
BRANCH  34  35
ATOM     35  C18 MIU d          12.300 -12.315  21.267  0.00  0.00     0.138 C 
BRANCH  35  36
ATOM     36  N19 MIU d          11.591 -11.437  22.228  0.00  0.00    -0.227 N 
ATOM     37  C20 MIU d          12.174 -10.807  23.244  0.00  0.00     0.665 C 
ATOM     38  N21 MIU d          13.142  -9.939  23.131  0.00  0.00    -0.235 N 
ATOM     39  N22 MIU d          11.759 -11.056  24.455  0.00  0.00    -0.235 N 
ATOM     40  H25 MIU d          13.538  -9.496  23.973  0.00  0.00     0.174 HD
ATOM     41  H26 MIU d          13.510  -9.697  22.200  0.00  0.00     0.174 HD
ATOM     42  H27 MIU d          10.997 -11.732  24.610  0.00  0.00     0.174 HD
ATOM     43  H28 MIU d          12.193 -10.577  25.257  0.00  0.00     0.174 HD
ATOM     44  H24 MIU d          10.577 -11.306  22.100  0.00  0.00     0.177 HD
ENDBRANCH  35  36
ENDBRANCH  34  35
ENDBRANCH  33  34
ENDBRANCH   1  33
TORSDOF 13
