REMARK  7 active torsions:
REMARK  status: ('A' for Active; 'I' for Inactive)
REMARK    1  A    between atoms: P_2  and  O5'_5 
REMARK    2  A    between atoms: O5'_5  and  C5'_6 
REMARK    3  A    between atoms: C5'_6  and  C4'_7 
REMARK    4  A    between atoms: C3'_9  and  O3'_10 
REMARK    5  A    between atoms: C2'_11  and  O2'_12 
REMARK    6  A    between atoms: C1'_13  and  N1_14 
REMARK    7  A    between atoms: C4_17  and  N4_21 
ROOT
ATOM      1  C4' C5P d          13.862  14.961  27.623  0.00  0.00     0.180 C 
ATOM      2  O4' C5P d          14.013  16.314  27.407  0.00  0.00    -0.353 OA
ATOM      3  C3' C5P d          15.004  14.575  28.414  0.00  0.00     0.182 C 
ATOM      4  C2' C5P d          16.113  15.518  28.087  0.00  0.00     0.198 C 
ATOM      5  C1' C5P d          15.365  16.621  27.473  0.00  0.00     0.263 C 
ENDROOT
BRANCH   5   6
ATOM      6  N1  C5P d          15.464  17.894  28.153  0.00  0.00    -0.280 N 
ATOM      7  C2  C5P d          16.465  18.718  27.708  0.00  0.00     0.330 A 
ATOM      8  N3  C5P d          16.494  19.940  28.244  0.00  0.00    -0.293 N 
ATOM      9  O2  C5P d          17.341  18.360  26.917  0.00  0.00    -0.246 OA
ATOM     10  C4  C5P d          15.602  20.361  29.186  0.00  0.00     0.125 A 
ATOM     11  H9  C5P d          17.203  20.577  27.941  0.00  0.00     0.172 HD
ATOM     12  C5  C5P d          14.578  19.508  29.663  0.00  0.00     0.067 A 
ATOM     13  C6  C5P d          14.548  18.286  29.114  0.00  0.00     0.102 A 
BRANCH  10  14
ATOM     14  N4  C5P d          15.710  21.583  29.696  0.00  0.00    -0.284 NA
ATOM     15  H12 C5P d          15.053  21.898  30.392  0.00  0.00     0.188 HD
ENDBRANCH  10  14
ENDBRANCH   5   6
BRANCH   4  16
ATOM     16  O2' C5P d          16.888  15.052  27.015  0.00  0.00    -0.388 OA
ATOM     17  H7  C5P d          17.266  14.210  27.241  0.00  0.00     0.210 HD
ENDBRANCH   4  16
BRANCH   1  18
ATOM     18  C5' C5P d          12.645  14.728  28.395  0.00  0.00     0.217 C 
BRANCH  18  19
ATOM     19  O5' C5P d          12.592  15.706  29.441  0.00  0.00    -0.280 OA
BRANCH  19  20
ATOM     20  P   C5P d          11.552  15.564  30.696  0.00  0.00     0.422 P 
ATOM     21  O3P C5P d          10.240  15.677  29.964  0.00  0.00    -0.617 OA
ATOM     22  O1P C5P d          11.907  16.712  31.624  0.00  0.00    -0.617 OA
ATOM     23  O2P C5P d          11.962  14.183  31.167  0.00  0.00    -0.617 OA
ENDBRANCH  19  20
ENDBRANCH  18  19
ENDBRANCH   1  18
BRANCH   3  24
ATOM     24  O3' C5P d          15.158  13.250  27.937  0.00  0.00    -0.390 OA
ATOM     25  H5  C5P d          15.314  13.268  27.000  0.00  0.00     0.210 HD
ENDBRANCH   3  24
TORSDOF 7
