REMARK  15 active torsions:
REMARK  status: ('A' for Active; 'I' for Inactive)
REMARK    1  A    between atoms: C1_1  and  C2_4 
REMARK    2  A    between atoms: C2_4  and  C3_5 
REMARK    3  A    between atoms: C3_5  and  C4_6 
REMARK    4  A    between atoms: C4_6  and  C5_7 
REMARK    5  A    between atoms: C5_7  and  C6_8 
REMARK    6  A    between atoms: C6_8  and  C7_9 
REMARK    7  A    between atoms: C7_9  and  C8_10 
REMARK    8  A    between atoms: C8_10  and  C9_11 
REMARK    9  A    between atoms: C10_12  and  C11_13 
REMARK   10  A    between atoms: C11_13  and  C12_14 
REMARK   11  A    between atoms: C12_14  and  C13_15 
REMARK   12  A    between atoms: C13_15  and  C14_16 
REMARK   13  A    between atoms: C14_16  and  C15_17 
REMARK   14  A    between atoms: C15_17  and  C16_18 
REMARK   15  A    between atoms: C16_18  and  C17_19 
ROOT
ATOM      1  C8  OLA d          10.379  31.431   8.703  0.00  0.00     0.027 C 
ENDROOT
BRANCH   1   2
ATOM      2  C7  OLA d          10.798  30.632   9.934  0.00  0.00     0.004 C 
BRANCH   2   3
ATOM      3  C6  OLA d          11.949  29.672   9.664  0.00  0.00     0.000 C 
BRANCH   3   4
ATOM      4  C5  OLA d          13.354  30.258   9.863  0.00  0.00     0.000 C 
BRANCH   4   5
ATOM      5  C4  OLA d          13.891  30.983   8.621  0.00  0.00     0.001 C 
BRANCH   5   6
ATOM      6  C3  OLA d          15.432  31.148   8.515  0.00  0.00     0.010 C 
BRANCH   6   7
ATOM      7  C2  OLA d          16.023  30.477   7.264  0.00  0.00     0.113 C 
BRANCH   7   8
ATOM      8  C1  OLA d          16.992  31.263   6.380  0.00  0.00     0.172 C 
ATOM      9  O1  OLA d          17.785  32.115   6.750  0.00  0.00    -0.648 OA
ATOM     10  O2  OLA d          17.037  30.966   5.090  0.00  0.00    -0.648 OA
ENDBRANCH   7   8
ENDBRANCH   6   7
ENDBRANCH   5   6
ENDBRANCH   4   5
ENDBRANCH   3   4
ENDBRANCH   2   3
ENDBRANCH   1   2
BRANCH   1  11
ATOM     11  C9  OLA d           8.918  31.245   8.366  0.00  0.00    -0.031 C 
ATOM     12  C10 OLA d           8.352  31.760   7.264  0.00  0.00    -0.031 C 
BRANCH  12  13
ATOM     13  C11 OLA d           9.104  32.570   6.227  0.00  0.00     0.027 C 
BRANCH  13  14
ATOM     14  C12 OLA d           8.320  33.807   5.783  0.00  0.00     0.004 C 
BRANCH  14  15
ATOM     15  C13 OLA d           8.893  34.463   4.518  0.00  0.00     0.000 C 
BRANCH  15  16
ATOM     16  C14 OLA d          10.226  35.193   4.720  0.00  0.00     0.000 C 
BRANCH  16  17
ATOM     17  C15 OLA d          11.449  34.330   4.385  0.00  0.00     0.000 C 
BRANCH  17  18
ATOM     18  C16 OLA d          12.728  34.890   5.018  0.00  0.00    -0.000 C 
BRANCH  18  19
ATOM     19  C17 OLA d          13.442  33.878   5.921  0.00  0.00    -0.005 C 
ATOM     20  C18 OLA d          14.436  33.081   5.113  0.00  0.00     0.005 C 
ENDBRANCH  18  19
ENDBRANCH  17  18
ENDBRANCH  16  17
ENDBRANCH  15  16
ENDBRANCH  14  15
ENDBRANCH  13  14
ENDBRANCH  12  13
ENDBRANCH   1  11
TORSDOF 15
