REMARK  2 active torsions:
REMARK  status: ('A' for Active; 'I' for Inactive)
REMARK    1  A    between atoms: C4_4  and  S_7 
REMARK    2  A    between atoms: S_7  and  N2_8 
ROOT
ATOM      1  C1  FBW d           4.098  -6.142  14.440  0.00  0.00     0.042 A 
ATOM      2  C2  FBW d           5.449  -6.139  14.774  0.00  0.00     0.117 A 
ATOM      3  C3  FBW d           6.013  -5.062  15.478  0.00  0.00     0.067 A 
ATOM      4  C4  FBW d           5.244  -3.949  15.865  0.00  0.00     0.082 A 
ATOM      5  C5  FBW d           3.875  -3.982  15.505  0.00  0.00     0.025 A 
ATOM      6  C6  FBW d           3.317  -5.057  14.797  0.00  0.00     0.005 A 
ATOM      7  F   FBW d           6.238  -7.195  14.432  0.00  0.00    -0.206 F 
ENDROOT
BRANCH   4   8
ATOM      8  S   FBW d           5.915  -2.688  16.720  0.00  0.00     0.256 S 
ATOM      9  O1  FBW d           5.389  -2.842  18.040  0.00  0.00    -0.201 OA
ATOM     10  O2  FBW d           7.349  -2.807  16.585  0.00  0.00    -0.201 OA
BRANCH   8  11
ATOM     11  N2  FBW d           5.385  -1.309  16.096  0.00  0.00    -0.324 N 
ATOM     12  H5  FBW d           5.684  -0.437  16.484  0.00  0.00     0.169 HD
ATOM     13  H6  FBW d           4.755  -1.321  15.319  0.00  0.00     0.169 HD
ENDBRANCH   8  11
ENDBRANCH   4   8
TORSDOF 2
