REMARK  1 active torsions:
REMARK  status: ('A' for Active; 'I' for Inactive)
REMARK    1  A    between atoms: OAH_8  and  CAI_9 
ROOT
ATOM      1  CAB BZ3 d          15.023  10.681  -0.297  0.00  0.00     0.089 A 
ATOM      2  CAC BZ3 d          14.498   9.820  -4.770  0.00  0.00     0.039 A 
ATOM      3  CAD BZ3 d          13.705  10.486  -0.688  0.00  0.00     0.030 A 
ATOM      4  CAE BZ3 d          15.505  10.079  -3.839  0.00  0.00     0.033 A 
ATOM      5  CAF BZ3 d          12.824   9.986  -3.022  0.00  0.00     0.050 A 
ATOM      6  NAG BZ3 d          15.852  10.552  -1.371  0.00  0.00    -0.365 N 
ATOM      7  CAI BZ3 d          13.167   9.764  -4.361  0.00  0.00     0.069 A 
ATOM      8  CAJ BZ3 d          13.833  10.243  -2.088  0.00  0.00    -0.005 A 
ATOM      9  CAK BZ3 d          15.150  10.294  -2.498  0.00  0.00     0.042 A 
ATOM     10  H9  BZ3 d          16.878  10.639  -1.330  0.00  0.00     0.165 HD
ENDROOT
BRANCH   7  11
ATOM     11  OAH BZ3 d          12.191   9.513  -5.297  0.00  0.00    -0.356 OA
ATOM     12  CAA BZ3 d          10.811   9.479  -4.927  0.00  0.00     0.210 C 
ENDBRANCH   7  11
TORSDOF 1
