REMARK  16 active torsions:
REMARK  status: ('A' for Active; 'I' for Inactive)
REMARK    1  A    between atoms: N1_1  and  CA1_2 
REMARK    2  A    between atoms: CA1_2  and  C1_3 
REMARK    3  A    between atoms: CA1_2  and  CB1_6 
REMARK    4  A    between atoms: CB1_6  and  CG1_7 
REMARK    5  A    between atoms: CG1_7  and  CD1_8 
REMARK    6  A    between atoms: N2_10  and  CA2_11 
REMARK    7  A    between atoms: CA2_11  and  C2_12 
REMARK    8  A    between atoms: CA2_11  and  CB2_14 
REMARK    9  A    between atoms: CB2_14  and  SG2_15 
REMARK   10  A    between atoms: SG2_15  and  C1S_16 
REMARK   11  A    between atoms: C1S_16  and  C2S_17 
REMARK   12  A    between atoms: C2S_17  and  C3S_18 
REMARK   13  A    between atoms: C3S_18  and  C4S_19 
REMARK   14  A    between atoms: C4S_19  and  C5S_20 
REMARK   15  A    between atoms: N3_22  and  CA3_23 
REMARK   16  A    between atoms: CA3_23  and  C3_24 
ROOT
ATOM      1  CA2 GTX d         -12.444  32.453  -6.004  0.00  0.00     0.170 C 
ENDROOT
BRANCH   1   2
ATOM      2  N2  GTX d         -12.845  31.194  -5.394  0.00  0.00    -0.359 N 
ATOM      3  CD1 GTX d         -12.083  30.544  -4.511  0.00  0.00     0.152 C 
ATOM      4  OE1 GTX d         -10.890  31.081  -3.997  0.00  0.00    -0.177 OA
ATOM      5  H9  GTX d         -13.728  30.799  -5.647  0.00  0.00     0.162 HD
BRANCH   3   6
ATOM      6  CG1 GTX d         -12.551  29.178  -4.066  0.00  0.00     0.089 C 
BRANCH   6   7
ATOM      7  CB1 GTX d         -11.381  28.367  -3.499  0.00  0.00     0.052 C 
BRANCH   7   8
ATOM      8  CA1 GTX d         -11.848  27.019  -2.955  0.00  0.00     0.283 C 
BRANCH   8   9
ATOM      9  N1  GTX d         -10.802  26.401  -2.163  0.00  0.00    -0.065 N 
ATOM     10  H1  GTX d         -10.565  27.004  -1.391  0.00  0.00     0.275 HD
ATOM     11  H2  GTX d          -9.987  26.255  -2.738  0.00  0.00     0.275 HD
ATOM     12  H3  GTX d         -11.127  25.515  -1.810  0.00  0.00     0.275 HD
ENDBRANCH   8   9
BRANCH   8  13
ATOM     13  C1  GTX d         -12.202  26.125  -4.103  0.00  0.00     0.204 C 
ATOM     14  O11 GTX d         -11.312  25.512  -4.730  0.00  0.00    -0.646 OA
ATOM     15  O12 GTX d         -13.391  26.002  -4.453  0.00  0.00    -0.646 OA
ENDBRANCH   8  13
ENDBRANCH   7   8
ENDBRANCH   6   7
ENDBRANCH   3   6
ENDBRANCH   1   2
BRANCH   1  16
ATOM     16  C2  GTX d         -13.591  33.408  -6.084  0.00  0.00     0.175 C 
ATOM     17  O2  GTX d         -14.889  32.909  -6.287  0.00  0.00    -0.175 OA
ATOM     18  N3  GTX d         -13.306  34.703  -5.962  0.00  0.00    -0.360 N 
ATOM     19  H26 GTX d         -12.399  34.972  -5.638  0.00  0.00     0.162 HD
BRANCH  18  20
ATOM     20  CA3 GTX d         -14.273  35.736  -6.285  0.00  0.00     0.234 C 
BRANCH  20  21
ATOM     21  C3  GTX d         -14.870  36.312  -5.028  0.00  0.00     0.191 C 
ATOM     22  O31 GTX d         -15.833  37.104  -5.075  0.00  0.00    -0.647 OA
ATOM     23  O32 GTX d         -14.396  36.001  -3.917  0.00  0.00    -0.647 OA
ENDBRANCH  20  21
ENDBRANCH  18  20
ENDBRANCH   1  16
BRANCH   1  24
ATOM     24  CB2 GTX d         -11.836  32.250  -7.398  0.00  0.00     0.107 C 
BRANCH  24  25
ATOM     25  SG2 GTX d         -10.832  30.739  -7.533  0.00  0.00    -0.167 SA
BRANCH  25  26
ATOM     26  C1S GTX d          -9.423  31.575  -6.757  0.00  0.00     0.074 C 
BRANCH  26  27
ATOM     27  C2S GTX d          -8.202  30.674  -6.617  0.00  0.00     0.010 C 
BRANCH  27  28
ATOM     28  C3S GTX d          -7.083  31.190  -7.515  0.00  0.00     0.001 C 
BRANCH  28  29
ATOM     29  C4S GTX d          -6.878  30.282  -8.722  0.00  0.00    -0.000 C 
BRANCH  29  30
ATOM     30  C5S GTX d          -6.335  31.075  -9.906  0.00  0.00    -0.005 C 
ATOM     31  C6S GTX d          -5.373  30.242 -10.749  0.00  0.00     0.005 C 
ENDBRANCH  29  30
ENDBRANCH  28  29
ENDBRANCH  27  28
ENDBRANCH  26  27
ENDBRANCH  25  26
ENDBRANCH  24  25
ENDBRANCH   1  24
TORSDOF 16
