REMARK  3 active torsions:
REMARK  status: ('A' for Active; 'I' for Inactive)
REMARK    1  A    between atoms: C1_1  and  C2_4 
REMARK    2  A    between atoms: C3_5  and  C1'_6 
REMARK    3  A    between atoms: C4'_9  and  O4'_12 
ROOT
ATOM      1  C1' HC4 d           2.124 -19.887  -4.760  0.00  0.00    -0.036 A 
ATOM      2  C2' HC4 d           1.778 -19.819  -3.397  0.00  0.00     0.014 A 
ATOM      3  C3' HC4 d           0.706 -18.968  -3.011  0.00  0.00     0.037 A 
ATOM      4  C4' HC4 d          -0.030 -18.291  -4.010  0.00  0.00     0.065 A 
ATOM      5  C5' HC4 d           0.289 -18.380  -5.376  0.00  0.00     0.037 A 
ATOM      6  C6' HC4 d           1.410 -19.161  -5.732  0.00  0.00     0.014 A 
ENDROOT
BRANCH   1   7
ATOM      7  C3  HC4 d           3.287 -20.745  -5.133  0.00  0.00     0.018 C 
ATOM      8  C2  HC4 d           4.078 -20.304  -6.104  0.00  0.00     0.085 C 
BRANCH   8   9
ATOM      9  C1  HC4 d           5.264 -21.025  -6.583  0.00  0.00     0.198 C 
ATOM     10  O1  HC4 d           6.002 -21.602  -5.729  0.00  0.00    -0.645 OA
ATOM     11  O2  HC4 d           5.494 -21.125  -7.848  0.00  0.00    -0.645 OA
ENDBRANCH   8   9
ENDBRANCH   1   7
BRANCH   4  12
ATOM     12  O4' HC4 d          -1.037 -17.500  -3.562  0.00  0.00    -0.361 OA
ATOM     13  H   HC4 d          -0.859 -16.598  -3.800  0.00  0.00     0.217 HD
ENDBRANCH   4  12
TORSDOF 3
