REMARK  3 active torsions:
REMARK  status: ('A' for Active; 'I' for Inactive)
REMARK    1  A    between atoms: CB_1  and  CG_2 
REMARK    2  A    between atoms: CB_1  and  P_3 
REMARK    3  A    between atoms: CG_2  and  CD_4 
ROOT
ATOM      1  CB  MOL d           0.506  -4.595   9.244  0.00  0.00     0.156 C 
ENDROOT
BRANCH   1   2
ATOM      2  CG  MOL d           1.800  -5.400   9.380  0.00  0.00     0.126 C 
BRANCH   2   3
ATOM      3  CD  MOL d           2.348  -5.814   8.033  0.00  0.00     0.173 C 
ATOM      4  OE1 MOL d           2.894  -6.941   7.917  0.00  0.00    -0.648 OA
ATOM      5  OE2 MOL d           2.240  -4.997   7.091  0.00  0.00    -0.648 OA
ENDBRANCH   2   3
ENDBRANCH   1   2
BRANCH   1   6
ATOM      6  P   MOL d           0.337  -3.435  10.633  0.00  0.00     0.259 P 
ATOM      7  O1  MOL d           1.677  -2.735  10.752  0.00  0.00    -0.640 OA
ATOM      8  O2  MOL d          -0.807  -2.536  10.222  0.00  0.00    -0.640 OA
ATOM      9  O3  MOL d           0.004  -4.300  11.824  0.00  0.00    -0.640 OA
ENDBRANCH   1   6
TORSDOF 3
