REMARK  7 active torsions:
REMARK  status: ('A' for Active; 'I' for Inactive)
REMARK    1  A    between atoms: C6_8  and  C4_9 
REMARK    2  A    between atoms: C4_9  and  PA1_10 
REMARK    3  A    between atoms: C4_9  and  C3_14 
REMARK    4  A    between atoms: C3_14  and  C2_15 
REMARK    5  A    between atoms: C2_15  and  N1_16 
REMARK    6  A    between atoms: N1_16  and  O2_17 
REMARK       I    between atoms: N1_16  and  C1_18 
REMARK    7  A    between atoms: C1_18  and  C12_20 
ROOT
ATOM      1  C4  FM6 d          21.612  20.367 -16.696  0.00  0.00     0.150 C 
ENDROOT
BRANCH   1   2
ATOM      2  C6  FM6 d          21.279  21.172 -17.954  0.00  0.00    -0.039 A 
ATOM      3  C7  FM6 d          22.221  22.020 -18.535  0.00  0.00     0.033 A 
ATOM      4  C8  FM6 d          21.868  22.769 -19.657  0.00  0.00     0.056 A 
ATOM      5 CL1  FM6 d          23.087  23.795 -20.341  0.00  0.00    -0.083 Cl
ATOM      6  C9  FM6 d          20.562  22.669 -20.181  0.00  0.00     0.055 A 
ATOM      7 CL2  FM6 d          20.037  23.566 -21.566  0.00  0.00    -0.083 Cl
ATOM      8  C10 FM6 d          19.624  21.824 -19.587  0.00  0.00     0.026 A 
ATOM      9  C11 FM6 d          19.982  21.082 -18.466  0.00  0.00     0.010 A 
ENDBRANCH   1   2
BRANCH   1  10
ATOM     10  PA1 FM6 d          22.777  18.989 -17.008  0.00  0.00     0.268 P 
ATOM     11  OP1 FM6 d          23.002  18.250 -15.705  0.00  0.00    -0.639 OA
ATOM     12  OP3 FM6 d          22.150  18.065 -18.026  0.00  0.00    -0.639 OA
ATOM     13  OP2 FM6 d          24.103  19.495 -17.515  0.00  0.00    -0.639 OA
ENDBRANCH   1  10
BRANCH   1  14
ATOM     14  C3  FM6 d          22.084  21.355 -15.612  0.00  0.00     0.046 C 
BRANCH  14  15
ATOM     15  C2  FM6 d          20.985  22.424 -15.311  0.00  0.00     0.161 C 
BRANCH  15  16
ATOM     16  N1  FM6 d          19.723  21.708 -15.013  0.00  0.00    -0.225 N 
ATOM     17  C1  FM6 d          18.479  21.994 -15.453  0.00  0.00     0.277 C 
ATOM     18  O1  FM6 d          17.505  21.313 -15.147  0.00  0.00    -0.265 OA
BRANCH  16  19
ATOM     19  O2  FM6 d          19.869  20.627 -14.220  0.00  0.00    -0.285 OA
ATOM     20  H9  FM6 d          19.021  20.225 -14.076  0.00  0.00     0.245 HD
ENDBRANCH  16  19
BRANCH  17  21
ATOM     21  C12 FM6 d          18.219  23.231 -16.327  0.00  0.00     0.034 A 
ATOM     22  C17 FM6 d          18.672  24.493 -15.915  0.00  0.00     0.017 A 
ATOM     23  C16 FM6 d          18.412  25.621 -16.697  0.00  0.00     0.001 A 
ATOM     24  C15 FM6 d          17.665  25.488 -17.871  0.00  0.00     0.000 A 
ATOM     25  C14 FM6 d          17.191  24.237 -18.268  0.00  0.00     0.001 A 
ATOM     26  C13 FM6 d          17.454  23.109 -17.490  0.00  0.00     0.017 A 
ENDBRANCH  17  21
ENDBRANCH  15  16
ENDBRANCH  14  15
ENDBRANCH   1  14
TORSDOF 7
