REMARK  3 active torsions:
REMARK  status: ('A' for Active; 'I' for Inactive)
REMARK    1  A    between atoms: CAT_11  and  CAY_12 
REMARK    2  A    between atoms: CAX_16  and  CAQ_17 
REMARK    3  A    between atoms: CAQ_17  and  CAS_19 
ROOT
ATOM      1  CAY NVX d         -25.085  -8.030  22.472  0.00  0.00     0.057 C 
ATOM      2  CAM NVX d         -23.539  -7.945  22.489  0.00  0.00     0.242 C 
ATOM      3  NAN NVX d         -23.173  -6.584  22.081  0.00  0.00    -0.074 N 
ATOM      4  CAL NVX d         -24.331  -6.028  21.363  0.00  0.00     0.245 C 
ATOM      5  CAX NVX d         -25.434  -7.101  21.275  0.00  0.00     0.096 C 
ATOM      6  H9  NVX d         -22.368  -6.608  21.475  0.00  0.00     0.277 HD
ATOM      7  H10 NVX d         -22.966  -6.023  22.892  0.00  0.00     0.277 HD
ENDROOT
BRANCH   1   8
ATOM      8  CAT NVX d         -25.590  -9.456  22.395  0.00  0.00    -0.049 A 
ATOM      9  CAK NVX d         -25.567 -10.161  21.191  0.00  0.00     0.040 A 
ATOM     10  CAV NVX d         -25.800 -11.541  21.179  0.00  0.00     0.074 A 
ATOM     11  NAO NVX d         -25.723 -12.210  19.955  0.00  0.00    -0.243 NA
ATOM     12  CAW NVX d         -26.058 -12.210  22.382  0.00  0.00     0.061 A 
ATOM     13  CAI NVX d         -25.852 -13.521  19.991  0.00  0.00     0.210 A 
ATOM     14  NAP NVX d         -26.057 -14.248  21.111  0.00  0.00    -0.317 N 
ATOM     15  CAU NVX d         -26.186 -13.674  22.362  0.00  0.00     0.258 A 
ATOM     16  H3  NVX d         -26.118 -15.243  21.032  0.00  0.00     0.169 HD
ATOM     17  OAB NVX d         -26.357 -14.348  23.374  0.00  0.00    -0.267 OA
ATOM     18  CAH NVX d         -26.147 -11.487  23.569  0.00  0.00     0.020 A 
ATOM     19  CAG NVX d         -25.919 -10.125  23.563  0.00  0.00     0.009 A 
ENDBRANCH   1   8
BRANCH   5  20
ATOM     20  CAQ NVX d         -26.828  -6.500  21.330  0.00  0.00     0.166 C 
ATOM     21  OAA NVX d         -27.520  -6.644  22.326  0.00  0.00    -0.292 OA
BRANCH  20  22
ATOM     22  CAS NVX d         -27.320  -5.720  20.158  0.00  0.00     0.012 A 
ATOM     23  CAJ NVX d         -28.549  -5.060  20.133  0.00  0.00     0.039 A 
ATOM     24  CAR NVX d         -28.907  -4.353  19.001  0.00  0.00     0.035 A 
ATOM     25 CL   NVX d         -30.472  -3.608  18.930  0.00  0.00    -0.084 Cl
ATOM     26  CAE NVX d         -28.076  -4.252  17.906  0.00  0.00     0.024 A 
ATOM     27  CAD NVX d         -26.864  -4.916  17.932  0.00  0.00     0.003 A 
ATOM     28  CAF NVX d         -26.491  -5.649  19.043  0.00  0.00     0.015 A 
ENDBRANCH  20  22
ENDBRANCH   5  20
TORSDOF 3
