REMARK  9 active torsions:
REMARK  status: ('A' for Active; 'I' for Inactive)
REMARK    1  A    between atoms: O3A_8  and  PB_1 
REMARK    2  A    between atoms: PA_5  and  O3A_8 
REMARK    3  A    between atoms: PA_5  and  O5_9 
REMARK    4  A    between atoms: O5_9  and  C5_10 
REMARK    5  A    between atoms: C5_10  and  C4_11 
REMARK    6  A    between atoms: C3_13  and  O3_14 
REMARK    7  A    between atoms: C2_15  and  O2_16 
REMARK    8  A    between atoms: C1_17  and  N9_18 
REMARK    9  A    between atoms: C6_22  and  N6_23 
ROOT
ATOM      1  C4  ADP d          10.865  15.142   5.406  0.00  0.00     0.180 C 
ATOM      2  O4  ADP d          11.671  15.011   4.200  0.00  0.00    -0.353 OA
ATOM      3  C3  ADP d           9.783  14.065   5.321  0.00  0.00     0.182 C 
ATOM      4  C2  ADP d          10.410  13.024   4.401  0.00  0.00     0.198 C 
ATOM      5  C1  ADP d          11.222  13.901   3.440  0.00  0.00     0.262 C 
ENDROOT
BRANCH   5   6
ATOM      6  N9  ADP d          12.405  13.235   2.877  0.00  0.00    -0.294 N 
ATOM      7  C8  ADP d          13.257  12.364   3.527  0.00  0.00     0.214 A 
ATOM      8  N7  ADP d          14.239  11.916   2.774  0.00  0.00    -0.236 NA
ATOM      9  C5  ADP d          14.028  12.531   1.549  0.00  0.00     0.149 A 
ATOM     10  C6  ADP d          14.733  12.472   0.319  0.00  0.00     0.155 A 
ATOM     11  C4  ADP d          12.896  13.348   1.593  0.00  0.00     0.167 A 
ATOM     12  N1  ADP d          14.258  13.209  -0.725  0.00  0.00    -0.222 NA
ATOM     13  C2  ADP d          13.146  13.957  -0.536  0.00  0.00     0.237 A 
ATOM     14  N3  ADP d          12.397  14.092   0.578  0.00  0.00    -0.222 NA
BRANCH  10  15
ATOM     15  N6  ADP d          15.832  11.735   0.137  0.00  0.00    -0.382 N 
ATOM     16  H10 ADP d          16.303  11.730  -0.779  0.00  0.00     0.157 HD
ATOM     17  H11 ADP d          16.208  11.171   0.913  0.00  0.00     0.157 HD
ENDBRANCH  10  15
ENDBRANCH   5   6
BRANCH   4  18
ATOM     18  O2  ADP d           9.431  12.258   3.722  0.00  0.00    -0.388 OA
ATOM     19  H7  ADP d           8.890  12.834   3.194  0.00  0.00     0.210 HD
ENDBRANCH   4  18
BRANCH   1  20
ATOM     20  C5  ADP d          11.770  15.078   6.622  0.00  0.00     0.216 C 
BRANCH  20  21
ATOM     21  O5  ADP d          12.456  13.806   6.675  0.00  0.00    -0.287 OA
BRANCH  21  22
ATOM     22  PA  ADP d          14.064  13.720   6.935  0.00  0.00     0.418 P 
ATOM     23  O1A ADP d          14.370  12.249   7.172  0.00  0.00    -0.624 OA
ATOM     24  O2A ADP d          14.724  14.252   5.676  0.00  0.00    -0.624 OA
BRANCH  22  25
ATOM     25  O3A ADP d          14.366  14.604   8.145  0.00  0.00    -0.173 OA
BRANCH  25  26
ATOM     26  PB  ADP d          14.596  14.374   9.630  0.00  0.00     0.431 P 
ATOM     27  O1B ADP d          14.616  15.712  10.348  0.00  0.00    -0.616 OA
ATOM     28  O2B ADP d          15.918  13.671   9.860  0.00  0.00    -0.616 OA
ATOM     29  O3B ADP d          13.444  13.543  10.163  0.00  0.00    -0.616 OA
ENDBRANCH  25  26
ENDBRANCH  22  25
ENDBRANCH  21  22
ENDBRANCH  20  21
ENDBRANCH   1  20
BRANCH   3  30
ATOM     30  O3  ADP d           8.577  14.577   4.748  0.00  0.00    -0.390 OA
ATOM     31  H5  ADP d           7.927  13.885   4.710  0.00  0.00     0.210 HD
ENDBRANCH   3  30
TORSDOF 9
