REMARK  8 active torsions:
REMARK  status: ('A' for Active; 'I' for Inactive)
REMARK    1  A    between atoms: O3A_8  and  PB_1 
REMARK    2  A    between atoms: PA_5  and  O3A_8 
REMARK    3  A    between atoms: PA_5  and  O5'_9 
REMARK    4  A    between atoms: O5'_9  and  C5'_10 
REMARK    5  A    between atoms: C5'_10  and  C4'_11 
REMARK    6  A    between atoms: C3'_13  and  O3'_14 
REMARK    7  A    between atoms: C2'_15  and  O2'_16 
REMARK    8  A    between atoms: C1'_17  and  N9_18 
ROOT
ATOM      1  C4' ADP d          52.907  24.535  47.962  0.00  0.00     0.180 C 
ATOM      2  O4' ADP d          52.391  25.499  47.041  0.00  0.00    -0.353 OA
ATOM      3  C3' ADP d          51.771  24.157  48.906  0.00  0.00     0.182 C 
ATOM      4  C2' ADP d          50.625  25.083  48.556  0.00  0.00     0.198 C 
ATOM      5  C1' ADP d          50.984  25.678  47.205  0.00  0.00     0.262 C 
ENDROOT
BRANCH   5   6
ATOM      6  N9  ADP d          50.243  25.009  46.101  0.00  0.00    -0.294 N 
ATOM      7  C8  ADP d          50.781  24.367  45.045  0.00  0.00     0.214 A 
ATOM      8  N7  ADP d          49.817  23.881  44.225  0.00  0.00    -0.236 NA
ATOM      9  C5  ADP d          48.632  24.215  44.753  0.00  0.00     0.149 A 
ATOM     10  C6  ADP d          47.208  24.021  44.397  0.00  0.00     0.155 A 
ATOM     11  C4  ADP d          48.917  24.957  45.987  0.00  0.00     0.167 A 
ATOM     12  N6  ADP d          46.859  23.349  43.282  0.00  0.00    -0.382 N 
ATOM     13  N1  ADP d          46.271  24.535  45.227  0.00  0.00    -0.222 NA
ATOM     14  H   ADP d          45.864  23.222  43.047  0.00  0.00     0.157 HD
ATOM     15  H   ADP d          47.587  22.962  42.664  0.00  0.00     0.157 HD
ATOM     16  C2  ADP d          46.606  25.207  46.348  0.00  0.00     0.237 A 
ATOM     17  N3  ADP d          47.880  25.418  46.725  0.00  0.00    -0.222 NA
ENDBRANCH   5   6
BRANCH   4  18
ATOM     18  O2' ADP d          50.479  26.122  49.529  0.00  0.00    -0.388 OA
ATOM     19  H   ADP d          50.307  25.736  50.380  0.00  0.00     0.210 HD
ENDBRANCH   4  18
BRANCH   1  20
ATOM     20  C5' ADP d          53.464  23.355  47.176  0.00  0.00     0.216 C 
BRANCH  20  21
ATOM     21  O5' ADP d          53.680  22.250  48.046  0.00  0.00    -0.287 OA
BRANCH  21  22
ATOM     22  PA  ADP d          53.098  20.784  47.726  0.00  0.00     0.418 P 
ATOM     23  O1A ADP d          51.728  20.879  47.090  0.00  0.00    -0.624 OA
ATOM     24  O2A ADP d          53.291  20.010  49.004  0.00  0.00    -0.624 OA
BRANCH  22  25
ATOM     25  O3A ADP d          54.127  20.246  46.613  0.00  0.00    -0.173 OA
BRANCH  25  26
ATOM     26  PB  ADP d          54.109  18.721  46.110  0.00  0.00     0.431 P 
ATOM     27  O1B ADP d          55.164  18.682  45.034  0.00  0.00    -0.616 OA
ATOM     28  O2B ADP d          54.448  17.927  47.347  0.00  0.00    -0.616 OA
ATOM     29  O3B ADP d          52.700  18.532  45.614  0.00  0.00    -0.616 OA
ENDBRANCH  25  26
ENDBRANCH  22  25
ENDBRANCH  21  22
ENDBRANCH  20  21
ENDBRANCH   1  20
BRANCH   3  30
ATOM     30  O3' ADP d          52.155  24.313  50.275  0.00  0.00    -0.390 OA
ATOM     31  H   ADP d          52.392  25.219  50.435  0.00  0.00     0.210 HD
ENDBRANCH   3  30
TORSDOF 8
