REMARK  0 active torsions:
REMARK  status: ('A' for Active; 'I' for Inactive)
ROOT
ATOM      1  CAB A73 d          -7.734  38.161 -12.949  0.00  0.00     0.093 C 
ATOM      2  CAD A73 d          -7.642  37.874 -14.298  0.00  0.00     0.187 C 
ATOM      3  OAH A73 d          -8.419  38.463 -15.051  0.00  0.00    -0.287 OA
ATOM      4  CAE A73 d          -6.769  36.854 -14.706  0.00  0.00     0.048 A 
ATOM      5  CAO A73 d          -6.594  36.523 -16.029  0.00  0.00     0.018 A 
ATOM      6  CAQ A73 d          -5.704  35.488 -16.393  0.00  0.00     0.001 A 
ATOM      7  CAR A73 d          -4.971  34.766 -15.432  0.00  0.00     0.003 A 
ATOM      8  CAP A73 d          -5.161  35.094 -14.088  0.00  0.00     0.038 A 
ATOM      9  CAF A73 d          -6.029  36.129 -13.748  0.00  0.00     0.090 A 
ATOM     10  OAC A73 d          -6.137  36.459 -12.428  0.00  0.00    -0.309 OA
ATOM     11  CAA A73 d          -6.912  37.498 -12.037  0.00  0.00     0.090 C 
ATOM     12  CAG A73 d          -6.931  37.694 -10.653  0.00  0.00    -0.002 A 
ATOM     13  CAI A73 d          -6.248  36.775  -9.848  0.00  0.00     0.015 A 
ATOM     14  CAM A73 d          -6.246  36.935  -8.479  0.00  0.00     0.020 A 
ATOM     15  CAK A73 d          -6.934  38.014  -7.896  0.00  0.00     0.011 A 
ATOM     16 BR1  A73 d          -6.960  38.216  -5.956  0.00  0.00    -0.051 Br
ATOM     17  CAL A73 d          -7.611  38.934  -8.686  0.00  0.00     0.020 A 
ATOM     18  CAJ A73 d          -7.612  38.768 -10.055  0.00  0.00     0.015 A 
ENDROOT
TORSDOF 0
