REMARK  8 active torsions:
REMARK  status: ('A' for Active; 'I' for Inactive)
REMARK    1  A    between atoms: C14_14  and  O1_1 
REMARK    2  A    between atoms: O6_6  and  P5_5 
REMARK    3  A    between atoms: P9_9  and  O6_6 
REMARK    4  A    between atoms: O15_15  and  P9_9 
REMARK    5  A    between atoms: C14_14  and  C10_10 
REMARK    6  A    between atoms: C13_13  and  C12_12 
REMARK    7  A    between atoms: C12_12  and  O15_15 
REMARK    8  A    between atoms: C14_14  and  C13_13 
ROOT
ATOM      1  O15 BHI d           9.620   5.708  13.455  0.00  0.00    -0.289 OA
ENDROOT
BRANCH   1   2
ATOM      2  C12 BHI d           8.875   6.856  13.041  0.00  0.00     0.184 C 
BRANCH   2   3
ATOM      3  C13 BHI d           8.760   7.897  14.170  0.00  0.00     0.065 C 
BRANCH   3   4
ATOM      4  C14 BHI d           9.854   8.986  13.951  0.00  0.00     0.065 C 
ATOM      5  C11 BHI d          11.089   8.268  13.338  0.00  0.00     0.046 C 
BRANCH   4   6
ATOM      6  O1  BHI d           9.357  10.209  13.029  0.00  0.00    -0.389 OA
ATOM      7  H1  BHI d          10.062  10.838  12.931  0.00  0.00     0.210 HD
ENDBRANCH   4   6
BRANCH   4   8
ATOM      8  C10 BHI d          10.335   9.430  15.361  0.00  0.00     0.122 C 
ATOM      9 BR   BHI d           8.729   9.374  16.274  0.00  0.00    -0.093 Br
ENDBRANCH   4   8
ENDBRANCH   3   4
ENDBRANCH   2   3
ENDBRANCH   1   2
BRANCH   1  10
ATOM     10  P9  BHI d          10.627   5.216  12.424  0.00  0.00     0.418 P 
ATOM     11  O8  BHI d          11.717   4.594  13.260  0.00  0.00    -0.624 OA
ATOM     12  O7  BHI d          11.034   6.122  11.538  0.00  0.00    -0.624 OA
BRANCH  10  13
ATOM     13  O6  BHI d           9.944   3.980  11.778  0.00  0.00    -0.173 OA
BRANCH  13  14
ATOM     14  P5  BHI d          10.689   2.652  11.600  0.00  0.00     0.431 P 
ATOM     15  O2  BHI d          11.856   2.865  10.967  0.00  0.00    -0.616 OA
ATOM     16  O4  BHI d          10.959   2.029  12.938  0.00  0.00    -0.616 OA
ATOM     17  O3  BHI d           9.854   1.641  10.865  0.00  0.00    -0.616 OA
ENDBRANCH  13  14
ENDBRANCH  10  13
ENDBRANCH   1  10
TORSDOF 8
