REMARK  11 active torsions:
REMARK  status: ('A' for Active; 'I' for Inactive)
REMARK    1  A    between atoms: N1_1  and  CA1_2 
REMARK    2  A    between atoms: CA1_2  and  C1_3 
REMARK    3  A    between atoms: CA1_2  and  CB1_6 
REMARK    4  A    between atoms: CB1_6  and  CG1_7 
REMARK    5  A    between atoms: CG1_7  and  CD1_8 
REMARK       I    between atoms: CD1_8  and  N2_10 
REMARK    6  A    between atoms: N2_10  and  CA2_11 
REMARK    7  A    between atoms: CA2_11  and  C2_12 
REMARK    8  A    between atoms: CA2_11  and  CB2_14 
REMARK       I    between atoms: C2_12  and  N3_16 
REMARK    9  A    between atoms: CB2_14  and  SG2_15 
REMARK   10  A    between atoms: N3_16  and  CA3_17 
REMARK   11  A    between atoms: CA3_17  and  C3_18 
ROOT
ATOM      1  CD1 GSH d           9.933  35.402  -4.220  0.00  0.00     0.218 C 
ATOM      2  OE1 GSH d           9.105  34.478  -4.125  0.00  0.00    -0.274 OA
ATOM      3  N2  GSH d          11.153  35.239  -4.740  0.00  0.00    -0.347 N 
ATOM      4  H9  GSH d          11.763  36.030  -4.788  0.00  0.00     0.163 HD
ENDROOT
BRANCH   3   5
ATOM      5  CA2 GSH d          11.635  33.950  -5.242  0.00  0.00     0.185 C 
BRANCH   5   6
ATOM      6  C2  GSH d          13.082  33.736  -4.798  0.00  0.00     0.241 C 
ATOM      7  O2  GSH d          13.839  34.700  -4.628  0.00  0.00    -0.271 OA
ATOM      8  N3  GSH d          13.444  32.462  -4.617  0.00  0.00    -0.349 N 
ATOM      9  H14 GSH d          12.772  31.738  -4.775  0.00  0.00     0.163 HD
BRANCH   8  10
ATOM     10  CA3 GSH d          14.790  32.100  -4.196  0.00  0.00     0.235 C 
BRANCH  10  11
ATOM     11  C3  GSH d          14.921  31.648  -2.764  0.00  0.00     0.191 C 
ATOM     12  O31 GSH d          15.946  31.012  -2.442  0.00  0.00    -0.647 OA
ATOM     13  O32 GSH d          14.004  31.932  -1.964  0.00  0.00    -0.647 OA
ENDBRANCH  10  11
ENDBRANCH   8  10
ENDBRANCH   5   6
BRANCH   5  14
ATOM     14  CB2 GSH d          11.569  33.891  -6.780  0.00  0.00     0.105 C 
BRANCH  14  15
ATOM     15  SG2 GSH d          11.427  32.172  -7.405  0.00  0.00    -0.180 SA
ATOM     16  H13 GSH d          11.387  32.184  -8.412  0.00  0.00     0.101 HD
ENDBRANCH  14  15
ENDBRANCH   5  14
ENDBRANCH   3   5
BRANCH   1  17
ATOM     17  CG1 GSH d           9.623  36.811  -3.729  0.00  0.00     0.105 C 
BRANCH  17  18
ATOM     18  CB1 GSH d           8.219  36.967  -3.125  0.00  0.00     0.053 C 
BRANCH  18  19
ATOM     19  CA1 GSH d           7.912  38.373  -2.606  0.00  0.00     0.283 C 
BRANCH  19  20
ATOM     20  N1  GSH d           6.697  38.332  -1.754  0.00  0.00    -0.065 N 
ATOM     21  H1  GSH d           6.845  37.694  -0.988  0.00  0.00     0.275 HD
ATOM     22  H2  GSH d           5.912  38.021  -2.304  0.00  0.00     0.275 HD
ATOM     23  H3  GSH d           6.509  39.254  -1.392  0.00  0.00     0.275 HD
ENDBRANCH  19  20
BRANCH  19  24
ATOM     24  C1  GSH d           7.683  39.344  -3.769  0.00  0.00     0.204 C 
ATOM     25  O11 GSH d           8.671  39.945  -4.245  0.00  0.00    -0.646 OA
ATOM     26  O12 GSH d           6.520  39.498  -4.195  0.00  0.00    -0.646 OA
ENDBRANCH  19  24
ENDBRANCH  18  19
ENDBRANCH  17  18
ENDBRANCH   1  17
TORSDOF 11
