REMARK  4 active torsions:
REMARK  status: ('A' for Active; 'I' for Inactive)
REMARK    1  A    between atoms: N_1  and  CA_2 
REMARK    2  A    between atoms: CA_2  and  C_3 
REMARK    3  A    between atoms: CA_2  and  CB_6 
REMARK    4  A    between atoms: CB_6  and  CG_7 
ROOT
ATOM      1  CB  AMQ d          21.433  19.732  15.552  0.00  0.00     0.089 C 
ENDROOT
BRANCH   1   2
ATOM      2  CA  AMQ d          20.756  19.532  14.166  0.00  0.00     0.287 C 
BRANCH   2   3
ATOM      3  N   AMQ d          20.939  20.780  13.346  0.00  0.00    -0.065 N 
ATOM      4  H1  AMQ d          21.922  20.988  13.266  0.00  0.00     0.275 HD
ATOM      5  H2  AMQ d          20.468  21.549  13.795  0.00  0.00     0.275 HD
ATOM      6  H3  AMQ d          20.550  20.638  12.427  0.00  0.00     0.275 HD
ENDBRANCH   2   3
BRANCH   2   7
ATOM      7  C   AMQ d          19.225  19.194  14.299  0.00  0.00     0.204 C 
ATOM      8  OT1 AMQ d          18.418  19.948  13.735  0.00  0.00    -0.646 OA
ATOM      9  OT2 AMQ d          18.904  18.184  14.960  0.00  0.00    -0.646 OA
ENDBRANCH   2   7
ENDBRANCH   1   2
BRANCH   1  10
ATOM     10  CG  AMQ d          22.919  20.023  15.445  0.00  0.00     0.031 A 
ATOM     11  CD1 AMQ d          23.977  19.077  15.303  0.00  0.00     0.207 A 
ATOM     12  OE1 AMQ d          23.640  17.797  15.260  0.00  0.00    -0.170 OA
ATOM     13  NE1 AMQ d          25.204  19.511  15.221  0.00  0.00    -0.236 N 
ATOM     14  OE2 AMQ d          24.980  20.933  15.320  0.00  0.00    -0.240 OA
ATOM     15  H10 AMQ d          26.059  19.002  15.118  0.00  0.00     0.197 HD
ATOM     16  CD2 AMQ d          23.627  21.188  15.450  0.00  0.00     0.083 A 
ATOM     17  CE2 AMQ d          23.281  22.637  15.559  0.00  0.00     0.079 C 
ENDBRANCH   1  10
TORSDOF 4
