REMARK  5 active torsions:
REMARK  status: ('A' for Active; 'I' for Inactive)
REMARK    1  A    between atoms: N1_1  and  C1'_9 
REMARK    2  A    between atoms: C2'_10  and  O2'_13 
REMARK    3  A    between atoms: C3'_11  and  O3'_14 
REMARK    4  A    between atoms: C4'_12  and  C5'_16 
REMARK    5  A    between atoms: C5'_16  and  O5'_17 
ROOT
ATOM      1  C1' URI d         -19.312  58.673 -34.499  0.00  0.00     0.263 C 
ATOM      2  C2' URI d         -19.816  58.051 -35.800  0.00  0.00     0.198 C 
ATOM      3  C3' URI d         -21.011  57.227 -35.329  0.00  0.00     0.182 C 
ATOM      4  C4' URI d         -20.700  56.912 -33.866  0.00  0.00     0.179 C 
ATOM      5  O4' URI d         -19.589  57.740 -33.470  0.00  0.00    -0.353 OA
ENDROOT
BRANCH   1   6
ATOM      6  N1  URI d         -17.870  58.970 -34.489  0.00  0.00    -0.280 N 
ATOM      7  C2  URI d         -16.967  57.953 -34.759  0.00  0.00     0.331 A 
ATOM      8  N3  URI d         -15.651  58.329 -34.701  0.00  0.00    -0.275 N 
ATOM      9  O2  URI d         -17.303  56.825 -35.090  0.00  0.00    -0.246 OA
ATOM     10  C4  URI d         -15.147  59.552 -34.316  0.00  0.00     0.250 A 
ATOM     11  H1  URI d         -14.980  57.637 -34.968  0.00  0.00     0.173 HD
ATOM     12  C5  URI d         -16.137  60.515 -33.952  0.00  0.00     0.092 A 
ATOM     13  O4  URI d         -13.926  59.718 -34.278  0.00  0.00    -0.268 OA
ATOM     14  C6  URI d         -17.435  60.201 -34.060  0.00  0.00     0.104 A 
ENDBRANCH   1   6
BRANCH   2  15
ATOM     15  O2' URI d         -20.204  59.068 -36.694  0.00  0.00    -0.388 OA
ATOM     16  H8  URI d         -20.818  59.650 -36.262  0.00  0.00     0.210 HD
ENDBRANCH   2  15
BRANCH   3  17
ATOM     17  O3' URI d         -22.231  57.972 -35.464  0.00  0.00    -0.390 OA
ATOM     18  H9  URI d         -22.154  58.792 -34.991  0.00  0.00     0.210 HD
ENDBRANCH   3  17
BRANCH   4  19
ATOM     19  C5' URI d         -20.412  55.464 -33.533  0.00  0.00     0.198 C 
BRANCH  19  20
ATOM     20  O5' URI d         -19.325  54.980 -34.301  0.00  0.00    -0.398 OA
ATOM     21  H12 URI d         -18.551  55.498 -34.114  0.00  0.00     0.209 HD
ENDBRANCH  19  20
ENDBRANCH   4  19
TORSDOF 5
