REMARK  9 active torsions:
REMARK  status: ('A' for Active; 'I' for Inactive)
REMARK    1  A    between atoms: O3A_8  and  PB_1 
REMARK    2  A    between atoms: PA_5  and  O3A_8 
REMARK    3  A    between atoms: PA_5  and  O5'_9 
REMARK    4  A    between atoms: O5'_9  and  C5'_10 
REMARK    5  A    between atoms: C5'_10  and  C4'_11 
REMARK    6  A    between atoms: C3'_13  and  O3'_14 
REMARK    7  A    between atoms: C2'_15  and  O2'_16 
REMARK    8  A    between atoms: C1'_17  and  N9_18 
REMARK    9  A    between atoms: C6_22  and  N6_23 
ROOT
ATOM      1  C4' ADP d          10.199 -14.796   6.154  0.00  0.00     0.180 C 
ATOM      2  O4' ADP d           9.720 -13.574   5.695  0.00  0.00    -0.353 OA
ATOM      3  C3' ADP d           9.015 -15.717   6.309  0.00  0.00     0.182 C 
ATOM      4  C2' ADP d           7.969 -14.758   6.716  0.00  0.00     0.198 C 
ATOM      5  C1' ADP d           8.405 -13.450   6.116  0.00  0.00     0.262 C 
ENDROOT
BRANCH   5   6
ATOM      6  N9  ADP d           7.567 -13.254   4.962  0.00  0.00    -0.294 N 
ATOM      7  C8  ADP d           7.555 -14.031   3.898  0.00  0.00     0.214 A 
ATOM      8  N7  ADP d           6.678 -13.619   3.013  0.00  0.00    -0.236 NA
ATOM      9  C5  ADP d           6.120 -12.559   3.525  0.00  0.00     0.149 A 
ATOM     10  C6  ADP d           5.079 -11.657   3.089  0.00  0.00     0.155 A 
ATOM     11  C4  ADP d           6.702 -12.338   4.823  0.00  0.00     0.167 A 
ATOM     12  N1  ADP d           4.771 -10.696   3.897  0.00  0.00    -0.222 NA
ATOM     13  C2  ADP d           5.364 -10.581   5.068  0.00  0.00     0.237 A 
ATOM     14  N3  ADP d           6.311 -11.346   5.545  0.00  0.00    -0.222 NA
BRANCH  10  15
ATOM     15  N6  ADP d           4.499 -11.821   1.908  0.00  0.00    -0.382 N 
ATOM     16  H   ADP d           3.758 -11.174   1.604  0.00  0.00     0.157 HD
ATOM     17  H   ADP d           4.790 -12.595   1.294  0.00  0.00     0.157 HD
ENDBRANCH  10  15
ENDBRANCH   5   6
BRANCH   4  18
ATOM     18  O2' ADP d           7.959 -14.603   8.086  0.00  0.00    -0.388 OA
ATOM     19  H   ADP d           7.785 -15.442   8.497  0.00  0.00     0.210 HD
ENDBRANCH   4  18
BRANCH   1  20
ATOM     20  C5' ADP d          11.287 -15.309   5.237  0.00  0.00     0.216 C 
BRANCH  20  21
ATOM     21  O5' ADP d          10.813 -15.609   3.986  0.00  0.00    -0.287 OA
BRANCH  21  22
ATOM     22  PA  ADP d          11.108 -16.856   3.195  0.00  0.00     0.418 P 
ATOM     23  O1A ADP d          10.588 -16.590   1.897  0.00  0.00    -0.624 OA
ATOM     24  O2A ADP d          12.520 -17.096   3.348  0.00  0.00    -0.624 OA
BRANCH  22  25
ATOM     25  O3A ADP d          10.248 -17.994   3.782  0.00  0.00    -0.173 OA
BRANCH  25  26
ATOM     26  PB  ADP d          10.621 -19.118   4.732  0.00  0.00     0.431 P 
ATOM     27  O1B ADP d          10.623 -18.527   5.982  0.00  0.00    -0.616 OA
ATOM     28  O2B ADP d           9.661 -20.148   4.599  0.00  0.00    -0.616 OA
ATOM     29  O3B ADP d          11.927 -19.527   4.329  0.00  0.00    -0.616 OA
ENDBRANCH  25  26
ENDBRANCH  22  25
ENDBRANCH  21  22
ENDBRANCH  20  21
ENDBRANCH   1  20
BRANCH   3  30
ATOM     30  O3' ADP d           9.174 -16.749   7.214  0.00  0.00    -0.390 OA
ATOM     31  H   ADP d           9.904 -17.295   6.945  0.00  0.00     0.210 HD
ENDBRANCH   3  30
TORSDOF 9
