REMARK  6 active torsions:
REMARK  status: ('A' for Active; 'I' for Inactive)
REMARK    1  A    between atoms: NAX_5  and  OAY_6 
REMARK    2  A    between atoms: CAP_11  and  NAO_12 
REMARK    3  A    between atoms: NAO_12  and  CAN_13 
REMARK    4  A    between atoms: NAM_15  and  CAL_16 
REMARK    5  A    between atoms: CAD_22  and  SAC_23 
REMARK    6  A    between atoms: SAC_23  and  NAB_26 
ROOT
ATOM      1  CAN MOL d          -3.017   6.173  13.200  0.00  0.00     0.172 C 
ATOM      2  SAT MOL d          -2.845   6.454  14.888  0.00  0.00    -0.041 SA
ATOM      3  NAM MOL d          -3.632   5.076  12.768  0.00  0.00    -0.332 N 
ATOM      4  H21 MOL d          -3.733   4.913  11.787  0.00  0.00     0.168 HD
ENDROOT
BRANCH   1   5
ATOM      5  NAO MOL d          -2.535   7.053  12.327  0.00  0.00    -0.362 N 
ATOM      6  H20 MOL d          -2.635   6.890  11.345  0.00  0.00     0.162 HD
BRANCH   5   7
ATOM      7  CAP MOL d          -1.855   8.265  12.806  0.00  0.00     0.089 C 
ATOM      8  CAQ MOL d          -2.449   9.492  12.111  0.00  0.00     0.071 C 
ATOM      9  CAR MOL d          -1.685  10.744  12.547  0.00  0.00     0.163 C 
ATOM     10  CAS MOL d          -1.780  10.920  14.064  0.00  0.00     0.055 C 
ATOM     11  CAH MOL d          -2.249  11.977  11.838  0.00  0.00     0.055 C 
ATOM     12  NAX MOL d          -0.271  10.593  12.173  0.00  0.00    -0.046 N 
ATOM     13  CAW MOL d           0.331   9.471  12.909  0.00  0.00     0.163 C 
ATOM     14  H9  MOL d           0.224  11.441  12.400  0.00  0.00     0.346 HD
ATOM     15  CAV MOL d           0.143   9.706  14.410  0.00  0.00     0.055 C 
ATOM     16  CAZ MOL d           1.821   9.406  12.570  0.00  0.00     0.055 C 
ATOM     17  CAU MOL d          -0.362   8.174  12.487  0.00  0.00     0.071 C 
BRANCH  12  18
ATOM     18  OAY MOL d          -0.170  10.344  10.738  0.00  0.00    -0.196 OA
ATOM     19  H10 MOL d           0.744  10.247  10.498  0.00  0.00     0.257 HD
ENDBRANCH  12  18
ENDBRANCH   5   7
ENDBRANCH   1   5
BRANCH   3  20
ATOM     20  CAL MOL d          -4.113   4.196  13.642  0.00  0.00     0.056 A 
ATOM     21  CAF MOL d          -5.407   4.338  14.130  0.00  0.00     0.062 A 
ATOM     22  CAE MOL d          -5.911   3.420  15.043  0.00  0.00     0.051 A 
ATOM     23 CLAG MOL d          -6.391   5.659  13.600  0.00  0.00    -0.082 Cl
ATOM     24  CAD MOL d          -5.120   2.359  15.469  0.00  0.00     0.081 A 
ATOM     25  CAJ MOL d          -3.826   2.217  14.982  0.00  0.00     0.027 A 
ATOM     26  CAK MOL d          -3.323   3.136  14.068  0.00  0.00     0.033 A 
BRANCH  24  27
ATOM     27  SAC MOL d          -5.753   1.202  16.619  0.00  0.00     0.256 S 
ATOM     28  OAI MOL d          -7.252   1.257  16.610  0.00  0.00    -0.201 OA
ATOM     29  OAA MOL d          -5.249   1.534  17.992  0.00  0.00    -0.201 OA
BRANCH  27  30
ATOM     30  NAB MOL d          -5.262  -0.297  16.209  0.00  0.00    -0.324 N 
ATOM     31  H25 MOL d          -5.536  -1.082  16.764  0.00  0.00     0.169 HD
ATOM     32  H26 MOL d          -4.687  -0.431  15.402  0.00  0.00     0.169 HD
ENDBRANCH  27  30
ENDBRANCH  24  27
ENDBRANCH   3  20
TORSDOF 6
