REMARK  7 active torsions:
REMARK  status: ('A' for Active; 'I' for Inactive)
REMARK    1  A    between atoms: SG1_1  and  CB1_2 
REMARK    2  A    between atoms: CB1_2  and  CA1_3 
REMARK    3  A    between atoms: CA1_3  and  C_4 
REMARK    4  A    between atoms: CA1_3  and  CB2_6 
REMARK       I    between atoms: C_4  and  N_13 
REMARK    5  A    between atoms: CB2_6  and  CG2_7 
REMARK    6  A    between atoms: N_13  and  CA2_14 
REMARK    7  A    between atoms: CA2_14  and  C1_15 
ROOT
ATOM      1  CA1 TIO d          36.547  42.369  -4.024  0.00  0.00     0.091 C 
ENDROOT
BRANCH   1   2
ATOM      2  CB1 TIO d          35.508  41.909  -5.062  0.00  0.00     0.085 C 
BRANCH   2   3
ATOM      3  SG1 TIO d          35.978  42.596  -6.694  0.00  0.00    -0.181 SA
ATOM      4  H1  TIO d          35.306  42.303  -7.386  0.00  0.00     0.101 HD
ENDBRANCH   2   3
ENDBRANCH   1   2
BRANCH   1   5
ATOM      5  C   TIO d          37.933  41.636  -3.881  0.00  0.00     0.223 C 
ATOM      6  O   TIO d          39.079  42.202  -3.806  0.00  0.00    -0.273 OA
ATOM      7  N   TIO d          37.782  40.314  -3.840  0.00  0.00    -0.351 N 
ATOM      8  H12 TIO d          36.842  39.974  -3.857  0.00  0.00     0.163 HD
BRANCH   7   9
ATOM      9  CA2 TIO d          38.853  39.287  -3.772  0.00  0.00     0.235 C 
BRANCH   9  10
ATOM     10  C1  TIO d          38.603  38.327  -4.987  0.00  0.00     0.191 C 
ATOM     11  O1  TIO d          37.444  38.260  -5.523  0.00  0.00    -0.647 OA
ATOM     12  OH  TIO d          39.547  37.607  -5.440  0.00  0.00    -0.647 OA
ENDBRANCH   9  10
ENDBRANCH   7   9
ENDBRANCH   1   5
BRANCH   1  13
ATOM     13  CB2 TIO d          35.721  42.176  -2.797  0.00  0.00     0.053 C 
BRANCH  13  14
ATOM     14  CG2 TIO d          36.599  42.715  -1.736  0.00  0.00    -0.057 A 
ATOM     15  CD1 TIO d          37.195  43.966  -1.931  0.00  0.00     0.007 A 
ATOM     16  CE1 TIO d          38.020  44.497  -0.944  0.00  0.00     0.001 A 
ATOM     17  CZ  TIO d          38.213  43.731   0.211  0.00  0.00     0.000 A 
ATOM     18  CE2 TIO d          37.644  42.463   0.387  0.00  0.00     0.001 A 
ATOM     19  CD2 TIO d          36.796  41.944  -0.591  0.00  0.00     0.007 A 
ENDBRANCH  13  14
ENDBRANCH   1  13
TORSDOF 7
