REMARK  4 active torsions:
REMARK  status: ('A' for Active; 'I' for Inactive)
REMARK    1  A    between atoms: O4_1  and  C4_2 
REMARK    2  A    between atoms: C3_3  and  O3_4 
REMARK    3  A    between atoms: C5_7  and  C6_8 
REMARK    4  A    between atoms: C6_8  and  O6_9 
ROOT
ATOM      1  C4  AZF d          -1.136  10.632   8.081  0.00  0.00     0.183 C 
ATOM      2  C3  AZF d          -0.317  11.908   8.423  0.00  0.00     0.176 C 
ATOM      3  C2  AZF d           0.182  11.981   9.874  0.00  0.00     0.300 C 
ATOM      4  N   AZF d          -0.837  11.463  10.800  0.00  0.00     0.081 N 
ATOM      5  C5  AZF d          -2.302  10.536   9.062  0.00  0.00     0.272 C 
ATOM      6  N2  AZF d          -1.676  10.419  10.379  0.00  0.00     0.087 N 
ATOM      7  H7  AZF d          -1.432  12.238  11.047  0.00  0.00     0.312 HD
ATOM      8  H8  AZF d          -0.351  11.138  11.621  0.00  0.00     0.312 HD
ATOM      9  H13 AZF d          -2.417  10.336  11.058  0.00  0.00     0.313 HD
ATOM     10  H14 AZF d          -1.127   9.574  10.377  0.00  0.00     0.313 HD
ENDROOT
BRANCH   5  11
ATOM     11  C6  AZF d          -3.241   9.371   8.777  0.00  0.00     0.202 C 
BRANCH  11  12
ATOM     12  O6  AZF d          -2.513   8.150   8.959  0.00  0.00    -0.399 OA
ATOM     13  H12 AZF d          -3.086   7.412   8.785  0.00  0.00     0.209 HD
ENDBRANCH  11  12
ENDBRANCH   5  11
BRANCH   1  14
ATOM     14  O4  AZF d          -1.630  10.658   6.733  0.00  0.00    -0.391 OA
ATOM     15  H1  AZF d          -2.123   9.864   6.562  0.00  0.00     0.210 HD
ENDBRANCH   1  14
BRANCH   2  16
ATOM     16  O3  AZF d           0.815  12.056   7.566  0.00  0.00    -0.391 OA
ATOM     17  H4  AZF d           1.290  12.844   7.804  0.00  0.00     0.210 HD
ENDBRANCH   2  16
TORSDOF 4
