REMARK  2 active torsions:
REMARK  status: ('A' for Active; 'I' for Inactive)
REMARK    1  A    between atoms: C04_4  and  S07_7 
REMARK    2  A    between atoms: S07_7  and  NP0_10 
ROOT
ATOM      1  C01 FB2 d          34.869  -2.135  10.878  0.00  0.00     0.000 A 
ATOM      2  C02 FB2 d          34.300  -3.081  11.728  0.00  0.00     0.002 A 
ATOM      3  C03 FB2 d          33.350  -2.690  12.690  0.00  0.00     0.025 A 
ATOM      4  C04 FB2 d          33.001  -1.319  12.821  0.00  0.00     0.079 A 
ATOM      5  C05 FB2 d          33.563  -0.367  11.965  0.00  0.00     0.025 A 
ATOM      6  C06 FB2 d          34.479  -0.789  10.982  0.00  0.00     0.002 A 
ENDROOT
BRANCH   4   7
ATOM      7  S07 FB2 d          31.732  -0.853  14.103  0.00  0.00     0.256 S 
ATOM      8  O09 FB2 d          31.026   0.395  13.675  0.00  0.00    -0.201 OA
ATOM      9  O08 FB2 d          32.453  -0.646  15.491  0.00  0.00    -0.201 OA
BRANCH   7  10
ATOM     10  NP0 FB2 d          30.847  -2.146  14.095  0.00  0.00    -0.324 N 
ATOM     11  H6  FB2 d          30.052  -2.212  14.698  0.00  0.00     0.169 HD
ATOM     12  H7  FB2 d          31.077  -2.905  13.486  0.00  0.00     0.169 HD
ENDBRANCH   7  10
ENDBRANCH   4   7
TORSDOF 2
