REMARK  14 active torsions:
REMARK  status: ('A' for Active; 'I' for Inactive)
REMARK    1  A    between atoms: C_1  and  C2_4 
REMARK       I    between atoms: N_13  and  C_1 
REMARK    2  A    between atoms: CA_14  and  N_13 
REMARK    3  A    between atoms: C1_15  and  CA_14 
REMARK    4  A    between atoms: CA_14  and  CB_17 
REMARK       I    between atoms: N2_24  and  C1_15 
REMARK    5  A    between atoms: CB_17  and  CG_18 
REMARK       I    between atoms: CG_18  and  ND2_20 
REMARK    6  A    between atoms: C9_21  and  O2_22 
REMARK    7  A    between atoms: CA1_23  and  C9_21 
REMARK    8  A    between atoms: C9_21  and  CM_33 
REMARK    9  A    between atoms: CA1_23  and  N2_24 
REMARK   10  A    between atoms: CA1_23  and  CB1_25 
REMARK   11  A    between atoms: CB1_25  and  CG1_26 
REMARK   12  A    between atoms: CM_33  and  N11_32 
REMARK   13  A    between atoms: C21_34  and  CC_35 
REMARK       I    between atoms: CC_35  and  N3_45 
REMARK   14  A    between atoms: N3_45  and  CD_46 
ROOT
ATOM      1  CA1 ROC d          14.696  -6.911  -9.373  0.00  0.00     0.115 C 
ENDROOT
BRANCH   1   2
ATOM      2  C9  ROC d          13.595  -5.857  -9.384  0.00  0.00     0.166 C 
BRANCH   2   3
ATOM      3  O2  ROC d          13.876  -4.505  -9.482  0.00  0.00    -0.392 OA
ATOM      4  H   ROC d          14.416  -4.241  -8.747  0.00  0.00     0.210 HD
ENDBRANCH   2   3
BRANCH   2   5
ATOM      5  CM  ROC d          12.717  -5.896  -8.148  0.00  0.00     0.269 C 
BRANCH   5   6
ATOM      6  N11 ROC d          11.754  -6.949  -8.648  0.00  0.00    -0.055 N 
ATOM      7  C21 ROC d          10.931  -7.302  -7.455  0.00  0.00     0.279 C 
ATOM      8  C31 ROC d           9.764  -8.288  -7.699  0.00  0.00     0.048 C 
ATOM      9  C3A ROC d           8.491  -7.942  -8.515  0.00  0.00    -0.006 C 
ATOM     10  C41 ROC d           7.678  -9.059  -9.146  0.00  0.00     0.005 C 
ATOM     11  C7A ROC d           9.158  -7.389  -9.740  0.00  0.00     0.016 C 
ATOM     12  C51 ROC d           8.410 -10.225  -9.793  0.00  0.00     0.000 C 
ATOM     13  C61 ROC d           9.111  -9.506 -10.924  0.00  0.00     0.000 C 
ATOM     14  C71 ROC d          10.042  -8.435 -10.383  0.00  0.00     0.007 C 
ATOM     15  C81 ROC d          10.494  -6.681  -9.418  0.00  0.00     0.241 C 
ATOM     16  H   ROC d          12.283  -7.700  -9.062  0.00  0.00     0.281 HD
BRANCH   7  17
ATOM     17  CC  ROC d          12.021  -7.802  -6.483  0.00  0.00     0.249 C 
ATOM     18  O3  ROC d          12.578  -8.845  -6.778  0.00  0.00    -0.271 OA
ATOM     19  N3  ROC d          11.542  -7.461  -5.121  0.00  0.00    -0.351 N 
ATOM     20  H   ROC d          10.769  -6.837  -5.006  0.00  0.00     0.163 HD
BRANCH  19  21
ATOM     21  CD  ROC d          12.213  -8.049  -3.919  0.00  0.00     0.022 C 
ATOM     22  C11 ROC d          13.602  -7.414  -3.964  0.00  0.00     0.037 C 
ATOM     23  C22 ROC d          12.545  -9.527  -3.870  0.00  0.00     0.037 C 
ATOM     24  C32 ROC d          11.580  -7.429  -2.715  0.00  0.00     0.037 C 
ENDBRANCH  19  21
ENDBRANCH   7  17
ENDBRANCH   5   6
ENDBRANCH   2   5
ENDBRANCH   1   2
BRANCH   1  25
ATOM     25  N2  ROC d          15.361  -6.867 -10.691  0.00  0.00    -0.352 N 
ATOM     26  C1  ROC d          14.979  -8.025 -11.550  0.00  0.00     0.241 C 
ATOM     27  O1  ROC d          14.534  -9.116 -11.230  0.00  0.00    -0.271 OA
ATOM     28  H   ROC d          15.993  -6.146 -10.974  0.00  0.00     0.163 HD
BRANCH  26  29
ATOM     29  CA  ROC d          15.574  -8.041 -12.951  0.00  0.00     0.185 C 
BRANCH  29  30
ATOM     30  N   ROC d          16.913  -8.515 -12.571  0.00  0.00    -0.342 N 
ATOM     31  C   ROC d          18.054  -7.648 -12.868  0.00  0.00     0.268 C 
ATOM     32  O   ROC d          18.098  -6.723 -13.686  0.00  0.00    -0.266 OA
ATOM     33  H   ROC d          17.040  -9.401 -12.124  0.00  0.00     0.163 HD
BRANCH  31  34
ATOM     34  C2  ROC d          19.170  -8.642 -12.445  0.00  0.00     0.097 C 
ATOM     35  N1  ROC d          19.682  -9.714 -11.801  0.00  0.00    -0.352 N 
ATOM     36  C8A ROC d          20.606 -10.715 -11.731  0.00  0.00     0.039 C 
ATOM     37  H   ROC d          19.094  -9.831 -10.963  0.00  0.00     0.166 HD
ATOM     38  C8  ROC d          20.505 -11.738 -10.794  0.00  0.00     0.030 C 
ATOM     39  C4A ROC d          21.695  -9.956 -12.170  0.00  0.00    -0.028 C 
ATOM     40  C7  ROC d          21.843 -11.736 -10.417  0.00  0.00     0.002 C 
ATOM     41  C6  ROC d          23.149 -11.297 -10.662  0.00  0.00     0.001 C 
ATOM     42  C5  ROC d          22.908 -10.282 -11.554  0.00  0.00     0.010 C 
ATOM     43  C4  ROC d          21.642  -8.663 -12.674  0.00  0.00     0.070 C 
ATOM     44  C3  ROC d          20.388  -8.013 -12.640  0.00  0.00     0.013 C 
ENDBRANCH  31  34
ENDBRANCH  29  30
BRANCH  29  45
ATOM     45  CB  ROC d          14.908  -9.095 -13.793  0.00  0.00     0.137 C 
BRANCH  45  46
ATOM     46  CG  ROC d          15.400  -8.509 -15.097  0.00  0.00     0.217 C 
ATOM     47  OD1 ROC d          15.666  -7.410 -15.549  0.00  0.00    -0.274 OA
ATOM     48  ND2 ROC d          16.132  -9.301 -16.066  0.00  0.00    -0.370 N 
ATOM     49  H   ROC d          16.444  -8.884 -16.919  0.00  0.00     0.159 HD
ATOM     50  H   ROC d          16.325 -10.265 -15.881  0.00  0.00     0.159 HD
ENDBRANCH  45  46
ENDBRANCH  29  45
ENDBRANCH  26  29
ENDBRANCH   1  25
BRANCH   1  51
ATOM     51  CB1 ROC d          15.783  -6.336  -8.485  0.00  0.00     0.036 C 
BRANCH  51  52
ATOM     52  CG1 ROC d          17.155  -6.926  -8.626  0.00  0.00     0.010 C 
ATOM     53  CD1 ROC d          17.100  -8.126  -7.934  0.00  0.00    -0.026 C 
ATOM     54  CE1 ROC d          18.040  -9.160  -8.072  0.00  0.00    -0.030 C 
ATOM     55  CZ  ROC d          19.296  -8.849  -8.545  0.00  0.00     0.027 C 
ATOM     56  CE2 ROC d          19.236  -7.648  -9.232  0.00  0.00     0.004 C 
ATOM     57  CD2 ROC d          18.456  -6.533  -8.920  0.00  0.00     0.009 C 
ENDBRANCH  51  52
ENDBRANCH   1  51
TORSDOF 14
