REMARK  7 active torsions:
REMARK  status: ('A' for Active; 'I' for Inactive)
REMARK       I    between atoms: C2_2  and  N1_7 
REMARK       I    between atoms: N2_24  and  C2_2 
REMARK    1  A    between atoms: N2_24  and  C3_3 
REMARK    2  A    between atoms: C7_8  and  C9_11 
REMARK    3  A    between atoms: C11_13  and  O4_28 
REMARK    4  A    between atoms: C12_14  and  C13_15 
REMARK    5  A    between atoms: C14_16  and  C15_17 
REMARK    6  A    between atoms: O4_28  and  C14_16 
REMARK    7  A    between atoms: C16_18  and  N2_24 
ROOT
ATOM      1  C3  MOL d          47.321   9.403   0.350  0.00  0.00     0.040 A 
ATOM      2  C4  MOL d          46.234   8.667  -0.141  0.00  0.00     0.030 A 
ATOM      3  C5  MOL d          44.957   9.231  -0.153  0.00  0.00     0.003 A 
ATOM      4  C6  MOL d          44.746  10.524   0.324  0.00  0.00     0.013 A 
ATOM      5  C7  MOL d          45.818  11.274   0.815  0.00  0.00    -0.015 A 
ATOM      6  C8  MOL d          47.097  10.707   0.826  0.00  0.00     0.042 A 
ENDROOT
BRANCH   5   7
ATOM      7  C9  MOL d          45.611  12.634   1.310  0.00  0.00     0.036 A 
ATOM      8  C10 MOL d          46.175  13.316   2.368  0.00  0.00     0.064 A 
ATOM      9  C11 MOL d          45.683  14.645   2.520  0.00  0.00     0.112 A 
ATOM     10 BR1  MOL d          47.423  12.586   3.586  0.00  0.00    -0.047 Br
ATOM     11  C12 MOL d          44.793  14.956   1.508  0.00  0.00     0.117 A 
ATOM     12  S1  MOL d          44.522  13.642   0.452  0.00  0.00    -0.078 SA
BRANCH   9  13
ATOM     13  O4  MOL d          46.074  15.520   3.491  0.00  0.00    -0.338 OA
BRANCH  13  14
ATOM     14  C14 MOL d          47.322  16.189   3.257  0.00  0.00     0.288 C 
BRANCH  14  15
ATOM     15  C15 MOL d          47.636  17.007   4.518  0.00  0.00     0.198 C 
ATOM     16  O5  MOL d          46.751  17.008   5.422  0.00  0.00    -0.646 OA
ATOM     17  O6  MOL d          48.758  17.588   4.516  0.00  0.00    -0.646 OA
ENDBRANCH  14  15
ENDBRANCH  13  14
ENDBRANCH   9  13
BRANCH  11  18
ATOM     18  C13 MOL d          44.037  16.311   1.273  0.00  0.00     0.219 C 
ATOM     19  O2  MOL d          43.898  17.105   2.249  0.00  0.00    -0.643 OA
ATOM     20  O3  MOL d          43.633  16.493   0.083  0.00  0.00    -0.643 OA
ENDBRANCH  11  18
ENDBRANCH   5   7
BRANCH   1  21
ATOM     21  N2  MOL d          48.656   8.864   0.380  0.00  0.00    -0.295 N 
ATOM     22  C2  MOL d          49.641   9.277  -0.553  0.00  0.00     0.322 C 
ATOM     23  N1  MOL d          49.195  10.214  -1.483  0.00  0.00    -0.347 N 
ATOM     24  O1  MOL d          50.801   8.858  -0.566  0.00  0.00    -0.247 OA
ATOM     25  C1  MOL d          50.057  10.754  -2.509  0.00  0.00     0.151 C 
ATOM     26  H7  MOL d          48.245  10.524  -1.439  0.00  0.00     0.163 HD
BRANCH  21  27
ATOM     27  C16 MOL d          48.996   7.873   1.445  0.00  0.00     0.095 C 
ATOM     28  C17 MOL d          48.867   6.400   1.009  0.00  0.00     0.026 C 
ATOM     29  C18 MOL d          48.075   5.573   2.021  0.00  0.00     0.002 C 
ATOM     30  C19 MOL d          48.602   5.717   3.448  0.00  0.00     0.000 C 
ATOM     31  C20 MOL d          48.784   7.176   3.862  0.00  0.00     0.002 C 
ATOM     32  C21 MOL d          48.294   8.143   2.784  0.00  0.00     0.026 C 
ENDBRANCH  21  27
ENDBRANCH   1  21
TORSDOF 7
