REMARK  0 active torsions:
REMARK  status: ('A' for Active; 'I' for Inactive)
ROOT
ATOM      1 CL   MOL d         -20.693 -45.147 -12.405  0.00  0.00    -0.084 Cl
ATOM      2  NAC MOL d         -19.181 -50.765 -11.478  0.00  0.00    -0.323 N 
ATOM      3  CAA MOL d         -19.524 -49.424 -11.691  0.00  0.00     0.045 A 
ATOM      4  CAD MOL d         -18.552 -48.444 -11.649  0.00  0.00     0.032 A 
ATOM      5  CAI MOL d         -18.929 -47.133 -11.871  0.00  0.00     0.026 A 
ATOM      6  CAK MOL d         -20.249 -46.804 -12.115  0.00  0.00     0.035 A 
ATOM      7  CAF MOL d         -21.217 -47.787 -12.133  0.00  0.00     0.037 A 
ATOM      8  CAB MOL d         -20.844 -49.101 -11.921  0.00  0.00    -0.008 A 
ATOM      9  CAE MOL d         -21.846 -50.149 -11.941  0.00  0.00     0.019 A 
ATOM     10  CAJ MOL d         -21.534 -51.434 -11.737  0.00  0.00     0.075 A 
ATOM     11  CAG MOL d         -20.112 -51.795 -11.492  0.00  0.00     0.245 A 
ATOM     12  OAL MOL d         -19.836 -52.976 -11.314  0.00  0.00    -0.268 OA
ATOM     13  H1  MOL d         -18.222 -50.991 -11.308  0.00  0.00     0.169 HD
ENDROOT
TORSDOF 0
