REMARK  8 active torsions:
REMARK  status: ('A' for Active; 'I' for Inactive)
REMARK    1  A    between atoms: C8_5  and  C10_7 
REMARK    2  A    between atoms: C10_7  and  C11_8 
REMARK    3  A    between atoms: C11_8  and  C12_9 
REMARK    4  A    between atoms: C12_9  and  C13_10 
REMARK    5  A    between atoms: N16_13  and  C23_20 
REMARK    6  A    between atoms: C23_20  and  C24_21 
REMARK    7  A    between atoms: C24_21  and  C25_22 
REMARK    8  A    between atoms: C25_22  and  S26_23 
ROOT
ATOM      1  C13 DIW d          28.658  -1.821  -5.662  0.00  0.00    -0.041 A 
ATOM      2  C14 DIW d          29.311  -1.727  -4.422  0.00  0.00    -0.003 A 
ATOM      3  C15 DIW d          30.710  -1.680  -4.355  0.00  0.00     0.045 A 
ATOM      4  N16 DIW d          31.451  -1.722  -5.486  0.00  0.00    -0.356 N 
ATOM      5  C17 DIW d          30.836  -1.853  -6.674  0.00  0.00     0.092 A 
ATOM      6  C18 DIW d          29.450  -1.907  -6.796  0.00  0.00     0.025 A 
ATOM      7  C19 DIW d          31.330  -1.558  -3.112  0.00  0.00     0.030 A 
ATOM      8  C20 DIW d          30.588  -1.480  -1.936  0.00  0.00     0.002 A 
ATOM      9  C21 DIW d          29.199  -1.533  -2.001  0.00  0.00     0.001 A 
ATOM     10  C22 DIW d          28.571  -1.652  -3.242  0.00  0.00     0.014 A 
ENDROOT
BRANCH   1  11
ATOM     11  C12 DIW d          27.167  -1.926  -5.745  0.00  0.00     0.066 C 
BRANCH  11  12
ATOM     12  C11 DIW d          26.402  -2.136  -6.842  0.00  0.00    -0.020 C 
BRANCH  12  13
ATOM     13  C10 DIW d          25.113  -2.226  -6.509  0.00  0.00     0.022 C 
BRANCH  13  14
ATOM     14  C8  DIW d          24.067  -2.444  -7.568  0.00  0.00     0.024 A 
ATOM     15  N7  DIW d          22.753  -2.544  -7.281  0.00  0.00    -0.353 N 
ATOM     16  C3  DIW d          22.043  -2.725  -8.430  0.00  0.00     0.041 A 
ATOM     17  C29 DIW d          22.168  -2.466  -5.916  0.00  0.00     0.156 C 
ATOM     18  C   DIW d          20.678  -2.890  -8.681  0.00  0.00     0.030 A 
ATOM     19  C2  DIW d          22.936  -2.741  -9.487  0.00  0.00    -0.017 A 
ATOM     20  C30 DIW d          20.193  -3.070  -9.980  0.00  0.00     0.002 A 
ATOM     21  C31 DIW d          21.094  -3.084 -11.044  0.00  0.00     0.001 A 
ATOM     22  C32 DIW d          22.464  -2.920 -10.799  0.00  0.00     0.010 A 
ATOM     23  C9  DIW d          24.352  -2.542  -9.031  0.00  0.00     0.024 A 
ATOM     24  C27 DIW d          25.308  -3.680  -9.384  0.00  0.00     0.027 C 
ATOM     25  C28 DIW d          24.850  -1.173  -9.516  0.00  0.00     0.027 C 
ENDBRANCH  13  14
ENDBRANCH  12  13
ENDBRANCH  11  12
ENDBRANCH   1  11
BRANCH   4  26
ATOM     26  C23 DIW d          32.931  -1.720  -5.472  0.00  0.00     0.129 C 
BRANCH  26  27
ATOM     27  C24 DIW d          33.648  -0.574  -4.768  0.00  0.00     0.038 C 
BRANCH  27  28
ATOM     28  C25 DIW d          34.790  -1.063  -3.862  0.00  0.00     0.167 C 
BRANCH  28  29
ATOM     29  S26 DIW d          36.195  -1.481  -4.671  0.00  0.00     0.101 S 
ATOM     30  O30 DIW d          37.157  -2.032  -3.699  0.00  0.00    -0.595 OA
ATOM     31  O31 DIW d          36.800  -0.298  -5.319  0.00  0.00    -0.595 OA
ATOM     32  O32 DIW d          35.940  -2.508  -5.697  0.00  0.00    -0.595 OA
ENDBRANCH  28  29
ENDBRANCH  27  28
ENDBRANCH  26  27
ENDBRANCH   4  26
TORSDOF 8
