REMARK  9 active torsions:
REMARK  status: ('A' for Active; 'I' for Inactive)
REMARK    1  A    between atoms: N1_3  and  O1_1 
REMARK       I    between atoms: N1_3  and  C1_4 
REMARK    2  A    between atoms: C1_4  and  C2_5 
REMARK    3  A    between atoms: C2_5  and  C3_6 
REMARK    4  A    between atoms: C3_6  and  C4_7 
REMARK    5  A    between atoms: C4_7  and  C5_8 
REMARK    6  A    between atoms: C5_8  and  C6_9 
REMARK    7  A    between atoms: C6_9  and  C7_10 
REMARK    8  A    between atoms: C7_10  and  C8_11 
REMARK       I    between atoms: C8_11  and  N2_13 
REMARK    9  A    between atoms: N2_13  and  C9_14 
ROOT
ATOM      1  C6  SHH d          27.325 -17.005  -0.024  0.00  0.00     0.009 C 
ENDROOT
BRANCH   1   2
ATOM      2  C5  SHH d          25.972 -16.715  -0.701  0.00  0.00     0.000 C 
BRANCH   2   3
ATOM      3  C4  SHH d          24.933 -17.701  -0.133  0.00  0.00     0.000 C 
BRANCH   3   4
ATOM      4  C3  SHH d          23.558 -17.483  -0.789  0.00  0.00     0.009 C 
BRANCH   4   5
ATOM      5  C2  SHH d          22.597 -18.546  -0.195  0.00  0.00     0.105 C 
BRANCH   5   6
ATOM      6  C1  SHH d          21.257 -18.620  -0.886  0.00  0.00     0.240 C 
ATOM      7  O2  SHH d          20.493 -17.663  -0.936  0.00  0.00    -0.271 OA
ATOM      8  N1  SHH d          20.883 -19.782  -1.456  0.00  0.00    -0.237 N 
ATOM      9  H2  SHH d          21.495 -20.573  -1.425  0.00  0.00     0.197 HD
BRANCH   8  10
ATOM     10  O1  SHH d          19.636 -19.886  -2.094  0.00  0.00    -0.287 OA
ATOM     11  H1  SHH d          19.530 -20.765  -2.439  0.00  0.00     0.244 HD
ENDBRANCH   8  10
ENDBRANCH   5   6
ENDBRANCH   4   5
ENDBRANCH   3   4
ENDBRANCH   2   3
ENDBRANCH   1   2
BRANCH   1  12
ATOM     12  C7  SHH d          28.304 -15.828  -0.183  0.00  0.00     0.103 C 
BRANCH  12  13
ATOM     13  C8  SHH d          28.010 -14.702   0.779  0.00  0.00     0.222 C 
ATOM     14  O3  SHH d          27.461 -13.712   0.333  0.00  0.00    -0.273 OA
ATOM     15  N2  SHH d          28.377 -14.832   2.094  0.00  0.00    -0.327 N 
ATOM     16  H15 SHH d          28.779 -15.714   2.339  0.00  0.00     0.169 HD
BRANCH  15  17
ATOM     17  C9  SHH d          28.270 -13.899   3.158  0.00  0.00     0.034 A 
ATOM     18  C10 SHH d          28.005 -12.534   2.969  0.00  0.00     0.029 A 
ATOM     19  C11 SHH d          28.001 -11.658   4.055  0.00  0.00     0.002 A 
ATOM     20  C12 SHH d          28.266 -12.130   5.340  0.00  0.00     0.000 A 
ATOM     21  C13 SHH d          28.553 -13.478   5.537  0.00  0.00     0.002 A 
ATOM     22  C14 SHH d          28.581 -14.346   4.451  0.00  0.00     0.029 A 
ENDBRANCH  15  17
ENDBRANCH  12  13
ENDBRANCH   1  12
TORSDOF 9
