REMARK  9 active torsions:
REMARK  status: ('A' for Active; 'I' for Inactive)
REMARK    1  A    between atoms: CAM_13  and  CAD_4 
REMARK    2  A    between atoms: CAU_21  and  CAM_13 
REMARK    3  A    between atoms: CAN_14  and  CAO_15 
REMARK    4  A    between atoms: CAP_16  and  CAN_14 
REMARK    5  A    between atoms: CAO_15  and  NAQ_17 
REMARK    6  A    between atoms: OAR_18  and  CAP_16 
REMARK    7  A    between atoms: NAQ_17  and  CAW_23 
REMARK    8  A    between atoms: CAV_22  and  OAR_18 
REMARK    9  A    between atoms: CAS_19  and  CAT_20 
ROOT
ATOM      1  CAJ MOL d          56.372  17.978  51.846  0.00  0.00     0.015 A 
ATOM      2  CAK MOL d          55.835  16.696  51.720  0.00  0.00     0.038 A 
ATOM      3  CAL MOL d          56.821  17.511  54.143  0.00  0.00     0.022 A 
ATOM      4  CAT MOL d          56.894  18.393  53.066  0.00  0.00    -0.025 A 
ATOM      5  CAU MOL d          56.280  16.226  54.049  0.00  0.00    -0.021 A 
ATOM      6  CAV MOL d          55.802  15.816  52.803  0.00  0.00     0.075 A 
ENDROOT
BRANCH   6   7
ATOM      7  OAR MOL d          55.229  14.583  52.674  0.00  0.00    -0.351 OA
BRANCH   7   8
ATOM      8  CAP MOL d          55.913  13.592  51.926  0.00  0.00     0.177 C 
BRANCH   8   9
ATOM      9  CAN MOL d          55.034  12.345  51.816  0.00  0.00     0.054 C 
BRANCH   9  10
ATOM     10  CAO MOL d          54.601  11.874  53.207  0.00  0.00     0.235 C 
BRANCH  10  11
ATOM     11  NAQ MOL d          53.721  10.703  53.061  0.00  0.00    -0.072 N 
ATOM     12  H26 MOL d          54.166  10.057  52.429  0.00  0.00     0.277 HD
ATOM     13  H27 MOL d          52.850  11.017  52.663  0.00  0.00     0.277 HD
BRANCH  11  14
ATOM     14  CAW MOL d          53.415   9.979  54.311  0.00  0.00     0.177 C 
ATOM     15  CAB MOL d          52.654   8.707  53.929  0.00  0.00     0.039 C 
ATOM     16  CAC MOL d          52.575  10.884  55.205  0.00  0.00     0.039 C 
ENDBRANCH  11  14
ENDBRANCH  10  11
ENDBRANCH   9  10
ENDBRANCH   8   9
ENDBRANCH   7   8
ENDBRANCH   6   7
BRANCH   5  17
ATOM     17  CAM MOL d          56.224  15.303  55.283  0.00  0.00     0.067 C 
BRANCH  17  18
ATOM     18  CAD MOL d          56.943  15.741  56.407  0.00  0.00    -0.032 C 
ATOM     19  CAA MOL d          56.378  16.293  57.543  0.00  0.00     0.007 C 
ENDBRANCH  17  18
ENDBRANCH   5  17
BRANCH   4  20
ATOM     20  CAS MOL d          57.381  19.703  53.254  0.00  0.00    -0.026 A 
ATOM     21  CAH MOL d          57.047  20.773  52.415  0.00  0.00     0.012 A 
ATOM     22  CAF MOL d          57.463  22.076  52.632  0.00  0.00     0.001 A 
ATOM     23  CAE MOL d          58.242  22.358  53.727  0.00  0.00     0.000 A 
ATOM     24  CAG MOL d          58.546  21.331  54.609  0.00  0.00     0.001 A 
ATOM     25  CAI MOL d          58.122  20.027  54.381  0.00  0.00     0.012 A 
ENDBRANCH   4  20
TORSDOF 9
