REMARK  5 active torsions:
REMARK  status: ('A' for Active; 'I' for Inactive)
REMARK    1  A    between atoms: C7_7  and  C8_8 
REMARK    2  A    between atoms: C18_18  and  N19_19 
REMARK    3  A    between atoms: N19_19  and  C20_20 
REMARK    4  A    between atoms: C25_25  and  S26_26 
REMARK    5  A    between atoms: S26_26  and  N29_29 
ROOT
ATOM      1  C1  PQC d          18.849  -7.586   4.272  0.00  0.00     0.052 C 
ATOM      2  C2  PQC d          19.819  -6.901   3.153  0.00  0.00     0.047 C 
ATOM      3  C3  PQC d          19.572  -8.620   5.196  0.00  0.00    -0.004 A 
ATOM      4  C4  PQC d          20.982  -8.979   5.087  0.00  0.00     0.008 A 
ATOM      5  C5  PQC d          21.440  -9.942   6.065  0.00  0.00     0.034 A 
ATOM      6  S6  PQC d          18.882  -9.527   6.525  0.00  0.00    -0.093 SA
ATOM      7  C7  PQC d          20.338 -10.316   6.934  0.00  0.00     0.016 A 
ATOM      8  C13 PQC d          21.874  -8.448   4.040  0.00  0.00     0.095 A 
ATOM      9  C14 PQC d          21.282  -7.462   3.017  0.00  0.00    -0.009 A 
ATOM     10  C15 PQC d          22.123  -7.078   2.019  0.00  0.00     0.145 A 
ATOM     11  N16 PQC d          23.422  -7.504   1.914  0.00  0.00    -0.074 NA
ATOM     12  N17 PQC d          23.285  -8.879   3.909  0.00  0.00    -0.061 NA
ATOM     13  C18 PQC d          24.003  -8.383   2.824  0.00  0.00     0.727 A 
ENDROOT
BRANCH  13  14
ATOM     14  N19 PQC d          25.368  -8.695   2.696  0.00  0.00    -0.188 N 
ATOM     15  H11 PQC d          25.938  -8.153   2.031  0.00  0.00     0.184 HD
BRANCH  14  16
ATOM     16  C20 PQC d          26.016  -9.765   3.474  0.00  0.00     0.050 A 
ATOM     17  C21 PQC d          25.584 -10.275   4.807  0.00  0.00     0.055 A 
ATOM     18  C25 PQC d          26.449 -11.230   5.548  0.00  0.00     0.081 A 
ATOM     19  C24 PQC d          27.758 -11.638   4.923  0.00  0.00     0.025 A 
ATOM     20  C23 PQC d          28.210 -11.170   3.663  0.00  0.00     0.004 A 
ATOM     21  C22 PQC d          27.301 -10.260   3.033  0.00  0.00     0.030 A 
BRANCH  18  22
ATOM     22  S26 PQC d          26.065 -11.856   7.186  0.00  0.00     0.256 S 
ATOM     23  O27 PQC d          27.355 -12.457   7.780  0.00  0.00    -0.201 OA
ATOM     24  O28 PQC d          24.807 -12.458   7.150  0.00  0.00    -0.201 OA
BRANCH  22  25
ATOM     25  N29 PQC d          25.699 -10.352   8.187  0.00  0.00    -0.324 N 
ATOM     26  H16 PQC d          25.453 -10.441   9.152  0.00  0.00     0.169 HD
ATOM     27  H17 PQC d          25.746  -9.447   7.765  0.00  0.00     0.169 HD
ENDBRANCH  22  25
ENDBRANCH  18  22
ENDBRANCH  14  16
ENDBRANCH  13  14
BRANCH   7  28
ATOM     28  C8  PQC d          20.456 -11.231   8.067  0.00  0.00    -0.019 A 
ATOM     29  C9  PQC d          19.300 -11.378   8.943  0.00  0.00     0.013 A 
ATOM     30  C30 PQC d          19.362 -12.179  10.107  0.00  0.00     0.001 A 
ATOM     31  C12 PQC d          20.578 -12.879  10.432  0.00  0.00     0.000 A 
ATOM     32  C11 PQC d          21.739 -12.741   9.555  0.00  0.00     0.001 A 
ATOM     33  C10 PQC d          21.701 -11.928   8.368  0.00  0.00     0.013 A 
ENDBRANCH   7  28
TORSDOF 5
