REMARK  10 active torsions:
REMARK  status: ('A' for Active; 'I' for Inactive)
REMARK    1  A    between atoms: O3B_8  and  PG_1 
REMARK    2  A    between atoms: PB_5  and  O3B_8 
REMARK    3  A    between atoms: O3A_12  and  PB_5 
REMARK    4  A    between atoms: PA_9  and  O3A_12 
REMARK    5  A    between atoms: PA_9  and  O5'_13 
REMARK    6  A    between atoms: O5'_13  and  C5'_14 
REMARK    7  A    between atoms: C5'_14  and  C4'_15 
REMARK    8  A    between atoms: C3'_17  and  O3'_18 
REMARK    9  A    between atoms: C2'_19  and  O2'_20 
REMARK   10  A    between atoms: C1'_21  and  N9_22 
ROOT
ATOM      1  C4' ATP d         -14.145   0.358  10.645  0.00  0.00     0.180 C 
ATOM      2  O4' ATP d         -15.176  -0.480  11.168  0.00  0.00    -0.353 OA
ATOM      3  C3' ATP d         -14.522   1.791  10.984  0.00  0.00     0.182 C 
ATOM      4  C2' ATP d         -15.997   1.749  11.331  0.00  0.00     0.198 C 
ATOM      5  C1' ATP d         -16.377   0.276  11.321  0.00  0.00     0.262 C 
ENDROOT
BRANCH   1   6
ATOM      6  C5' ATP d         -12.796  -0.044  11.222  0.00  0.00     0.216 C 
BRANCH   6   7
ATOM      7  O5' ATP d         -12.379  -1.207  10.517  0.00  0.00    -0.287 OA
BRANCH   7   8
ATOM      8  PA  ATP d         -10.988  -1.190   9.713  0.00  0.00     0.417 P 
ATOM      9  O1A ATP d         -10.788   0.211   9.188  0.00  0.00    -0.624 OA
ATOM     10  O2A ATP d          -9.935  -1.830  10.583  0.00  0.00    -0.624 OA
BRANCH   8  11
ATOM     11  O3A ATP d         -11.323  -2.144   8.461  0.00  0.00    -0.180 OA
BRANCH  11  12
ATOM     12  PB  ATP d         -10.243  -2.475   7.314  0.00  0.00     0.428 P 
ATOM     13  O1B ATP d          -9.184  -1.397   7.323  0.00  0.00    -0.624 OA
ATOM     14  O2B ATP d          -9.843  -3.926   7.433  0.00  0.00    -0.624 OA
BRANCH  12  15
ATOM     15  O3B ATP d         -11.138  -2.295   5.987  0.00  0.00    -0.173 OA
BRANCH  15  16
ATOM     16  PG  ATP d         -11.632  -3.567   5.134  0.00  0.00     0.431 P 
ATOM     17  O1G ATP d         -12.608  -4.254   6.058  0.00  0.00    -0.616 OA
ATOM     18  O2G ATP d         -10.368  -4.347   4.864  0.00  0.00    -0.616 OA
ATOM     19  O3G ATP d         -12.267  -2.958   3.908  0.00  0.00    -0.616 OA
ENDBRANCH  15  16
ENDBRANCH  12  15
ENDBRANCH  11  12
ENDBRANCH   8  11
ENDBRANCH   7   8
ENDBRANCH   6   7
ENDBRANCH   1   6
BRANCH   3  20
ATOM     20  O3' ATP d         -14.304   2.632   9.848  0.00  0.00    -0.390 OA
ATOM     21  H5  ATP d         -14.839   2.329   9.124  0.00  0.00     0.210 HD
ENDBRANCH   3  20
BRANCH   5  22
ATOM     22  N9  ATP d         -17.035  -0.072  12.601  0.00  0.00    -0.294 N 
ATOM     23  C8  ATP d         -17.027   0.680  13.718  0.00  0.00     0.214 A 
ATOM     24  N7  ATP d         -17.730   0.083  14.712  0.00  0.00    -0.236 NA
ATOM     25  C5  ATP d         -18.207  -1.077  14.225  0.00  0.00     0.149 A 
ATOM     26  C6  ATP d         -19.028  -2.194  14.744  0.00  0.00     0.155 A 
ATOM     27  C4  ATP d         -17.752  -1.172  12.830  0.00  0.00     0.167 A 
ATOM     28  N6  ATP d         -19.493  -2.189  16.016  0.00  0.00    -0.382 N 
ATOM     29  N1  ATP d         -19.298  -3.217  13.904  0.00  0.00    -0.222 NA
ATOM     30  H10 ATP d         -20.063  -2.975  16.359  0.00  0.00     0.157 HD
ATOM     31  H11 ATP d         -19.277  -1.399  16.640  0.00  0.00     0.157 HD
ATOM     32  C2  ATP d         -18.843  -3.237  12.638  0.00  0.00     0.237 A 
ATOM     33  N3  ATP d         -18.093  -2.260  12.101  0.00  0.00    -0.222 NA
ENDBRANCH   5  22
BRANCH   4  34
ATOM     34  O2' ATP d         -16.752   2.455  10.344  0.00  0.00    -0.388 OA
ATOM     35  H7  ATP d         -16.463   3.360  10.313  0.00  0.00     0.210 HD
ENDBRANCH   4  34
TORSDOF 10
