REMARK  5 active torsions:
REMARK  status: ('A' for Active; 'I' for Inactive)
REMARK    1  A    between atoms: C23_4  and  N2_5 
REMARK    2  A    between atoms: C20_12  and  C19_13 
REMARK       I    between atoms: C19_13  and  N1_15 
REMARK    3  A    between atoms: N1_15  and  C10_16 
REMARK    4  A    between atoms: C10_16  and  C13_22 
REMARK    5  A    between atoms: C7_31  and  C28_36 
ROOT
ATOM      1  C10 MOL d         -15.839 -36.436 -13.398  0.00  0.00     0.077 C 
ATOM      2  C9  MOL d         -15.404 -35.252 -12.470  0.00  0.00     0.165 C 
ATOM      3  N   MOL d         -14.000 -35.444 -12.034  0.00  0.00    -0.346 N 
ATOM      4  C4  MOL d         -13.438 -34.987 -10.835  0.00  0.00     0.046 A 
ATOM      5  C3  MOL d         -14.037 -34.267  -9.806  0.00  0.00     0.031 A 
ATOM      6  C2  MOL d         -13.251 -33.950  -8.705  0.00  0.00     0.009 A 
ATOM      7  C11 MOL d         -14.783 -36.515 -14.522  0.00  0.00     0.044 C 
ATOM      8  C12 MOL d         -13.369 -36.844 -14.018  0.00  0.00     0.061 C 
ATOM      9  C8  MOL d         -13.055 -36.160 -12.716  0.00  0.00     0.027 A 
ATOM     10  C7  MOL d         -11.858 -36.188 -11.992  0.00  0.00     0.048 A 
ATOM     11  C5  MOL d         -12.124 -35.407 -10.785  0.00  0.00     0.007 A 
ATOM     12  C6  MOL d         -11.364 -35.057  -9.672  0.00  0.00     0.021 A 
ATOM     13  C1  MOL d         -11.907 -34.326  -8.626  0.00  0.00    -0.061 A 
ATOM     14  C   MOL d         -11.067 -33.965  -7.420  0.00  0.00     0.048 C 
ENDROOT
BRANCH   1  15
ATOM     15  N1  MOL d         -15.761 -37.631 -12.539  0.00  0.00    -0.342 N 
ATOM     16  C19 MOL d         -15.908 -38.896 -12.986  0.00  0.00     0.254 C 
ATOM     17  O   MOL d         -16.233 -39.161 -14.143  0.00  0.00    -0.268 OA
ATOM     18  H6  MOL d         -15.588 -37.496 -11.563  0.00  0.00     0.164 HD
BRANCH  16  19
ATOM     19  C20 MOL d         -15.756 -39.983 -11.977  0.00  0.00     0.053 A 
ATOM     20  C25 MOL d         -14.629 -40.185 -11.174  0.00  0.00     0.051 A 
ATOM     21 CL   MOL d         -13.282 -39.090 -11.238  0.00  0.00    -0.083 Cl
ATOM     22  C24 MOL d         -14.526 -41.287 -10.341  0.00  0.00     0.054 A 
ATOM     23  C23 MOL d         -15.570 -42.214 -10.301  0.00  0.00     0.043 A 
ATOM     24  C22 MOL d         -16.695 -42.025 -11.086  0.00  0.00     0.031 A 
ATOM     25  C21 MOL d         -16.790 -40.921 -11.909  0.00  0.00     0.021 A 
BRANCH  23  26
ATOM     26  N2  MOL d         -15.458 -43.380  -9.478  0.00  0.00    -0.297 N 
ATOM     27  C27 MOL d         -14.861 -43.490  -8.262  0.00  0.00     0.240 A 
ATOM     28  N4  MOL d         -15.005 -44.692  -7.781  0.00  0.00    -0.144 NA
ATOM     29  N3  MOL d         -15.712 -45.425  -8.726  0.00  0.00    -0.144 NA
ATOM     30  C26 MOL d         -15.958 -44.621  -9.722  0.00  0.00     0.240 A 
ENDBRANCH  23  26
ENDBRANCH  16  19
ENDBRANCH   1  15
BRANCH   1  31
ATOM     31  C13 MOL d         -17.264 -36.217 -13.935  0.00  0.00    -0.029 A 
ATOM     32  C18 MOL d         -18.368 -36.797 -13.311  0.00  0.00     0.010 A 
ATOM     33  C17 MOL d         -19.654 -36.542 -13.761  0.00  0.00     0.001 A 
ATOM     34  C16 MOL d         -19.860 -35.705 -14.835  0.00  0.00     0.000 A 
ATOM     35  C15 MOL d         -18.779 -35.122 -15.467  0.00  0.00     0.001 A 
ATOM     36  C14 MOL d         -17.491 -35.376 -15.023  0.00  0.00     0.010 A 
ENDBRANCH   1  31
BRANCH  10  37
ATOM     37  C28 MOL d         -10.613 -36.849 -12.343  0.00  0.00     0.182 A 
ATOM     38  N8  MOL d         -10.403 -37.605 -13.431  0.00  0.00    -0.239 N 
ATOM     39  N7  MOL d          -9.110 -37.967 -13.387  0.00  0.00    -0.046 NA
ATOM     40  H24 MOL d         -11.093 -37.857 -14.153  0.00  0.00     0.192 HD
ATOM     41  N6  MOL d          -8.550 -37.452 -12.322  0.00  0.00    -0.023 NA
ATOM     42  N5  MOL d          -9.465 -36.750 -11.655  0.00  0.00    -0.108 NA
ENDBRANCH  10  37
TORSDOF 5
