REMARK  8 active torsions:
REMARK  status: ('A' for Active; 'I' for Inactive)
REMARK    1  A    between atoms: C10_7  and  C15_9 
REMARK    2  A    between atoms: C11_8  and  C12_10 
REMARK    3  A    between atoms: C15_9  and  O30_25 
REMARK    4  A    between atoms: C3_13  and  O16_14 
REMARK    5  A    between atoms: C3_13  and  N18_16 
REMARK       I    between atoms: N18_16  and  C19_17 
REMARK    6  A    between atoms: C19_17  and  C20_19 
REMARK    7  A    between atoms: C20_19  and  C23_20 
REMARK    8  A    between atoms: O30_25  and  C31_26 
REMARK       I    between atoms: C31_26  and  N33_28 
ROOT
ATOM      1  C4  CFX d         -12.966   3.663  -9.718  0.00  0.00     0.285 C 
ATOM      2  O5  CFX d         -11.843   4.120  -9.544  0.00  0.00    -0.267 OA
ATOM      3  N1  CFX d         -14.184   4.125  -9.426  0.00  0.00    -0.288 N 
ATOM      4  C2  CFX d         -14.890   3.011 -10.096  0.00  0.00     0.221 C 
ATOM      5  S8  CFX d         -16.159   2.390  -8.988  0.00  0.00    -0.133 SA
ATOM      6  C9  CFX d         -16.964   4.005  -8.887  0.00  0.00     0.115 C 
ATOM      7  C10 CFX d         -16.052   5.190  -8.512  0.00  0.00    -0.013 C 
ATOM      8  C11 CFX d         -14.762   5.215  -8.723  0.00  0.00     0.121 C 
ATOM      9  C3  CFX d         -13.529   2.323 -10.201  0.00  0.00     0.250 C 
ENDROOT
BRANCH   9  10
ATOM     10  O16 CFX d         -13.273   1.992 -11.561  0.00  0.00    -0.355 OA
ATOM     11  C17 CFX d         -11.922   1.732 -11.864  0.00  0.00     0.205 C 
ENDBRANCH   9  10
BRANCH   9  12
ATOM     12  N18 CFX d         -13.135   1.270  -9.321  0.00  0.00    -0.319 N 
ATOM     13  C19 CFX d         -13.611   0.037  -9.360  0.00  0.00     0.225 C 
ATOM     14  O21 CFX d         -14.570  -0.243 -10.046  0.00  0.00    -0.273 OA
ATOM     15  H9  CFX d         -12.449   1.480  -8.624  0.00  0.00     0.166 HD
BRANCH  13  16
ATOM     16  C20 CFX d         -12.930  -0.988  -8.516  0.00  0.00     0.148 C 
BRANCH  16  17
ATOM     17  C23 CFX d         -13.674  -1.343  -7.288  0.00  0.00    -0.009 A 
ATOM     18  S24 CFX d         -13.069  -2.490  -6.161  0.00  0.00    -0.106 SA
ATOM     19  C25 CFX d         -14.402  -2.375  -5.150  0.00  0.00     0.050 A 
ATOM     20  C26 CFX d         -15.270  -1.544  -5.620  0.00  0.00     0.008 A 
ATOM     21  C27 CFX d         -14.876  -0.933  -6.837  0.00  0.00     0.015 A 
ENDBRANCH  16  17
ENDBRANCH  13  16
ENDBRANCH   9  12
BRANCH   8  22
ATOM     22  C12 CFX d         -13.800   6.188  -8.164  0.00  0.00     0.227 C 
ATOM     23  O13 CFX d         -13.917   7.367  -8.511  0.00  0.00    -0.643 OA
ATOM     24  O14 CFX d         -12.918   5.794  -7.363  0.00  0.00    -0.643 OA
ENDBRANCH   8  22
BRANCH   7  25
ATOM     25  C15 CFX d         -16.728   6.332  -7.788  0.00  0.00     0.218 C 
BRANCH  25  26
ATOM     26  O30 CFX d         -17.787   6.915  -8.679  0.00  0.00    -0.300 OA
BRANCH  26  27
ATOM     27  C31 CFX d         -18.329   8.144  -8.401  0.00  0.00     0.358 C 
ATOM     28  O32 CFX d         -17.910   9.073  -7.667  0.00  0.00    -0.239 OA
ATOM     29  N33 CFX d         -19.450   8.209  -9.125  0.00  0.00    -0.346 N 
ATOM     30  H15 CFX d         -20.024   9.027  -9.085  0.00  0.00     0.161 HD
ATOM     31  H16 CFX d         -19.715   7.440  -9.707  0.00  0.00     0.161 HD
ENDBRANCH  26  27
ENDBRANCH  25  26
ENDBRANCH   7  25
TORSDOF 8
