REMARK  5 active torsions:
REMARK  status: ('A' for Active; 'I' for Inactive)
REMARK    1  A    between atoms: S1_1  and  N24_2 
REMARK    2  A    between atoms: S1_1  and  C2_5 
REMARK    3  A    between atoms: C5_8  and  N8_9 
REMARK       I    between atoms: N8_9  and  C9_10 
REMARK       I    between atoms: C9_10  and  N10_12 
REMARK    4  A    between atoms: N10_12  and  S11_13 
REMARK    5  A    between atoms: S11_13  and  C12_16 
ROOT
ATOM      1  N8  NR2 d          17.192   7.412  13.645  0.00  0.00    -0.308 N 
ATOM      2  C9  NR2 d          18.419   7.763  13.211  0.00  0.00     0.334 C 
ATOM      3  O13 NR2 d          19.439   7.117  13.411  0.00  0.00    -0.246 OA
ATOM      4  N10 NR2 d          18.447   8.912  12.513  0.00  0.00    -0.232 N 
ATOM      5  H5  NR2 d          16.444   8.031  13.405  0.00  0.00     0.170 HD
ATOM      6  H6  NR2 d          17.620   9.473  12.541  0.00  0.00     0.183 HD
ENDROOT
BRANCH   1   7
ATOM      7  C5  NR2 d          16.841   6.273  14.399  0.00  0.00     0.036 A 
ATOM      8  C6  NR2 d          15.493   6.114  14.739  0.00  0.00     0.031 A 
ATOM      9  C7  NR2 d          15.078   5.008  15.472  0.00  0.00     0.027 A 
ATOM     10  C2  NR2 d          16.005   4.027  15.887  0.00  0.00     0.079 A 
ATOM     11  C3  NR2 d          17.344   4.179  15.549  0.00  0.00     0.027 A 
ATOM     12  C4  NR2 d          17.753   5.298  14.804  0.00  0.00     0.031 A 
BRANCH  10  13
ATOM     13  S1  NR2 d          15.326   2.693  16.808  0.00  0.00     0.256 S 
ATOM     14  O23 NR2 d          13.884   2.766  16.674  0.00  0.00    -0.201 OA
ATOM     15  O22 NR2 d          15.867   2.848  18.157  0.00  0.00    -0.201 OA
BRANCH  13  16
ATOM     16  N24 NR2 d          15.814   1.432  16.169  0.00  0.00    -0.324 N 
ATOM     17  H1  NR2 d          15.523   1.196  15.242  0.00  0.00     0.169 HD
ATOM     18  H2  NR2 d          16.431   0.825  16.669  0.00  0.00     0.169 HD
ENDBRANCH  13  16
ENDBRANCH  10  13
ENDBRANCH   1   7
BRANCH   4  19
ATOM     19  S11 NR2 d          19.589   9.440  11.697  0.00  0.00     0.266 S 
ATOM     20  O15 NR2 d          20.558   8.443  11.316  0.00  0.00    -0.200 OA
ATOM     21  O14 NR2 d          19.017  10.296  10.664  0.00  0.00    -0.200 OA
BRANCH  19  22
ATOM     22  C12 NR2 d          20.337  10.474  12.920  0.00  0.00     0.080 A 
ATOM     23  C20 NR2 d          21.728  10.402  13.085  0.00  0.00     0.026 A 
ATOM     24  C19 NR2 d          22.343  11.210  14.045  0.00  0.00     0.008 A 
ATOM     25  C18 NR2 d          21.568  12.071  14.824  0.00  0.00    -0.062 A 
ATOM     26  C21 NR2 d          22.228  12.957  15.869  0.00  0.00     0.048 C 
ATOM     27  C17 NR2 d          20.189  12.134  14.652  0.00  0.00     0.008 A 
ATOM     28  C16 NR2 d          19.573  11.331  13.695  0.00  0.00     0.026 A 
ENDBRANCH  19  22
ENDBRANCH   4  19
TORSDOF 5
