REMARK  19 active torsions:
REMARK  status: ('A' for Active; 'I' for Inactive)
REMARK    1  A    between atoms: CB_4  and  CG_3 
REMARK    2  A    between atoms: CA_6  and  CB_4 
REMARK    3  A    between atoms: CA_6  and  N_5 
REMARK    4  A    between atoms: CH_7  and  CA_6 
REMARK    5  A    between atoms: CH_7  and  OH_8 
REMARK    6  A    between atoms: CH2_9  and  CH_7 
REMARK    7  A    between atoms: N_10  and  CH2_9 
REMARK    8  A    between atoms: CA_11  and  N_10 
REMARK    9  A    between atoms: C_12  and  CA_11 
REMARK   10  A    between atoms: CA_11  and  CB_14 
REMARK       I    between atoms: N_17  and  C_12 
REMARK   11  A    between atoms: CA_18  and  N_17 
REMARK   12  A    between atoms: C_19  and  CA_18 
REMARK   13  A    between atoms: CA_18  and  CB_21 
REMARK       I    between atoms: N_25  and  C_19 
REMARK   14  A    between atoms: CB_21  and  CG1_22 
REMARK   15  A    between atoms: CA_26  and  N_25 
REMARK   16  A    between atoms: C_27  and  CA_26 
REMARK   17  A    between atoms: CA_26  and  CB_29 
REMARK   18  A    between atoms: O_37  and  C_27 
REMARK   19  A    between atoms: CB_29  and  CG_30 
ROOT
ATOM      1  C   MOL d          36.981 -12.480   5.668  0.00  0.00     0.249 C 
ATOM      2  O   MOL d          37.553 -12.883   4.645  0.00  0.00    -0.271 OA
ATOM      3  N   MOL d          37.541 -12.380   6.853  0.00  0.00    -0.346 N 
ATOM      4  H28 MOL d          37.003 -12.005   7.608  0.00  0.00     0.163 HD
ENDROOT
BRANCH   3   5
ATOM      5  CA  MOL d          38.921 -12.796   7.111  0.00  0.00     0.180 C 
BRANCH   5   6
ATOM      6  C   MOL d          39.055 -14.301   6.873  0.00  0.00     0.241 C 
ATOM      7  O   MOL d          38.296 -15.106   7.434  0.00  0.00    -0.271 OA
ATOM      8  N   MOL d          40.014 -14.628   6.030  0.00  0.00    -0.345 N 
ATOM      9  H39 MOL d          40.565 -13.897   5.627  0.00  0.00     0.163 HD
BRANCH   8  10
ATOM     10  CA  MOL d          40.310 -16.018   5.655  0.00  0.00     0.188 C 
BRANCH  10  11
ATOM     11  C   MOL d          41.660 -16.440   6.239  0.00  0.00     0.281 C 
ATOM     12  O   MOL d          42.386 -17.251   5.646  0.00  0.00    -0.263 OA
BRANCH  11  13
ATOM     13  O   MOL d          42.098 -15.900   7.477  0.00  0.00    -0.325 OA
ATOM     14  CM  MOL d          43.145 -14.966   7.256  0.00  0.00     0.213 C 
ENDBRANCH  11  13
ENDBRANCH  10  11
BRANCH  10  15
ATOM     15  CB  MOL d          40.372 -16.147   4.131  0.00  0.00     0.074 C 
BRANCH  15  16
ATOM     16  CG  MOL d          39.024 -16.506   3.502  0.00  0.00    -0.056 A 
ATOM     17  CD2 MOL d          38.981 -17.228   2.303  0.00  0.00     0.007 A 
ATOM     18  CE2 MOL d          37.748 -17.552   1.724  0.00  0.00     0.001 A 
ATOM     19  CZ  MOL d          36.557 -17.156   2.344  0.00  0.00     0.000 A 
ATOM     20  CE1 MOL d          36.599 -16.436   3.544  0.00  0.00     0.001 A 
ATOM     21  CD1 MOL d          37.832 -16.111   4.123  0.00  0.00     0.007 A 
ENDBRANCH  15  16
ENDBRANCH  10  15
ENDBRANCH   8  10
ENDBRANCH   5   6
BRANCH   5  22
ATOM     22  CB  MOL d          39.304 -12.470   8.554  0.00  0.00     0.013 C 
ATOM     23  CG2 MOL d          38.301 -13.010   9.575  0.00  0.00     0.012 C 
BRANCH  22  24
ATOM     24  CG1 MOL d          40.663 -13.047   8.955  0.00  0.00     0.002 C 
ATOM     25  CD1 MOL d          41.491 -12.085   9.809  0.00  0.00     0.005 C 
ENDBRANCH  22  24
ENDBRANCH   5  22
ENDBRANCH   3   5
BRANCH   1  26
ATOM     26  CA  MOL d          35.518 -12.055   5.633  0.00  0.00     0.280 C 
BRANCH  26  27
ATOM     27  CB  MOL d          34.804 -13.222   4.947  0.00  0.00     0.017 C 
ATOM     28  CG1 MOL d          35.114 -14.574   5.595  0.00  0.00     0.012 C 
ATOM     29  CG2 MOL d          33.281 -13.090   4.968  0.00  0.00     0.012 C 
ENDBRANCH  26  27
BRANCH  26  30
ATOM     30  N   MOL d          35.367 -10.819   4.846  0.00  0.00    -0.059 N 
ATOM     31  H18 MOL d          34.775 -10.212   5.390  0.00  0.00     0.278 HD
ATOM     32  H19 MOL d          34.889 -11.084   3.999  0.00  0.00     0.278 HD
BRANCH  30  33
ATOM     33  CH2 MOL d          36.400 -10.083   4.470  0.00  0.00     0.266 C 
BRANCH  33  34
ATOM     34  CH  MOL d          36.070  -8.609   4.196  0.00  0.00     0.174 C 
BRANCH  34  35
ATOM     35  CA  MOL d          36.043  -8.275   2.710  0.00  0.00     0.214 C 
BRANCH  35  36
ATOM     36  CB  MOL d          35.924  -6.755   2.611  0.00  0.00     0.039 C 
BRANCH  36  37
ATOM     37  CG  MOL d          36.942  -6.137   1.653  0.00  0.00    -0.021 C 
ATOM     38  CD1 MOL d          36.887  -4.609   1.628  0.00  0.00     0.009 C 
ATOM     39  CD2 MOL d          38.387  -6.496   2.004  0.00  0.00     0.009 C 
ENDBRANCH  36  37
ENDBRANCH  35  36
BRANCH  35  40
ATOM     40  N   MOL d          34.883  -8.914   2.070  0.00  0.00    -0.072 N 
ATOM     41  H10 MOL d          34.970  -9.916   2.140  0.00  0.00     0.274 HD
ATOM     42  H11 MOL d          34.846  -8.647   1.099  0.00  0.00     0.274 HD
ATOM     43  H12 MOL d          34.038  -8.617   2.533  0.00  0.00     0.274 HD
ENDBRANCH  35  40
ENDBRANCH  34  35
BRANCH  34  44
ATOM     44  OH  MOL d          34.840  -8.235   4.781  0.00  0.00    -0.392 OA
ATOM     45  H15 MOL d          34.855  -8.443   5.708  0.00  0.00     0.210 HD
ENDBRANCH  34  44
ENDBRANCH  33  34
ENDBRANCH  30  33
ENDBRANCH  26  30
ENDBRANCH   1  26
TORSDOF 19
