REMARK  2 active torsions:
REMARK  status: ('A' for Active; 'I' for Inactive)
REMARK    1  A    between atoms: S1_1  and  C1_2 
REMARK    2  A    between atoms: N1_11  and  O1_12 
ROOT
ATOM      1  C1  HQT d          15.552   1.234  15.746  0.00  0.00     0.206 A 
ATOM      2  C9  HQT d          15.307   2.579  15.869  0.00  0.00    -0.013 A 
ATOM      3  C8  HQT d          14.617   3.085  17.038  0.00  0.00     0.011 A 
ATOM      4  C7  HQT d          14.386   4.409  17.165  0.00  0.00     0.001 A 
ATOM      5  C6  HQT d          14.796   5.308  16.132  0.00  0.00     0.001 A 
ATOM      6  C5  HQT d          15.457   4.814  14.991  0.00  0.00     0.012 A 
ATOM      7  C4  HQT d          15.713   3.452  14.870  0.00  0.00    -0.026 A 
ATOM      8  C3  HQT d          16.365   2.971  13.759  0.00  0.00     0.031 A 
ATOM      9  C2  HQT d          16.606   1.664  13.641  0.00  0.00     0.119 A 
ATOM     10  N1  HQT d          16.198   0.768  14.672  0.00  0.00    -0.253 N 
ENDROOT
BRANCH   1  11
ATOM     11  S1  HQT d          15.032   0.128  17.005  0.00  0.00    -0.150 SA
ATOM     12  H1  HQT d          14.398  -0.550  16.614  0.00  0.00     0.104 HD
ENDBRANCH   1  11
BRANCH  10  13
ATOM     13  O1  HQT d          16.449  -0.534  14.560  0.00  0.00    -0.287 OA
ATOM     14  H9  HQT d          16.024  -0.871  13.780  0.00  0.00     0.244 HD
ENDBRANCH  10  13
TORSDOF 2
