REMARK  14 active torsions:
REMARK  status: ('A' for Active; 'I' for Inactive)
REMARK    1  A    between atoms: C2_2  and  N1_1 
REMARK    2  A    between atoms: S8_8  and  C5_5 
REMARK    3  A    between atoms: N11_11  and  S8_8 
REMARK    4  A    between atoms: N11_11  and  C12_12 
REMARK    5  A    between atoms: C16_16  and  N11_11 
REMARK    6  A    between atoms: C12_12  and  C13_13 
REMARK    7  A    between atoms: C17_17  and  C16_16 
REMARK    8  A    between atoms: C17_17  and  O18_18 
REMARK    9  A    between atoms: C19_19  and  C17_17 
REMARK   10  A    between atoms: C19_19  and  N20_20 
REMARK   11  A    between atoms: C32_32  and  C19_19 
REMARK       I    between atoms: N20_20  and  C21_21 
REMARK   12  A    between atoms: C21_21  and  O23_23 
REMARK   13  A    between atoms: O23_23  and  C24_24 
REMARK   14  A    between atoms: C38_38  and  C32_32 
ROOT
ATOM      1  C17 MOL d           9.982 -17.141   0.144  0.00  0.00     0.155 C 
ENDROOT
BRANCH   1   2
ATOM      2  C16 MOL d           9.551 -17.145  -1.322  0.00  0.00     0.141 C 
BRANCH   2   3
ATOM      3  N11 MOL d           8.316 -16.344  -1.431  0.00  0.00    -0.204 NA
BRANCH   3   4
ATOM      4  S8  MOL d           8.470 -15.048  -2.395  0.00  0.00     0.243 S 
ATOM      5  O9  MOL d           9.671 -14.346  -2.059  0.00  0.00    -0.206 OA
ATOM      6  O10 MOL d           7.310 -14.251  -2.140  0.00  0.00    -0.206 OA
BRANCH   4   7
ATOM      7  C5  MOL d           8.540 -15.388  -3.949  0.00  0.00     0.074 A 
ATOM      8  C4  MOL d           7.398 -15.500  -4.736  0.00  0.00     0.027 A 
ATOM      9  C3  MOL d           7.534 -15.813  -6.087  0.00  0.00     0.030 A 
ATOM     10  C2  MOL d           8.803 -16.001  -6.624  0.00  0.00     0.025 A 
ATOM     11  C7  MOL d           9.937 -15.882  -5.844  0.00  0.00     0.030 A 
ATOM     12  C6  MOL d           9.798 -15.571  -4.504  0.00  0.00     0.027 A 
BRANCH  10  13
ATOM     13  N1  MOL d           8.963 -16.291  -7.931  0.00  0.00    -0.399 N 
ATOM     14  H1  MOL d           8.139 -16.387  -8.542  0.00  0.00     0.156 HD
ATOM     15  H2  MOL d           9.909 -16.416  -8.319  0.00  0.00     0.156 HD
ENDBRANCH  10  13
ENDBRANCH   4   7
ENDBRANCH   3   4
BRANCH   3  16
ATOM     16  C12 MOL d           7.174 -17.187  -1.827  0.00  0.00     0.111 C 
BRANCH  16  17
ATOM     17  C13 MOL d           6.631 -17.959  -0.629  0.00  0.00    -0.009 C 
ATOM     18  C14 MOL d           6.275 -17.020   0.516  0.00  0.00     0.011 C 
ATOM     19  C15 MOL d           5.409 -18.790  -1.016  0.00  0.00     0.011 C 
ENDBRANCH  16  17
ENDBRANCH   3  16
ENDBRANCH   2   3
ENDBRANCH   1   2
BRANCH   1  20
ATOM     20  O18 MOL d          11.055 -18.065   0.335  0.00  0.00    -0.392 OA
ATOM     21  H19 MOL d          11.319 -18.058   1.248  0.00  0.00     0.210 HD
ENDBRANCH   1  20
BRANCH   1  22
ATOM     22  C19 MOL d          10.438 -15.772   0.632  0.00  0.00     0.120 C 
BRANCH  22  23
ATOM     23  N20 MOL d          10.584 -15.855   2.068  0.00  0.00    -0.329 N 
ATOM     24  C21 MOL d           9.769 -15.250   2.920  0.00  0.00     0.361 C 
ATOM     25  O22 MOL d           8.796 -14.557   2.630  0.00  0.00    -0.238 OA
ATOM     26  H21 MOL d          11.339 -16.397   2.437  0.00  0.00     0.165 HD
BRANCH  24  27
ATOM     27  O23 MOL d          10.167 -15.504   4.290  0.00  0.00    -0.296 OA
BRANCH  27  28
ATOM     28  C24 MOL d           9.501 -14.707   5.253  0.00  0.00     0.166 C 
ATOM     29  C25 MOL d           9.103 -15.618   6.395  0.00  0.00     0.204 C 
ATOM     30  O26 MOL d          10.311 -15.714   7.145  0.00  0.00    -0.358 OA
ATOM     31  C27 MOL d          11.048 -14.496   7.040  0.00  0.00     0.266 C 
ATOM     32  O28 MOL d          12.422 -14.810   6.809  0.00  0.00    -0.361 OA
ATOM     33  C31 MOL d          10.534 -13.755   5.825  0.00  0.00     0.075 C 
ATOM     34  C29 MOL d          12.765 -14.584   5.451  0.00  0.00     0.171 C 
ATOM     35  C30 MOL d          11.767 -13.541   4.961  0.00  0.00     0.038 C 
ENDBRANCH  27  28
ENDBRANCH  24  27
ENDBRANCH  22  23
BRANCH  22  36
ATOM     36  C32 MOL d          11.787 -15.336   0.070  0.00  0.00     0.066 C 
BRANCH  36  37
ATOM     37  C38 MOL d          12.221 -14.034   0.692  0.00  0.00    -0.056 A 
ATOM     38  C33 MOL d          13.283 -14.006   1.594  0.00  0.00     0.007 A 
ATOM     39  C34 MOL d          13.680 -12.806   2.166  0.00  0.00     0.001 A 
ATOM     40  C35 MOL d          13.020 -11.629   1.839  0.00  0.00     0.000 A 
ATOM     41  C36 MOL d          11.962 -11.659   0.941  0.00  0.00     0.001 A 
ATOM     42  C37 MOL d          11.565 -12.859   0.366  0.00  0.00     0.007 A 
ENDBRANCH  36  37
ENDBRANCH  22  36
ENDBRANCH   1  22
TORSDOF 14
