REMARK  13 active torsions:
REMARK  status: ('A' for Active; 'I' for Inactive)
REMARK    1  A    between atoms: C1_3  and  N1_1 
REMARK    2  A    between atoms: C2_4  and  C1_3 
REMARK    3  A    between atoms: N_10  and  C5_7 
REMARK    4  A    between atoms: C_11  and  N_10 
REMARK    5  A    between atoms: C8_13  and  C_11 
REMARK    6  A    between atoms: C16_24  and  C12_19 
REMARK    7  A    between atoms: C16_24  and  C17_25 
REMARK    8  A    between atoms: C17_25  and  C18_28 
REMARK    9  A    between atoms: N4_26  and  OH_33 
REMARK   10  A    between atoms: OH_33  and  C23_34 
REMARK   11  A    between atoms: C23_34  and  C24_35 
REMARK   12  A    between atoms: C24_35  and  O3_37 
REMARK   13  A    between atoms: O3_37  and  C26_39 
ROOT
ATOM      1  N3  T87 d          16.718 -13.260  21.513  0.00  0.00    -0.231 NA
ATOM      2  C8  T87 d          17.408 -12.386  20.679  0.00  0.00     0.124 A 
ATOM      3  N9  T87 d          18.821 -12.403  20.644  0.00  0.00    -0.336 N 
ATOM      4  C3A T87 d          19.021 -13.418  21.573  0.00  0.00     0.064 A 
ATOM      5  C7A T87 d          17.769 -13.914  22.083  0.00  0.00     0.086 A 
ATOM      6  C10 T87 d          20.252 -13.974  22.045  0.00  0.00     0.033 A 
ATOM      7  C11 T87 d          20.206 -15.005  23.001  0.00  0.00     0.011 A 
ATOM      8  C12 T87 d          18.971 -15.509  23.530  0.00  0.00    -0.041 A 
ATOM      9  C13 T87 d          17.740 -14.959  23.052  0.00  0.00     0.042 A 
ATOM     10  C14 T87 d          19.812 -11.601  19.860  0.00  0.00     0.158 C 
ENDROOT
BRANCH   8  11
ATOM     11  C16 T87 d          18.983 -16.465  24.804  0.00  0.00     0.036 A 
ATOM     12  C9  T87 d          18.098 -17.684  24.964  0.00  0.00     0.022 A 
ATOM     13  C15 T87 d          17.722 -16.340  25.627  0.00  0.00     0.022 A 
BRANCH  11  14
ATOM     14  C17 T87 d          20.464 -16.631  25.247  0.00  0.00     0.103 C 
ATOM     15  N4  T87 d          21.155 -17.657  24.878  0.00  0.00    -0.135 NA
BRANCH  15  16
ATOM     16  OH  T87 d          20.531 -18.697  24.027  0.00  0.00    -0.246 OA
BRANCH  16  17
ATOM     17  C23 T87 d          21.131 -19.969  24.264  0.00  0.00     0.314 C 
BRANCH  17  18
ATOM     18  C24 T87 d          20.459 -21.023  23.348  0.00  0.00     0.285 C 
ATOM     19  O2  T87 d          20.611 -22.225  23.601  0.00  0.00    -0.263 OA
BRANCH  18  20
ATOM     20  O3  T87 d          19.709 -20.610  22.270  0.00  0.00    -0.320 OA
BRANCH  20  21
ATOM     21  C26 T87 d          19.164 -21.722  21.537  0.00  0.00     0.174 C 
ATOM     22  C25 T87 d          18.133 -21.213  20.510  0.00  0.00     0.034 C 
ENDBRANCH  20  21
ENDBRANCH  18  20
ENDBRANCH  17  18
ENDBRANCH  16  17
ENDBRANCH  15  16
BRANCH  14  23
ATOM     23  C18 T87 d          21.119 -15.536  26.100  0.00  0.00     0.084 A 
ATOM     24  C19 T87 d          20.437 -14.318  26.337  0.00  0.00     0.034 A 
ATOM     25  C20 T87 d          21.051 -13.315  27.105  0.00  0.00     0.004 A 
ATOM     26  C21 T87 d          22.335 -13.496  27.646  0.00  0.00     0.019 A 
ATOM     27  C22 T87 d          23.025 -14.712  27.412  0.00  0.00     0.117 A 
ATOM     28  N5  T87 d          22.413 -15.723  26.639  0.00  0.00    -0.259 NA
ENDBRANCH  14  23
ENDBRANCH  11  14
ENDBRANCH   8  11
BRANCH   2  29
ATOM     29  C   T87 d          16.575 -11.416  19.805  0.00  0.00     0.198 C 
BRANCH  29  30
ATOM     30  N   T87 d          15.122 -11.691  19.628  0.00  0.00    -0.383 N 
ATOM     31  H9  T87 d          14.820 -11.894  18.665  0.00  0.00     0.160 HD
BRANCH  30  32
ATOM     32  C5  T87 d          14.086 -11.710  20.624  0.00  0.00     0.028 A 
ATOM     33  C4  T87 d          13.086 -12.703  20.642  0.00  0.00     0.030 A 
ATOM     34  C3  T87 d          12.099 -12.691  21.645  0.00  0.00     0.017 A 
ATOM     35  C2  T87 d          12.079 -11.685  22.666  0.00  0.00     0.007 A 
ATOM     36  C7  T87 d          13.113 -10.692  22.610  0.00  0.00     0.017 A 
ATOM     37  C6  T87 d          14.099 -10.702  21.611  0.00  0.00     0.030 A 
BRANCH  35  38
ATOM     38  C1  T87 d          11.097 -11.678  23.671  0.00  0.00     0.102 C 
ATOM     39  N2  T87 d          10.873 -10.668  24.499  0.00  0.00    -0.385 N 
ATOM     40  H3  T87 d          11.436  -9.809  24.427  0.00  0.00     0.157 HD
ATOM     41  H4  T87 d          10.136 -10.742  25.215  0.00  0.00     0.157 HD
BRANCH  38  42
ATOM     42  N1  T87 d          10.273 -12.688  23.923  0.00  0.00    -0.385 N 
ATOM     43  H1  T87 d           9.577 -12.609  24.678  0.00  0.00     0.157 HD
ATOM     44  H2  T87 d          10.329 -13.551  23.363  0.00  0.00     0.157 HD
ENDBRANCH  38  42
ENDBRANCH  35  38
ENDBRANCH  30  32
ENDBRANCH  29  30
ENDBRANCH   2  29
TORSDOF 13
