REMARK  3 active torsions:
REMARK  status: ('A' for Active; 'I' for Inactive)
REMARK       I    between atoms: N2_2  and  C4_4 
REMARK    1  A    between atoms: C4_4  and  C6_6 
REMARK    2  A    between atoms: C8_8  and  C12_11 
REMARK    3  A    between atoms: C17_15  and  C18_16 
ROOT
ATOM      1  C12 MOL d         -16.293  12.005  41.194  0.00  0.00     0.074 A 
ATOM      2  N13 MOL d         -17.251  11.090  41.127  0.00  0.00    -0.277 N 
ATOM      3  N14 MOL d         -18.384  11.564  41.780  0.00  0.00    -0.186 NA
ATOM      4  C16 MOL d         -18.131  12.785  42.261  0.00  0.00     0.153 A 
ATOM      5  C17 MOL d         -16.837  13.124  41.933  0.00  0.00     0.022 A 
ATOM      6  H10 MOL d         -17.169  10.173  40.664  0.00  0.00     0.189 HD
ENDROOT
BRANCH   1   7
ATOM      7  C8  MOL d         -14.911  11.823  40.594  0.00  0.00     0.011 A 
ATOM      8  C7  MOL d         -13.700  12.321  41.096  0.00  0.00     0.050 A 
ATOM      9  C6  MOL d         -12.664  11.933  40.269  0.00  0.00     0.101 A 
ATOM     10  N10 MOL d         -13.244  11.188  39.259  0.00  0.00    -0.361 N 
ATOM     11  C9  MOL d         -14.592  11.123  39.452  0.00  0.00     0.102 A 
ATOM     12  H9  MOL d         -12.735  10.749  38.479  0.00  0.00     0.165 HD
BRANCH   9  13
ATOM     13  C4  MOL d         -11.176  12.224  40.412  0.00  0.00     0.269 C 
ATOM     14  N2  MOL d         -10.626  13.263  41.177  0.00  0.00    -0.355 N 
ATOM     15  C1  MOL d          -9.160  13.415  41.239  0.00  0.00     0.152 C 
ATOM     16  C3  MOL d         -11.436  14.225  41.934  0.00  0.00     0.152 C 
ATOM     17  O5  MOL d         -10.408  11.485  39.810  0.00  0.00    -0.266 OA
ENDBRANCH   9  13
ENDBRANCH   1   7
BRANCH   5  18
ATOM     18  C18 MOL d         -16.183  14.428  42.311  0.00  0.00    -0.022 A 
ATOM     19  C19 MOL d         -15.487  15.246  41.368  0.00  0.00     0.012 A 
ATOM     20  C20 MOL d         -14.896  16.461  41.779  0.00  0.00     0.001 A 
ATOM     21  C21 MOL d         -15.005  16.869  43.127  0.00  0.00     0.000 A 
ATOM     22  C22 MOL d         -15.696  16.063  44.074  0.00  0.00     0.001 A 
ATOM     23  C23 MOL d         -16.280  14.859  43.672  0.00  0.00     0.012 A 
ENDBRANCH   5  18
TORSDOF 3
