REMARK  5 active torsions:
REMARK  status: ('A' for Active; 'I' for Inactive)
REMARK    1  A    between atoms: C1_1  and  S1_4 
REMARK    2  A    between atoms: S1_4  and  N1_2 
REMARK    3  A    between atoms: C4_8  and  N7_11 
REMARK       I    between atoms: N7_11  and  C8_12 
REMARK       I    between atoms: C8_12  and  N9_14 
REMARK    4  A    between atoms: N9_14  and  C10_15 
REMARK    5  A    between atoms: C12_17  and  N16_21 
ROOT
ATOM      1  N7  AYX d          -4.358   5.691  13.585  0.00  0.00    -0.309 N 
ATOM      2  C8  AYX d          -5.239   6.338  12.644  0.00  0.00     0.325 C 
ATOM      3  O8  AYX d          -6.451   6.182  12.568  0.00  0.00    -0.247 OA
ATOM      4  N9  AYX d          -4.613   7.415  11.943  0.00  0.00    -0.309 N 
ATOM      5  H7  AYX d          -3.422   6.031  13.676  0.00  0.00     0.170 HD
ATOM      6  H8  AYX d          -3.643   7.557  12.143  0.00  0.00     0.170 HD
ENDROOT
BRANCH   1   7
ATOM      7  C4  AYX d          -4.772   4.567  14.406  0.00  0.00     0.036 A 
ATOM      8  C3  AYX d          -3.812   3.598  14.645  0.00  0.00     0.031 A 
ATOM      9  C2  AYX d          -4.163   2.490  15.409  0.00  0.00     0.027 A 
ATOM     10  C1  AYX d          -5.461   2.378  15.889  0.00  0.00     0.079 A 
ATOM     11  C6  AYX d          -6.413   3.353  15.639  0.00  0.00     0.027 A 
ATOM     12  C5  AYX d          -6.065   4.468  14.877  0.00  0.00     0.031 A 
BRANCH  10  13
ATOM     13  S1  AYX d          -5.941   0.964  16.839  0.00  0.00     0.256 S 
ATOM     14  O1  AYX d          -7.387   0.976  16.793  0.00  0.00    -0.201 OA
ATOM     15  O2  AYX d          -5.359   1.096  18.177  0.00  0.00    -0.201 OA
BRANCH  13  16
ATOM     16  N1  AYX d          -5.327  -0.328  16.125  0.00  0.00    -0.324 N 
ATOM     17  H1  AYX d          -5.487  -1.236  16.512  0.00  0.00     0.169 HD
ATOM     18  H2  AYX d          -4.783  -0.228  15.292  0.00  0.00     0.169 HD
ENDBRANCH  13  16
ENDBRANCH  10  13
ENDBRANCH   1   7
BRANCH   4  19
ATOM     19  C10 AYX d          -5.186   8.313  10.998  0.00  0.00     0.038 A 
ATOM     20  C11 AYX d          -6.374   7.984  10.353  0.00  0.00     0.065 A 
ATOM     21  C12 AYX d          -6.890   8.877   9.408  0.00  0.00     0.105 A 
ATOM     22  C13 AYX d          -6.252  10.077   9.156  0.00  0.00     0.036 A 
ATOM     23  C14 AYX d          -5.054  10.382   9.801  0.00  0.00     0.005 A 
ATOM     24  C15 AYX d          -4.521   9.502  10.746  0.00  0.00     0.030 A 
BRANCH  21  25
ATOM     25  N16 AYX d          -8.112   8.582   8.735  0.00  0.00    -0.116 N 
ATOM     26  O16 AYX d          -8.619   9.465   7.920  0.00  0.00    -0.532 OA
ATOM     27  O17 AYX d          -8.666   7.429   8.875  0.00  0.00    -0.532 OA
ENDBRANCH  21  25
ENDBRANCH   4  19
TORSDOF 5
