4bxk_ligand

Created by X-TOOL on Fri Sep 26 17:35:00 2014
 62 63  0  0  0  0  0  0  0  0999 V2000
   -5.7470  -22.3020  -21.6340  N 0  0  0  2  0  3
   -6.2880  -23.0360  -20.8130  N 0  0  0  1  0  2
   -6.0470  -22.6280  -19.6190  N 0  0  0  1  0  2
   -5.3490  -21.6280  -19.6290  N 0  0  0  1  0  2
   -5.1200  -21.3800  -20.9120  C 0  0  0  1  0  3
   -4.3070  -20.1990  -21.4280  C 0  0  0  3  0  4
   -4.6100  -19.9360  -22.8930  C 0  0  0  2  0  4
   -6.0170  -19.6470  -23.1620  N 0  3  0  4  0  4
   -3.7800  -18.7830  -23.4910  C 0  0  0  1  0  3
   -3.7960  -18.6910  -24.7090  O 0  0  0  1  0  1
   -3.0820  -17.9400  -22.6940  N 0  0  0  2  0  3
   -2.1980  -16.9250  -23.2940  C 0  0  0  2  0  4
   -2.4580  -15.5230  -22.7810  C 0  0  0  3  0  4
   -3.7600  -15.1210  -23.1820  C 0  0  0  1  0  3
   -4.8080  -15.0440  -22.2630  C 0  0  0  2  0  3
   -6.0820  -14.6380  -22.6730  C 0  0  0  2  0  3
   -6.3370  -14.2920  -23.9980  C 0  0  0  2  0  3
   -5.2880  -14.3610  -24.9090  C 0  0  0  2  0  3
   -4.0170  -14.7640  -24.5040  C 0  0  0  2  0  3
   -0.4560  -17.4960  -22.8680  P 0  0  0  1  0  4
   -0.3010  -18.9090  -23.5510  O 0  0  0  1  0  1
   -0.2750  -17.6430  -21.4020  O 0  0  0  1  0  1
    0.5950  -16.3890  -23.7480  C 0  0  0  3  0  4
    1.9390  -16.2860  -22.9940  C 0  0  0  2  0  4
    3.0830  -15.9700  -23.9990  C 0  0  0  4  0  4
    1.9540  -15.1540  -21.9380  C 0  0  0  1  0  3
    1.1420  -14.2210  -21.9620  O 0  0  0  1  0  1
    2.9830  -15.2510  -21.0800  N 0  0  0  2  0  3
    3.2310  -14.2910  -19.9900  C 0  0  0  2  0  4
    4.3230  -14.8320  -19.0500  C 0  0  0  4  0  4
    3.6540  -12.9080  -20.5440  C 0  0  0  1  0  3
    3.3540  -11.8860  -19.9240  O 0  0  0  1  0  1
    4.3120  -12.8870  -21.7100  N 0  0  0  3  0  3
   -5.7733  -22.3832  -22.6605  H 0  0  0  1  0  1
   -3.2357  -20.4217  -21.3155  H 0  0  0  1  0  1
   -4.5590  -19.3035  -20.8410  H 0  0  0  1  0  1
   -4.3479  -20.8556  -23.4368  H 0  0  0  1  0  1
   -6.1438  -19.4837  -24.1486  H 0  0  0  1  0  1
   -6.2959  -18.8266  -22.6471  H 0  0  0  1  0  1
   -6.5818  -20.4314  -22.8760  H 0  0  0  1  0  1
   -3.1662  -18.0060  -21.6997  H 0  0  0  1  0  1
   -2.3334  -16.9211  -24.3856  H 0  0  0  1  0  1
   -1.7124  -14.8318  -23.2009  H 0  0  0  1  0  1
   -2.3901  -15.5129  -21.6832  H 0  0  0  1  0  1
   -4.6331  -15.3007  -21.2244  H 0  0  0  1  0  1
   -6.8854  -14.5917  -21.9467  H 0  0  0  1  0  1
   -7.3261  -13.9775  -24.3107  H 0  0  0  1  0  1
   -5.4613  -14.0982  -25.9463  H 0  0  0  1  0  1
   -3.2136  -14.8004  -25.2308  H 0  0  0  1  0  1
    0.1243  -15.3964  -23.8046  H 0  0  0  1  0  1
    0.7683  -16.7712  -24.7648  H 0  0  0  1  0  1
    2.1351  -17.2469  -22.4959  H 0  0  0  1  0  1
    4.0375  -15.8977  -23.4571  H 0  0  0  1  0  1
    2.8746  -15.0150  -24.5034  H 0  0  0  1  0  1
    3.1462  -16.7738  -24.7473  H 0  0  0  1  0  1
    3.6161  -16.0176  -21.1870  H 0  0  0  1  0  1
    2.3004  -14.1673  -19.4166  H 0  0  0  1  0  1
    4.5009  -14.1090  -18.2403  H 0  0  0  1  0  1
    5.2532  -14.9834  -19.6173  H 0  0  0  1  0  1
    3.9954  -15.7902  -18.6205  H 0  0  0  1  0  1
    4.6038  -12.0154  -22.1038  H 0  0  0  1  0  1
    4.5117  -13.7430  -22.1869  H 0  0  0  1  0  1
  1  2  1  0  0  1
  1  5  1  0  0  1
  2  3  2  0  0  1
  3  4  1  0  0  1
  4  5  2  0  0  1
  5  6  1  0  0  2
  6  7  1  0  0  2
  7  8  1  0  0  2
  7  9  1  0  0  2
  9 10  2  0  0  2
  9 11  1  0  0  2
 11 12  1  0  0  2
 12 13  1  0  0  2
 12 20  1  0  0  2
 13 14  1  0  0  2
 14 15  4  0  0  1
 14 19  4  0  0  1
 15 16  4  0  0  1
 16 17  4  0  0  1
 17 18  4  0  0  1
 18 19  4  0  0  1
 20 21  2  0  0  2
 20 22  2  0  0  2
 20 23  1  0  0  2
 23 24  1  0  0  2
 24 25  1  0  0  2
 24 26  1  0  0  2
 26 27  2  0  0  2
 26 28  1  0  0  2
 28 29  1  0  0  2
 29 30  1  0  0  2
 29 31  1  0  0  2
 31 32  2  0  0  2
 31 33  1  0  0  2
  1 34  1  0  0  2
  6 35  1  0  0  2
  6 36  1  0  0  2
  7 37  1  0  0  2
  8 38  1  0  0  2
  8 39  1  0  0  2
  8 40  1  0  0  2
 11 41  1  0  0  2
 12 42  1  0  0  2
 13 43  1  0  0  2
 13 44  1  0  0  2
 15 45  1  0  0  2
 16 46  1  0  0  2
 17 47  1  0  0  2
 18 48  1  0  0  2
 19 49  1  0  0  2
 23 50  1  0  0  2
 23 51  1  0  0  2
 24 52  1  0  0  2
 25 53  1  0  0  2
 25 54  1  0  0  2
 25 55  1  0  0  2
 28 56  1  0  0  2
 29 57  1  0  0  2
 30 58  1  0  0  2
 30 59  1  0  0  2
 30 60  1  0  0  2
 33 61  1  0  0  2
 33 62  1  0  0  2
M  END
> <MOLECULAR_FORMULA>
C19H29N8O5P

> <MOLECULAR_WEIGHT>
480.2

> <NUM_HB_ATOMS>
13 

> <NUM_ROTOR>
12 

> <XLOGP2>
-1.88

$$$$
