REMARK  3 active torsions:
REMARK  status: ('A' for Active; 'I' for Inactive)
REMARK    1  A    between atoms: C1_6  and  C7_7 
REMARK    2  A    between atoms: C7_7  and  C8_8 
REMARK    3  A    between atoms: C8_8  and  C9_9 
ROOT
ATOM      1  C4  I2E d          14.011   9.968  -3.960  0.00  0.00     0.105 A 
ATOM      2  C5  I2E d          15.341  10.255  -3.884  0.00  0.00     0.040 A 
ATOM      3  C6  I2E d          15.906  10.587  -2.635  0.00  0.00     0.010 A 
ATOM      4  C3  I2E d          13.209   9.976  -2.838  0.00  0.00     0.105 A 
ATOM      5  C2  I2E d          13.716  10.274  -1.597  0.00  0.00     0.047 A 
ATOM      6  C1  I2E d          15.086  10.563  -1.463  0.00  0.00    -0.055 A 
ATOM      7  C20 I2E d          11.882   9.563  -4.627  0.00  0.00     0.352 C 
ATOM      8  O4  I2E d          13.280   9.610  -5.077  0.00  0.00    -0.323 OA
ATOM      9  O3  I2E d          11.913   9.648  -3.168  0.00  0.00    -0.323 OA
ENDROOT
BRANCH   6  10
ATOM     10  C7  I2E d          15.613  10.914  -0.197  0.00  0.00     0.049 C 
BRANCH  10  11
ATOM     11  C8  I2E d          17.006  10.260   0.098  0.00  0.00     0.117 C 
BRANCH  11  12
ATOM     12  C9  I2E d          18.229  11.131  -0.353  0.00  0.00     0.172 C 
ATOM     13  O1  I2E d          18.141  12.367  -0.468  0.00  0.00    -0.648 OA
ATOM     14  O2  I2E d          19.248  10.504  -0.591  0.00  0.00    -0.648 OA
ENDBRANCH  11  12
ENDBRANCH  10  11
ENDBRANCH   6  10
TORSDOF 3
