REMARK  6 active torsions:
REMARK  status: ('A' for Active; 'I' for Inactive)
REMARK    1  A    between atoms: CAU_11  and  CAL_12 
REMARK    2  A    between atoms: CAL_12  and  CAX_13 
REMARK    3  A    between atoms: CAY_14  and  OAF_15 
REMARK    4  A    between atoms: CAY_14  and  CAN_16 
REMARK    5  A    between atoms: CAW_21  and  OAE_22 
REMARK    6  A    between atoms: CAV_23  and  OAD_24 
ROOT
ATOM      1  CAX MOL d          28.862  44.757   7.158  0.00  0.00     0.108 C 
ATOM      2  CAY MOL d          29.169  43.263   7.171  0.00  0.00     0.158 C 
ATOM      3  CAO MOL d          28.233  45.169   8.485  0.00  0.00     0.165 C 
ATOM      4  OAB MOL d          27.345  46.020   8.459  0.00  0.00    -0.294 OA
ATOM      5  CAW MOL d          28.822  44.609   9.805  0.00  0.00     0.216 C 
ATOM      6  CAV MOL d          29.046  43.085   9.691  0.00  0.00     0.157 C 
ATOM      7  CAM MOL d          29.909  42.786   8.455  0.00  0.00     0.084 C 
ENDROOT
BRANCH   1   8
ATOM      8  CAL MOL d          30.123  45.593   6.931  0.00  0.00     0.061 C 
BRANCH   8   9
ATOM      9  CAU MOL d          29.828  47.038   6.622  0.00  0.00     0.026 A 
ATOM     10  CAT MOL d          29.681  47.470   5.303  0.00  0.00     0.167 A 
ATOM     11  FAK MOL d          29.775  46.621   4.274  0.00  0.00    -0.202 F 
ATOM     12  CAR MOL d          29.428  48.787   5.015  0.00  0.00     0.197 A 
ATOM     13  FAI MOL d          29.307  49.193   3.737  0.00  0.00    -0.199 F 
ATOM     14  CAP MOL d          29.319  49.666   6.074  0.00  0.00     0.199 A 
ATOM     15  FAG MOL d          29.087  50.961   5.940  0.00  0.00    -0.199 F 
ATOM     16  CAQ MOL d          29.462  49.270   7.357  0.00  0.00     0.197 A 
ATOM     17  FAH MOL d          29.322  50.197   8.303  0.00  0.00    -0.199 F 
ATOM     18  CAS MOL d          29.721  47.965   7.663  0.00  0.00     0.167 A 
ATOM     19  FAJ MOL d          29.846  47.652   8.978  0.00  0.00    -0.202 F 
ENDBRANCH   8   9
ENDBRANCH   1   8
BRANCH   2  20
ATOM     20  OAF MOL d          27.884  42.635   7.022  0.00  0.00    -0.378 OA
ATOM     21  H4  MOL d          27.491  42.911   6.202  0.00  0.00     0.211 HD
ENDBRANCH   2  20
BRANCH   2  22
ATOM     22  CAN MOL d          30.022  42.949   5.932  0.00  0.00     0.210 C 
ATOM     23  OAC MOL d          29.386  42.938   4.876  0.00  0.00    -0.646 OA
ATOM     24  OAA MOL d          31.275  42.834   6.050  0.00  0.00    -0.646 OA
ENDBRANCH   2  22
BRANCH   5  25
ATOM     25  OAE MOL d          28.044  44.934  10.962  0.00  0.00    -0.385 OA
ATOM     26  H6  MOL d          28.456  44.564  11.734  0.00  0.00     0.210 HD
ENDBRANCH   5  25
BRANCH   6  27
ATOM     27  OAD MOL d          29.746  42.672  10.872  0.00  0.00    -0.392 OA
ATOM     28  H8  MOL d          29.222  42.878  11.637  0.00  0.00     0.210 HD
ENDBRANCH   6  27
TORSDOF 6
