REMARK  16 active torsions:
REMARK  status: ('A' for Active; 'I' for Inactive)
REMARK    1  A    between atoms: C1_1  and  C2_4 
REMARK    2  A    between atoms: C2_4  and  C3_5 
REMARK    3  A    between atoms: C3_5  and  C4_6 
REMARK    4  A    between atoms: C4_6  and  C5_7 
REMARK    5  A    between atoms: C5_7  and  C6_8 
REMARK    6  A    between atoms: C6_8  and  C7_9 
REMARK    7  A    between atoms: C7_9  and  C8_10 
REMARK    8  A    between atoms: C8_10  and  C9_11 
REMARK    9  A    between atoms: C9_11  and  C10_12 
REMARK   10  A    between atoms: C10_12  and  C11_13 
REMARK   11  A    between atoms: C11_13  and  C12_14 
REMARK   12  A    between atoms: C12_14  and  C13_15 
REMARK   13  A    between atoms: C13_15  and  C14_16 
REMARK   14  A    between atoms: C14_16  and  C15_17 
REMARK   15  A    between atoms: C15_17  and  C16_18 
REMARK   16  A    between atoms: C16_18  and  C17_19 
ROOT
ATOM      1  C8  STE d           5.415  -0.066   4.720  0.00  0.00     0.000 C 
ENDROOT
BRANCH   1   2
ATOM      2  C7  STE d           5.132  -0.145   6.224  0.00  0.00     0.000 C 
BRANCH   2   3
ATOM      3  C6  STE d           3.760   0.454   6.557  0.00  0.00     0.000 C 
BRANCH   3   4
ATOM      4  C5  STE d           3.478   0.380   8.048  0.00  0.00     0.000 C 
BRANCH   4   5
ATOM      5  C4  STE d           2.780  -0.901   8.481  0.00  0.00     0.001 C 
BRANCH   5   6
ATOM      6  C3  STE d           1.452  -0.640   9.167  0.00  0.00     0.010 C 
BRANCH   6   7
ATOM      7  C2  STE d           1.592  -0.453  10.665  0.00  0.00     0.113 C 
BRANCH   7   8
ATOM      8  C1  STE d           0.288  -0.190  11.394  0.00  0.00     0.172 C 
ATOM      9  O1  STE d          -0.498  -1.134  11.547  0.00  0.00    -0.648 OA
ATOM     10  O2  STE d           0.024   0.944  11.821  0.00  0.00    -0.648 OA
ENDBRANCH   7   8
ENDBRANCH   6   7
ENDBRANCH   5   6
ENDBRANCH   4   5
ENDBRANCH   3   4
ENDBRANCH   2   3
ENDBRANCH   1   2
BRANCH   1  11
ATOM     11  C9  STE d           6.868   0.239   4.427  0.00  0.00     0.000 C 
BRANCH  11  12
ATOM     12  C10 STE d           7.193   0.332   2.954  0.00  0.00     0.000 C 
BRANCH  12  13
ATOM     13  C11 STE d           8.678   0.371   2.664  0.00  0.00     0.000 C 
BRANCH  13  14
ATOM     14  C12 STE d           8.913   1.128   1.365  0.00  0.00     0.000 C 
BRANCH  14  15
ATOM     15  C13 STE d           9.638   0.238   0.374  0.00  0.00     0.000 C 
BRANCH  15  16
ATOM     16  C14 STE d          11.058   0.715   0.148  0.00  0.00     0.000 C 
BRANCH  16  17
ATOM     17  C15 STE d          11.580   0.295  -1.220  0.00  0.00     0.000 C 
BRANCH  17  18
ATOM     18  C16 STE d          12.475   1.387  -1.802  0.00  0.00    -0.000 C 
BRANCH  18  19
ATOM     19  C17 STE d          12.761   1.298  -3.326  0.00  0.00    -0.005 C 
ATOM     20  C18 STE d          14.009   0.651  -3.902  0.00  0.00     0.005 C 
ENDBRANCH  18  19
ENDBRANCH  17  18
ENDBRANCH  16  17
ENDBRANCH  15  16
ENDBRANCH  14  15
ENDBRANCH  13  14
ENDBRANCH  12  13
ENDBRANCH  11  12
ENDBRANCH   1  11
TORSDOF 16
