REMARK  19 active torsions:
REMARK  status: ('A' for Active; 'I' for Inactive)
REMARK    1  A    between atoms: CA_2  and  N_1 
REMARK    2  A    between atoms: CA_2  and  CB_5 
REMARK    3  A    between atoms: C_3  and  CA_2 
REMARK       I    between atoms: N_12  and  C_3 
REMARK    4  A    between atoms: CB_5  and  CG_6 
REMARK    5  A    between atoms: CG_6  and  CD_7 
REMARK    6  A    between atoms: CD_7  and  NE_8 
REMARK       I    between atoms: NE_8  and  CZ_9 
REMARK       I    between atoms: CZ_9  and  NH2_11 
REMARK       I    between atoms: CZ_9  and  NH1_10 
REMARK    7  A    between atoms: CA_13  and  N_12 
REMARK    8  A    between atoms: CA_13  and  CB_16 
REMARK    9  A    between atoms: C_14  and  CA_13 
REMARK       I    between atoms: N_23  and  C_14 
REMARK   10  A    between atoms: CB_16  and  CG_17 
REMARK   11  A    between atoms: CG_17  and  CD_18 
REMARK   12  A    between atoms: CD_18  and  NE_19 
REMARK       I    between atoms: NE_19  and  CZ_20 
REMARK       I    between atoms: CZ_20  and  NH1_21 
REMARK   13  A    between atoms: CA_24  and  N_23 
REMARK   14  A    between atoms: C_25  and  CA_24 
REMARK       I    between atoms: C_25  and  N_27 
REMARK   15  A    between atoms: N_27  and  CA_28 
REMARK   16  A    between atoms: CA_28  and  CB_31 
REMARK   17  A    between atoms: CA_28  and  C_29 
REMARK   18  A    between atoms: C_29  and  O1_35 
REMARK   19  A    between atoms: CB_31  and  CG_32 
ROOT
ATOM      1  CA  ARG d 500      24.888  23.953  54.794  0.00  0.00     0.176 C 
ENDROOT
BRANCH   1   2
ATOM      2  N   ARG d 500      25.900  24.490  53.890  0.00  0.00    -0.346 N 
ATOM      3  C   ARG d 500      26.597  25.582  54.194  0.00  0.00     0.248 C 
ATOM      4  O   ARG d 500      26.475  26.189  55.261  0.00  0.00    -0.271 OA
ATOM      5  H16 ARG d 500      26.074  24.026  53.021  0.00  0.00     0.163 HD
BRANCH   3   6
ATOM      6  CA  ARG d 500      27.598  26.050  53.153  0.00  0.00     0.274 C 
BRANCH   6   7
ATOM      7  N   ARG d 500      27.635  27.509  53.122  0.00  0.00    -0.067 N 
ATOM      8  H1  ARG d 500      28.301  27.814  52.429  0.00  0.00     0.275 HD
ATOM      9  H2  ARG d 500      27.909  27.858  54.027  0.00  0.00     0.275 HD
ATOM     10  H3  ARG d 500      26.721  27.863  52.888  0.00  0.00     0.275 HD
ENDBRANCH   6   7
BRANCH   6  11
ATOM     11  CB  ARG d 500      28.975  25.478  53.489  0.00  0.00     0.044 C 
BRANCH  11  12
ATOM     12  CG  ARG d 500      30.050  25.798  52.473  0.00  0.00     0.023 C 
BRANCH  12  13
ATOM     13  CD  ARG d 500      31.307  24.983  52.750  0.00  0.00     0.138 C 
BRANCH  13  14
ATOM     14  NE  ARG d 500      32.365  25.257  51.781  0.00  0.00    -0.227 N 
ATOM     15  CZ  ARG d 500      33.104  26.362  51.764  0.00  0.00     0.665 C 
ATOM     16  NH2 ARG d 500      34.041  26.516  50.837  0.00  0.00    -0.235 N 
ATOM     17  NH1 ARG d 500      32.910  27.313  52.668  0.00  0.00    -0.235 N 
ATOM     18  H14 ARG d 500      34.195  25.780  50.133  0.00  0.00     0.174 HD
ATOM     19  H15 ARG d 500      34.614  27.372  50.821  0.00  0.00     0.174 HD
ATOM     20  H12 ARG d 500      33.486  28.167  52.649  0.00  0.00     0.174 HD
ATOM     21  H13 ARG d 500      32.183  27.198  53.389  0.00  0.00     0.174 HD
ATOM     22  H11 ARG d 500      32.551  24.545  51.061  0.00  0.00     0.177 HD
ENDBRANCH  13  14
ENDBRANCH  12  13
ENDBRANCH  11  12
ENDBRANCH   6  11
ENDBRANCH   3   6
ENDBRANCH   1   2
BRANCH   1  23
ATOM     23  CB  ARG d 500      24.006  22.930  54.077  0.00  0.00     0.036 C 
BRANCH  23  24
ATOM     24  CG  ARG d 500      23.101  23.514  53.027  0.00  0.00     0.023 C 
BRANCH  24  25
ATOM     25  CD  ARG d 500      21.903  22.613  52.829  0.00  0.00     0.138 C 
BRANCH  25  26
ATOM     26  NE  ARG d 500      20.728  23.035  53.595  0.00  0.00    -0.227 N 
ATOM     27  CZ  ARG d 500      20.365  22.543  54.777  0.00  0.00     0.665 C 
ATOM     28  NH2 ARG d 500      19.269  22.997  55.373  0.00  0.00    -0.235 N 
ATOM     29  NH1 ARG d 500      21.083  21.595  55.361  0.00  0.00    -0.235 N 
ATOM     30  H27 ARG d 500      18.706  23.734  54.924  0.00  0.00     0.174 HD
ATOM     31  H28 ARG d 500      18.981  22.612  56.284  0.00  0.00     0.174 HD
ATOM     32  H25 ARG d 500      20.794  21.220  56.276  0.00  0.00     0.174 HD
ATOM     33  H26 ARG d 500      21.930  21.233  54.900  0.00  0.00     0.174 HD
ATOM     34  H24 ARG d 500      20.135  23.771  53.186  0.00  0.00     0.177 HD
ENDBRANCH  25  26
ENDBRANCH  24  25
ENDBRANCH  23  24
ENDBRANCH   1  23
BRANCH   1  35
ATOM     35  C   ARG d 500      25.424  23.297  56.049  0.00  0.00     0.240 C 
ATOM     36  O   ARG d 500      24.787  23.358  57.099  0.00  0.00    -0.271 OA
ATOM     37  N   ARG d 500      26.580  22.652  55.943  0.00  0.00    -0.351 N 
ATOM     38  H29 ARG d 500      27.070  22.632  55.071  0.00  0.00     0.163 HD
BRANCH  37  39
ATOM     39  CA  ARG d 500      27.125  21.976  57.106  0.00  0.00     0.225 C 
BRANCH  39  40
ATOM     40  C   ARG d 500      26.536  20.586  57.288  0.00  0.00     0.236 C 
ATOM     41  O   ARG d 500      25.918  20.053  56.366  0.00  0.00    -0.272 OA
ATOM     42  N   ARG d 500      26.724  20.011  58.475  0.00  0.00    -0.345 N 
ATOM     43  H32 ARG d 500      27.229  20.512  59.178  0.00  0.00     0.163 HD
BRANCH  42  44
ATOM     44  CA  ARG d 500      26.220  18.675  58.787  0.00  0.00     0.182 C 
BRANCH  44  45
ATOM     45  CB  ARG d 500      26.968  18.109  59.992  0.00  0.00     0.040 C 
BRANCH  45  46
ATOM     46  CG  ARG d 500      28.467  17.848  59.842  0.00  0.00    -0.020 C 
ATOM     47  CD1 ARG d 500      29.018  17.212  61.117  0.00  0.00     0.009 C 
ATOM     48  CD2 ARG d 500      28.700  16.927  58.654  0.00  0.00     0.009 C 
ENDBRANCH  45  46
ENDBRANCH  44  45
BRANCH  44  49
ATOM     49  C   ARG d 500      24.723  18.631  59.083  0.00  0.00     0.163 C 
ATOM     50  O   ARG d 500      24.122  17.550  58.887  0.00  0.00    -0.648 OA
BRANCH  49  51
ATOM     51  O1  ARG d 500      24.079  19.704  59.534  0.00  0.00    -0.775 OA
ATOM     52  H43 ARG d 500      23.393  19.941  58.920  0.00  0.00     0.167 HD
ENDBRANCH  49  51
ENDBRANCH  44  49
ENDBRANCH  42  44
ENDBRANCH  39  40
ENDBRANCH  37  39
ENDBRANCH   1  35
TORSDOF 19
