REMARK  9 active torsions:
REMARK  status: ('A' for Active; 'I' for Inactive)
REMARK    1  A    between atoms: O3A_8  and  SB_1 
REMARK    2  A    between atoms: PA_5  and  O3A_8 
REMARK    3  A    between atoms: PA_5  and  O5'_9 
REMARK    4  A    between atoms: O5'_9  and  C5'_10 
REMARK    5  A    between atoms: C5'_10  and  C4'_11 
REMARK    6  A    between atoms: C3'_13  and  O3'_14 
REMARK    7  A    between atoms: C2'_15  and  O2'_16 
REMARK    8  A    between atoms: C1'_17  and  N9_18 
REMARK    9  A    between atoms: C6_22  and  N6_23 
ROOT
ATOM      1  C4' ADX d         -13.982  -8.372   9.826  0.00  0.00     0.180 C 
ATOM      2  O4' ADX d         -14.122  -9.625   9.161  0.00  0.00    -0.353 OA
ATOM      3  C3' ADX d         -15.136  -8.282  10.772  0.00  0.00     0.182 C 
ATOM      4  C2' ADX d         -16.122  -9.114  10.188  0.00  0.00     0.198 C 
ATOM      5  C1' ADX d         -15.411 -10.119   9.372  0.00  0.00     0.262 C 
ENDROOT
BRANCH   5   6
ATOM      6  N9  ADX d         -15.384 -11.440   9.932  0.00  0.00    -0.294 N 
ATOM      7  C8  ADX d         -15.747 -12.571   9.286  0.00  0.00     0.214 A 
ATOM      8  N7  ADX d         -15.450 -13.622  10.068  0.00  0.00    -0.236 NA
ATOM      9  C5  ADX d         -14.884 -13.160  11.207  0.00  0.00     0.149 A 
ATOM     10  C6  ADX d         -14.380 -13.774  12.368  0.00  0.00     0.155 A 
ATOM     11  C4  ADX d         -14.834 -11.764  11.123  0.00  0.00     0.167 A 
ATOM     12  N1  ADX d         -13.865 -13.013  13.368  0.00  0.00    -0.222 NA
ATOM     13  C2  ADX d         -13.836 -11.672  13.257  0.00  0.00     0.237 A 
ATOM     14  N3  ADX d         -14.304 -11.053  12.146  0.00  0.00    -0.222 NA
BRANCH  10  15
ATOM     15  N6  ADX d         -14.390 -15.197  12.468  0.00  0.00    -0.382 N 
ATOM     16  H10 ADX d         -14.023 -15.656  13.314  0.00  0.00     0.157 HD
ATOM     17  H11 ADX d         -14.764 -15.765  11.694  0.00  0.00     0.157 HD
ENDBRANCH  10  15
ENDBRANCH   5   6
BRANCH   4  18
ATOM     18  O2' ADX d         -16.861  -8.347   9.283  0.00  0.00    -0.388 OA
ATOM     19  H7  ADX d         -17.273  -7.626   9.744  0.00  0.00     0.210 HD
ENDBRANCH   4  18
BRANCH   1  20
ATOM     20  C5' ADX d         -12.704  -8.353  10.508  0.00  0.00     0.216 C 
BRANCH  20  21
ATOM     21  O5' ADX d         -11.561  -8.418   9.688  0.00  0.00    -0.286 OA
BRANCH  21  22
ATOM     22  PA  ADX d         -10.126  -8.030  10.219  0.00  0.00     0.425 P 
ATOM     23  O1A ADX d          -9.142  -8.034   9.094  0.00  0.00    -0.623 OA
ATOM     24  O2A ADX d         -10.200  -6.689  10.927  0.00  0.00    -0.623 OA
BRANCH  22  25
ATOM     25  O3A ADX d          -9.729  -9.187  11.233  0.00  0.00    -0.144 OA
BRANCH  25  26
ATOM     26  SB  ADX d          -8.340  -9.618  11.620  0.00  0.00     0.261 S 
ATOM     27  O1B ADX d          -7.770 -10.430  10.578  0.00  0.00    -0.572 OA
ATOM     28  O2B ADX d          -8.470 -10.428  12.854  0.00  0.00    -0.572 OA
ATOM     29  O3B ADX d          -7.462  -8.457  11.872  0.00  0.00    -0.572 OA
ENDBRANCH  25  26
ENDBRANCH  22  25
ENDBRANCH  21  22
ENDBRANCH  20  21
ENDBRANCH   1  20
BRANCH   3  30
ATOM     30  O3' ADX d         -15.648  -6.981  10.807  0.00  0.00    -0.390 OA
ATOM     31  H5  ADX d         -15.943  -6.734   9.938  0.00  0.00     0.210 HD
ENDBRANCH   3  30
TORSDOF 9
