REMARK  11 active torsions:
REMARK  status: ('A' for Active; 'I' for Inactive)
REMARK    1  A    between atoms: N7_7  and  C18_18 
REMARK    2  A    between atoms: C8_8  and  C11_11 
REMARK       I    between atoms: C11_11  and  N12_12 
REMARK    3  A    between atoms: N12_12  and  C13_13 
REMARK    4  A    between atoms: C18_18  and  C19_19 
REMARK    5  A    between atoms: C19_19  and  C20_20 
REMARK    6  A    between atoms: C19_19  and  O21_21 
REMARK    7  A    between atoms: C20_20  and  N22_22 
REMARK    8  A    between atoms: C20_20  and  C23_23 
REMARK       I    between atoms: N22_22  and  C24_24 
REMARK    9  A    between atoms: C23_23  and  S74_34 
REMARK   10  A    between atoms: C24_24  and  C29_26 
REMARK   11  A    between atoms: S74_34  and  C77_35 
ROOT
ATOM      1  C19 MOL d          19.936  29.535  15.793  0.00  0.00     0.167 C 
ENDROOT
BRANCH   1   2
ATOM      2  C18 MOL d          20.427  28.349  14.983  0.00  0.00     0.269 C 
BRANCH   2   3
ATOM      3  N7  MOL d          19.700  28.322  13.727  0.00  0.00    -0.055 N 
ATOM      4  C8  MOL d          20.465  27.644  12.689  0.00  0.00     0.279 C 
ATOM      5  C9  MOL d          19.663  27.580  11.387  0.00  0.00     0.048 C 
ATOM      6  C2  MOL d          18.374  26.811  11.621  0.00  0.00    -0.006 C 
ATOM      7  C1  MOL d          17.652  27.449  12.799  0.00  0.00     0.016 C 
ATOM      8  C3  MOL d          17.542  26.750  10.345  0.00  0.00     0.005 C 
ATOM      9  C6  MOL d          17.124  28.836  12.494  0.00  0.00     0.007 C 
ATOM     10  C10 MOL d          18.519  27.519  14.044  0.00  0.00     0.241 C 
ATOM     11  C5  MOL d          16.166  28.586  11.331  0.00  0.00     0.000 C 
ATOM     12  C4  MOL d          16.888  28.099  10.083  0.00  0.00     0.000 C 
ATOM     13  H11 MOL d          19.452  29.252  13.426  0.00  0.00     0.281 HD
BRANCH   4  14
ATOM     14  C11 MOL d          21.710  28.377  12.321  0.00  0.00     0.249 C 
ATOM     15  N12 MOL d          22.742  27.555  12.137  0.00  0.00    -0.351 N 
ATOM     16  H17 MOL d          22.587  26.588  12.339  0.00  0.00     0.163 HD
ATOM     17  O17 MOL d          21.681  29.593  12.185  0.00  0.00    -0.271 OA
BRANCH  15  18
ATOM     18  C13 MOL d          24.063  27.918  11.675  0.00  0.00     0.022 C 
ATOM     19  C14 MOL d          24.692  28.754  12.789  0.00  0.00     0.037 C 
ATOM     20  C15 MOL d          23.961  28.678  10.350  0.00  0.00     0.037 C 
ATOM     21  C16 MOL d          24.863  26.630  11.448  0.00  0.00     0.037 C 
ENDBRANCH  15  18
ENDBRANCH   4  14
ENDBRANCH   2   3
ENDBRANCH   1   2
BRANCH   1  22
ATOM     22  C20 MOL d          20.599  30.846  15.391  0.00  0.00     0.124 C 
BRANCH  22  23
ATOM     23  N22 MOL d          19.883  31.916  16.047  0.00  0.00    -0.349 N 
ATOM     24  C24 MOL d          18.896  32.595  15.470  0.00  0.00     0.248 C 
ATOM     25  O25 MOL d          18.562  32.485  14.305  0.00  0.00    -0.268 OA
ATOM     26  H32 MOL d          20.143  32.158  16.982  0.00  0.00     0.163 HD
BRANCH  24  27
ATOM     27  C29 MOL d          18.170  33.550  16.360  0.00  0.00     0.020 A 
ATOM     28  C30 MOL d          18.900  34.427  17.164  0.00  0.00     0.013 A 
ATOM     29  C31 MOL d          18.281  35.330  18.026  0.00  0.00     0.003 A 
ATOM     30  C32 MOL d          16.896  35.393  18.100  0.00  0.00     0.036 A 
ATOM     31  C33 MOL d          16.101  34.547  17.331  0.00  0.00     0.093 A 
ATOM     32  C34 MOL d          16.696  33.560  16.406  0.00  0.00     0.080 A 
ATOM     33  O38 MOL d          14.786  34.583  17.403  0.00  0.00    -0.196 OA
ATOM     34  C39 MOL d          15.793  32.667  15.591  0.00  0.00     0.022 C 
ENDBRANCH  24  27
ENDBRANCH  22  23
BRANCH  22  35
ATOM     35  C23 MOL d          22.074  31.006  15.749  0.00  0.00     0.107 C 
BRANCH  35  36
ATOM     36  S74 MOL d          22.767  32.328  14.801  0.00  0.00    -0.128 SA
BRANCH  36  37
ATOM     37  C77 MOL d          22.652  33.787  15.649  0.00  0.00     0.000 A 
ATOM     38  C78 MOL d          22.472  34.943  14.901  0.00  0.00     0.018 A 
ATOM     39  C79 MOL d          22.360  36.167  15.541  0.00  0.00     0.001 A 
ATOM     40  C80 MOL d          22.449  36.238  16.925  0.00  0.00     0.000 A 
ATOM     41  C81 MOL d          22.634  35.080  17.670  0.00  0.00     0.001 A 
ATOM     42  C82 MOL d          22.735  33.847  17.037  0.00  0.00     0.018 A 
ENDBRANCH  36  37
ENDBRANCH  35  36
ENDBRANCH  22  35
ENDBRANCH   1  22
BRANCH   1  43
ATOM     43  O21 MOL d          20.218  29.192  17.133  0.00  0.00    -0.392 OA
ATOM     44  H31 MOL d          19.789  28.372  17.346  0.00  0.00     0.210 HD
ENDBRANCH   1  43
TORSDOF 11
