REMARK  14 active torsions:
REMARK  status: ('A' for Active; 'I' for Inactive)
REMARK    1  A    between atoms: S8_13  and  C5_10 
REMARK    2  A    between atoms: N11_16  and  S8_13 
REMARK    3  A    between atoms: N11_16  and  C12_17 
REMARK    4  A    between atoms: C16_21  and  N11_16 
REMARK    5  A    between atoms: C12_17  and  C13_18 
REMARK    6  A    between atoms: C17_22  and  C16_21 
REMARK    7  A    between atoms: C17_22  and  O18_23 
REMARK    8  A    between atoms: C19_24  and  C17_22 
REMARK    9  A    between atoms: N20_25  and  C19_24 
REMARK   10  A    between atoms: C19_24  and  C32_34 
REMARK       I    between atoms: C21_26  and  N20_25 
REMARK   11  A    between atoms: C29_33  and  C21_26 
REMARK   12  A    between atoms: C43_44  and  N24_28 
REMARK   13  A    between atoms: C32_34  and  C38_40 
REMARK   14  A    between atoms: C42_43  and  C46_47 
ROOT
ATOM      1  C19 K54 d          19.638  29.026  14.052  0.00  0.00     0.118 C 
ENDROOT
BRANCH   1   2
ATOM      2  C17 K54 d          20.028  29.332  15.491  0.00  0.00     0.155 C 
BRANCH   2   3
ATOM      3  C16 K54 d          19.171  30.461  16.082  0.00  0.00     0.141 C 
BRANCH   3   4
ATOM      4  N11 K54 d          19.447  31.720  15.343  0.00  0.00    -0.204 NA
BRANCH   4   5
ATOM      5  S8  K54 d          18.146  32.367  14.623  0.00  0.00     0.243 S 
ATOM      6  O9  K54 d          17.390  31.278  14.062  0.00  0.00    -0.206 OA
ATOM      7  O10 K54 d          18.656  33.230  13.608  0.00  0.00    -0.206 OA
BRANCH   5   8
ATOM      8  C5  K54 d          17.252  33.241  15.679  0.00  0.00     0.076 A 
ATOM      9  C4  K54 d          17.429  34.635  15.920  0.00  0.00     0.046 A 
ATOM     10  C3  K54 d          16.641  35.345  16.859  0.00  0.00     0.036 A 
ATOM     11  S1  K54 d          16.783  37.020  17.227  0.00  0.00    -0.081 SA
ATOM     12  C2  K54 d          15.665  34.652  17.571  0.00  0.00     0.074 A 
ATOM     13  C1  K54 d          15.490  36.759  18.347  0.00  0.00     0.167 A 
ATOM     14  N1  K54 d          15.030  35.496  18.429  0.00  0.00    -0.253 NA
ATOM     15  C7  K54 d          15.480  33.292  17.333  0.00  0.00     0.034 A 
ATOM     16  C6  K54 d          16.255  32.591  16.399  0.00  0.00     0.027 A 
ENDBRANCH   5   8
ENDBRANCH   4   5
BRANCH   4  17
ATOM     17  C12 K54 d          20.236  32.712  16.107  0.00  0.00     0.111 C 
BRANCH  17  18
ATOM     18  C13 K54 d          21.720  32.339  16.158  0.00  0.00    -0.009 C 
ATOM     19  C14 K54 d          22.341  32.306  14.760  0.00  0.00     0.011 C 
ATOM     20  C15 K54 d          22.486  33.339  17.023  0.00  0.00     0.011 C 
ENDBRANCH  17  18
ENDBRANCH   4  17
ENDBRANCH   3   4
ENDBRANCH   2   3
BRANCH   2  21
ATOM     21  O18 K54 d          19.919  28.147  16.292  0.00  0.00    -0.392 OA
ATOM     22  H17 K54 d          20.454  27.460  15.913  0.00  0.00     0.210 HD
ENDBRANCH   2  21
ENDBRANCH   1   2
BRANCH   1  23
ATOM     23  N20 K54 d          20.642  28.169  13.427  0.00  0.00    -0.351 N 
ATOM     24  C21 K54 d          21.363  28.592  12.378  0.00  0.00     0.249 C 
ATOM     25  O22 K54 d          21.325  29.719  11.912  0.00  0.00    -0.271 OA
ATOM     26  H19 K54 d          20.795  27.249  13.788  0.00  0.00     0.163 HD
BRANCH  24  27
ATOM     27  C29 K54 d          22.283  27.610  11.743  0.00  0.00     0.243 C 
ATOM     28  C25 K54 d          21.899  27.440  10.256  0.00  0.00     0.177 C 
ATOM     29  N24 K54 d          22.205  26.016  10.057  0.00  0.00    -0.290 N 
ATOM     30  C26 K54 d          22.173  25.343  11.287  0.00  0.00     0.368 C 
ATOM     31  O27 K54 d          22.190  24.132  11.440  0.00  0.00    -0.238 OA
ATOM     32  O28 K54 d          22.156  26.315  12.356  0.00  0.00    -0.287 OA
BRANCH  29  33
ATOM     33  C43 K54 d          22.038  25.216   8.914  0.00  0.00     0.054 A 
ATOM     34  C42 K54 d          23.202  24.772   8.313  0.00  0.00     0.074 A 
ATOM     35  C41 K54 d          23.114  23.960   7.176  0.00  0.00     0.018 A 
ATOM     36  C40 K54 d          21.872  23.604   6.657  0.00  0.00     0.001 A 
ATOM     37  C45 K54 d          20.702  24.054   7.262  0.00  0.00     0.002 A 
ATOM     38  C44 K54 d          20.792  24.862   8.402  0.00  0.00     0.030 A 
BRANCH  34  39
ATOM     39  C46 K54 d          24.526  25.175   8.891  0.00  0.00     0.419 C 
ATOM     40  F1  K54 d          24.543  26.489   8.997  0.00  0.00    -0.166 F 
ATOM     41  F2  K54 d          24.722  24.658  10.102  0.00  0.00    -0.166 F 
ATOM     42  F3  K54 d          25.493  24.810   8.068  0.00  0.00    -0.166 F 
ENDBRANCH  34  39
ENDBRANCH  29  33
ENDBRANCH  24  27
ENDBRANCH   1  23
BRANCH   1  43
ATOM     43  C32 K54 d          18.325  28.229  13.915  0.00  0.00     0.066 C 
BRANCH  43  44
ATOM     44  C38 K54 d          18.088  27.838  12.466  0.00  0.00    -0.056 A 
ATOM     45  C33 K54 d          18.274  26.518  12.056  0.00  0.00     0.007 A 
ATOM     46  C34 K54 d          18.072  26.171  10.722  0.00  0.00     0.001 A 
ATOM     47  C35 K54 d          17.691  27.126   9.791  0.00  0.00     0.000 A 
ATOM     48  C36 K54 d          17.507  28.441  10.200  0.00  0.00     0.001 A 
ATOM     49  C37 K54 d          17.705  28.794  11.538  0.00  0.00     0.007 A 
ENDBRANCH  43  44
ENDBRANCH   1  43
TORSDOF 14
