REMARK  7 active torsions:
REMARK  status: ('A' for Active; 'I' for Inactive)
REMARK    1  A    between atoms: N7_7  and  C4_4 
REMARK    2  A    between atoms: C5_5  and  N18_18 
REMARK    3  A    between atoms: C6_6  and  O21_21 
REMARK    4  A    between atoms: C22_22  and  N7_7 
REMARK    5  A    between atoms: C8_8  and  C22_22 
REMARK    6  A    between atoms: C11_11  and  S14_14 
REMARK    7  A    between atoms: S14_14  and  N17_17 
ROOT
ATOM      1  N7  J90 d          -2.890   5.936  13.448  0.00  0.00    -0.368 N 
ATOM      2  H2  J90 d          -2.497   5.126  12.948  0.00  0.00     0.161 HD
ENDROOT
BRANCH   1   3
ATOM      3  C4  J90 d          -2.029   7.004  13.783  0.00  0.00     0.163 A 
ATOM      4  N3  J90 d          -2.308   7.805  14.825  0.00  0.00    -0.222 NA
ATOM      5  C2  J90 d          -1.548   8.802  15.237  0.00  0.00     0.238 A 
ATOM      6  N1  J90 d          -0.405   9.072  14.654  0.00  0.00    -0.216 NA
ATOM      7  C6  J90 d          -0.031   8.268  13.622  0.00  0.00     0.201 A 
ATOM      8  C5  J90 d          -0.809   7.200  13.129  0.00  0.00     0.200 A 
BRANCH   7   9
ATOM      9  O21 J90 d           1.157   8.545  12.978  0.00  0.00    -0.343 OA
ATOM     10  H9  J90 d           1.295   7.911  12.284  0.00  0.00     0.219 HD
ENDBRANCH   7   9
BRANCH   8  11
ATOM     11  N18 J90 d          -0.340   6.341  11.953  0.00  0.00    -0.107 N 
ATOM     12  O19 J90 d           0.746   6.701  11.608  0.00  0.00    -0.531 OA
ATOM     13  O20 J90 d          -1.160   5.549  11.686  0.00  0.00    -0.531 OA
ENDBRANCH   8  11
ENDBRANCH   1   3
BRANCH   1  14
ATOM     14  C22 J90 d          -4.267   5.929  13.768  0.00  0.00     0.160 C 
BRANCH  14  15
ATOM     15  C8  J90 d          -4.679   4.685  14.556  0.00  0.00    -0.041 A 
ATOM     16  C9  J90 d          -3.705   3.668  14.877  0.00  0.00     0.010 A 
ATOM     17  C10 J90 d          -4.117   2.495  15.606  0.00  0.00     0.026 A 
ATOM     18  C11 J90 d          -5.461   2.375  15.928  0.00  0.00     0.079 A 
ATOM     19  C12 J90 d          -6.374   3.359  15.577  0.00  0.00     0.026 A 
ATOM     20  C13 J90 d          -6.012   4.549  14.880  0.00  0.00     0.010 A 
BRANCH  18  21
ATOM     21  S14 J90 d          -6.073   0.908  16.770  0.00  0.00     0.256 S 
ATOM     22  O15 J90 d          -5.491   0.983  18.141  0.00  0.00    -0.201 OA
ATOM     23  O16 J90 d          -7.560   0.925  16.601  0.00  0.00    -0.201 OA
BRANCH  21  24
ATOM     24  N17 J90 d          -5.293  -0.371  16.035  0.00  0.00    -0.324 N 
ATOM     25  H7  J90 d          -5.473  -1.307  16.337  0.00  0.00     0.169 HD
ATOM     26  H8  J90 d          -4.645  -0.202  15.292  0.00  0.00     0.169 HD
ENDBRANCH  21  24
ENDBRANCH  18  21
ENDBRANCH  14  15
ENDBRANCH   1  14
TORSDOF 7
