REMARK  2 active torsions:
REMARK  status: ('A' for Active; 'I' for Inactive)
REMARK    1  A    between atoms: N2_4  and  O8_5 
REMARK    2  A    between atoms: C1_7  and  S7_8 
ROOT
ATOM      1  C4  BEW d          16.034   5.362  14.162  0.00  0.00    -0.005 A 
ATOM      2  C5  BEW d          15.237   5.781  15.224  0.00  0.00     0.000 A 
ATOM      3  C6  BEW d          14.883   4.819  16.193  0.00  0.00     0.038 A 
ATOM      4  N2  BEW d          16.143   3.134  14.952  0.00  0.00    -0.251 N 
ATOM      5  C3  BEW d          16.483   4.038  14.031  0.00  0.00     0.184 A 
ATOM      6  C1  BEW d          15.364   3.535  15.996  0.00  0.00     0.091 A 
ENDROOT
BRANCH   4   7
ATOM      7  O8  BEW d          16.594   1.709  14.862  0.00  0.00    -0.286 OA
ATOM      8  H4  BEW d          16.253   1.223  15.604  0.00  0.00     0.244 HD
ENDBRANCH   4   7
BRANCH   6   9
ATOM      9  S7  BEW d          15.019   2.195  17.113  0.00  0.00    -0.123 SA
ATOM     10  H7  BEW d          14.443   2.530  17.869  0.00  0.00     0.108 HD
ENDBRANCH   6   9
TORSDOF 2
