REMARK  8 active torsions:
REMARK  status: ('A' for Active; 'I' for Inactive)
REMARK    1  A    between atoms: N8_23  and  C5_2 
REMARK    2  A    between atoms: C12_19  and  C13_4 
REMARK    3  A    between atoms: C14_18  and  C15_5 
REMARK    4  A    between atoms: C22_8  and  C23_11 
REMARK       I    between atoms: N21_14  and  C22_8 
REMARK    5  A    between atoms: C18_15  and  N21_14 
REMARK    6  A    between atoms: C12_19  and  C14_18 
REMARK    7  A    between atoms: S9_20  and  C12_19 
REMARK    8  A    between atoms: S9_20  and  N8_23 
ROOT
ATOM      1  C12 1CG d         -11.915  40.018  34.182  0.00  0.00     0.210 C 
ENDROOT
BRANCH   1   2
ATOM      2  C13 1CG d         -12.555  39.296  35.288  0.00  0.00     0.167 A 
ATOM      3  O30 1CG d         -11.863  38.300  35.870  0.00  0.00    -0.292 OA
ATOM      4  C29 1CG d         -12.715  37.843  36.877  0.00  0.00     0.106 A 
ATOM      5  C28 1CG d         -13.865  38.542  36.897  0.00  0.00     0.093 A 
ATOM      6  C34 1CG d         -12.462  36.831  37.759  0.00  0.00     0.040 A 
ATOM      7  C31 1CG d         -14.828  38.258  37.822  0.00  0.00     0.034 A 
ATOM      8  N27 1CG d         -13.752  39.428  35.891  0.00  0.00    -0.224 NA
ATOM      9  C32 1CG d         -14.599  37.255  38.728  0.00  0.00     0.002 A 
ATOM     10  C33 1CG d         -13.429  36.547  38.697  0.00  0.00     0.003 A 
ENDBRANCH   1   2
BRANCH   1  11
ATOM     11  C14 1CG d         -12.032  41.525  34.463  0.00  0.00     0.069 C 
BRANCH  11  12
ATOM     12  C15 1CG d         -11.100  42.199  35.462  0.00  0.00    -0.056 A 
ATOM     13  C20 1CG d         -10.836  41.754  36.744  0.00  0.00     0.009 A 
ATOM     14  C19 1CG d          -9.968  42.451  37.583  0.00  0.00     0.030 A 
ATOM     15  C18 1CG d          -9.356  43.622  37.176  0.00  0.00     0.035 A 
ATOM     16  C17 1CG d          -9.624  44.073  35.908  0.00  0.00     0.030 A 
ATOM     17  C16 1CG d         -10.487  43.375  35.085  0.00  0.00     0.009 A 
BRANCH  15  18
ATOM     18  N21 1CG d          -8.516  44.361  37.928  0.00  0.00    -0.318 N 
ATOM     19  C22 1CG d          -8.084  44.172  39.175  0.00  0.00     0.322 C 
ATOM     20  O24 1CG d          -8.391  43.255  39.869  0.00  0.00    -0.261 OA
ATOM     21  H5  1CG d          -8.161  45.181  37.479  0.00  0.00     0.169 HD
BRANCH  19  22
ATOM     22  C23 1CG d          -7.153  45.117  39.743  0.00  0.00     0.270 C 
ATOM     23  O26 1CG d          -6.120  44.714  40.208  0.00  0.00    -0.640 OA
ATOM     24  O25 1CG d          -7.381  46.398  39.735  0.00  0.00    -0.640 OA
ENDBRANCH  19  22
ENDBRANCH  15  18
ENDBRANCH  11  12
ENDBRANCH   1  11
BRANCH   1  25
ATOM     25  S9  1CG d         -12.805  39.550  32.877  0.00  0.00     0.243 S 
ATOM     26  O10 1CG d         -13.188  40.658  32.012  0.00  0.00    -0.205 OA
ATOM     27  O11 1CG d         -14.057  39.064  33.401  0.00  0.00    -0.205 OA
BRANCH  25  28
ATOM     28  N8  1CG d         -11.971  38.424  32.112  0.00  0.00    -0.284 N 
ATOM     29  H11 1CG d         -11.079  38.698  31.754  0.00  0.00     0.178 HD
BRANCH  28  30
ATOM     30  C5  1CG d         -12.338  37.138  31.894  0.00  0.00     0.042 A 
ATOM     31  C4  1CG d         -13.556  36.602  32.297  0.00  0.00     0.033 A 
ATOM     32  C3  1CG d         -13.870  35.263  32.029  0.00  0.00     0.044 A 
ATOM     33  C2  1CG d         -12.985  34.433  31.354  0.00  0.00     0.116 A 
ATOM     34  F7  1CG d         -13.286  33.143  31.089  0.00  0.00    -0.206 F 
ATOM     35  C1  1CG d         -11.777  34.972  30.948  0.00  0.00     0.044 A 
ATOM     36  C6  1CG d         -11.463  36.304  31.213  0.00  0.00     0.033 A 
ENDBRANCH  28  30
ENDBRANCH  25  28
ENDBRANCH   1  25
TORSDOF 8
