REMARK  2 active torsions:
REMARK  status: ('A' for Active; 'I' for Inactive)
REMARK    1  A    between atoms: NAQ_10  and  CAJ_11 
REMARK    2  A    between atoms: CAJ_11  and  CAP_12 
ROOT
ATOM      1  CAH MOL d          12.373  -5.819   1.422  0.00  0.00     0.240 C 
ATOM      2  CAG MOL d          12.832  -4.592   0.583  0.00  0.00     0.067 C 
ATOM      3  CAN MOL d          11.845  -4.246  -0.398  0.00  0.00    -0.049 A 
ATOM      4  CAD MOL d          12.215  -3.335  -1.408  0.00  0.00     0.007 A 
ATOM      5  CAB MOL d          11.293  -2.941  -2.388  0.00  0.00     0.001 A 
ATOM      6  CAC MOL d           9.999  -3.458  -2.378  0.00  0.00     0.001 A 
ATOM      7  CAE MOL d           9.613  -4.374  -1.384  0.00  0.00     0.009 A 
ATOM      8  CAO MOL d          10.520  -4.767  -0.381  0.00  0.00    -0.026 A 
ATOM      9  CAI MOL d          10.073  -5.704   0.607  0.00  0.00     0.274 C 
ATOM     10  NAQ MOL d          10.943  -5.692   1.813  0.00  0.00    -0.062 N 
ATOM     11  H   MOL d          10.819  -4.807   2.280  0.00  0.00     0.280 HD
ENDROOT
BRANCH  10  12
ATOM     12  CAJ MOL d          10.569  -6.769   2.760  0.00  0.00     0.296 C 
BRANCH  12  13
ATOM     13  CAP MOL d          11.385  -6.672   4.070  0.00  0.00     0.083 A 
ATOM     14  NAL MOL d          11.350  -5.658   4.929  0.00  0.00    -0.245 NA
ATOM     15  CAF MOL d          12.209  -5.944   5.922  0.00  0.00     0.207 A 
ATOM     16  NAK MOL d          12.772  -7.141   5.676  0.00  0.00    -0.353 N 
ATOM     17  CAM MOL d          12.259  -7.573   4.526  0.00  0.00     0.032 A 
ATOM     18  H   MOL d          13.464  -7.628   6.263  0.00  0.00     0.166 HD
ATOM     19  CAA MOL d          12.623  -8.897   3.852  0.00  0.00     0.070 C 
ENDBRANCH  12  13
ENDBRANCH  10  12
TORSDOF 2
