REMARK  5 active torsions:
REMARK  status: ('A' for Active; 'I' for Inactive)
REMARK    1  A    between atoms: N1_1  and  S2_2 
REMARK    2  A    between atoms: S2_2  and  C7_5 
REMARK    3  A    between atoms: C10_8  and  C12_10 
REMARK    4  A    between atoms: N15_13  and  C17_15 
REMARK    5  A    between atoms: C20_18  and  O23_21 
ROOT
ATOM      1  C12 82E d         -30.593  -0.864  -1.370  0.00  0.00     0.109 A 
ATOM      2  N13 82E d         -29.732   0.176  -1.309  0.00  0.00    -0.157 NA
ATOM      3  N14 82E d         -30.516   1.325  -1.409  0.00  0.00     0.010 NA
ATOM      4  N15 82E d         -31.817   0.841  -1.529  0.00  0.00    -0.247 N 
ATOM      5  C16 82E d         -31.902  -0.502  -1.558  0.00  0.00     0.148 A 
ENDROOT
BRANCH   1   6
ATOM      6  C10 82E d         -30.067  -2.261  -1.373  0.00  0.00     0.037 A 
ATOM      7  C9  82E d         -30.767  -3.469  -1.253  0.00  0.00     0.023 A 
ATOM      8  C8  82E d         -29.891  -4.573  -1.357  0.00  0.00     0.034 A 
ATOM      9  C7  82E d         -28.555  -4.168  -1.551  0.00  0.00     0.120 A 
ATOM     10  S11 82E d         -28.381  -2.467  -1.589  0.00  0.00    -0.074 SA
BRANCH   9  11
ATOM     11  S2  82E d         -27.257  -5.182  -1.778  0.00  0.00     0.263 S 
ATOM     12  O5  82E d         -26.013  -4.475  -1.752  0.00  0.00    -0.200 OA
ATOM     13  O6  82E d         -27.472  -5.737  -3.101  0.00  0.00    -0.200 OA
BRANCH  11  14
ATOM     14  N1  82E d         -27.324  -6.381  -0.727  0.00  0.00    -0.324 N 
ATOM     15  H1  82E d         -27.198  -6.199   0.248  0.00  0.00     0.169 HD
ATOM     16  H2  82E d         -27.492  -7.315  -1.044  0.00  0.00     0.169 HD
ENDBRANCH  11  14
ENDBRANCH   9  11
ENDBRANCH   1   6
BRANCH   4  17
ATOM     17  C17 82E d         -32.825   1.719  -1.689  0.00  0.00     0.054 A 
ATOM     18  C18 82E d         -33.952   1.403  -2.452  0.00  0.00     0.034 A 
ATOM     19  C19 82E d         -34.992   2.290  -2.675  0.00  0.00     0.039 A 
ATOM     20  C20 82E d         -34.952   3.576  -2.145  0.00  0.00     0.068 A 
ATOM     21  C21 82E d         -33.843   3.939  -1.374  0.00  0.00     0.039 A 
ATOM     22  C22 82E d         -32.804   3.025  -1.165  0.00  0.00     0.034 A 
BRANCH  20  23
ATOM     23  O23 82E d         -35.981   4.474  -2.341  0.00  0.00    -0.356 OA
ATOM     24  C24 82E d         -37.229   4.114  -2.972  0.00  0.00     0.210 C 
ENDBRANCH  20  23
ENDBRANCH   4  17
TORSDOF 5
