REMARK  3 active torsions:
REMARK  status: ('A' for Active; 'I' for Inactive)
REMARK    1  A    between atoms: N2_2  and  C4_4 
REMARK    2  A    between atoms: C7_7  and  C11_16 
REMARK    3  A    between atoms: C6_8  and  C10_9 
ROOT
ATOM      1  C4  LM3 d          -1.216   3.260  21.555  0.00  0.00     0.148 A 
ATOM      2  N9  LM3 d          -1.912   3.800  20.511  0.00  0.00    -0.132 NA
ATOM      3  N8  LM3 d          -2.861   3.161  19.915  0.00  0.00    -0.147 NA
ATOM      4  C7  LM3 d          -3.206   1.874  20.253  0.00  0.00     0.101 A 
ATOM      5  C6  LM3 d          -2.579   1.263  21.335  0.00  0.00     0.009 A 
ATOM      6  C5  LM3 d          -1.553   1.965  21.973  0.00  0.00     0.067 A 
ENDROOT
BRANCH   4   7
ATOM      7  C11 LM3 d          -4.331   1.301  19.489  0.00  0.00     0.006 A 
ATOM      8  C16 LM3 d          -4.327   1.101  18.135  0.00  0.00    -0.013 A 
ATOM      9  C25 LM3 d          -3.229   1.399  17.353  0.00  0.00     0.013 A 
ATOM     10  C15 LM3 d          -5.478   0.577  17.536  0.00  0.00    -0.025 A 
ATOM     11  C24 LM3 d          -3.277   1.142  15.989  0.00  0.00     0.001 A 
ATOM     12  C23 LM3 d          -4.414   0.624  15.412  0.00  0.00     0.001 A 
ATOM     13  C22 LM3 d          -5.532   0.330  16.177  0.00  0.00     0.012 A 
ATOM     14  C14 LM3 d          -6.581   0.279  18.280  0.00  0.00     0.012 A 
ATOM     15  C13 LM3 d          -6.593   0.507  19.626  0.00  0.00     0.002 A 
ATOM     16  C12 LM3 d          -5.472   1.010  20.218  0.00  0.00     0.015 A 
ENDBRANCH   4   7
BRANCH   5  17
ATOM     17  C10 LM3 d          -2.876  -0.136  21.757  0.00  0.00    -0.021 A 
ATOM     18  C21 LM3 d          -3.113  -0.470  23.075  0.00  0.00     0.031 A 
ATOM     19  C20 LM3 d          -3.335  -1.800  23.402  0.00  0.00     0.117 A 
ATOM     20  N19 LM3 d          -3.310  -2.789  22.433  0.00  0.00    -0.273 NA
ATOM     21  C18 LM3 d          -3.064  -2.459  21.104  0.00  0.00     0.117 A 
ATOM     22  C17 LM3 d          -2.838  -1.133  20.787  0.00  0.00     0.031 A 
ENDBRANCH   5  17
BRANCH   1  23
ATOM     23  N2  LM3 d          -0.205   4.072  22.134  0.00  0.00    -0.373 N 
ATOM     24  C3  LM3 d           0.243   5.328  21.517  0.00  0.00     0.150 C 
ATOM     25  C1  LM3 d           0.520   3.794  23.379  0.00  0.00     0.150 C 
ENDBRANCH   1  23
TORSDOF 3
