REMARK  14 active torsions:
REMARK  status: ('A' for Active; 'I' for Inactive)
REMARK    1  A    between atoms: C2_1  and  O39_2 
REMARK    2  A    between atoms: S8_9  and  C5_6 
REMARK    3  A    between atoms: N11_12  and  S8_9 
REMARK    4  A    between atoms: N11_12  and  C12_13 
REMARK    5  A    between atoms: C16_17  and  N11_12 
REMARK    6  A    between atoms: C12_13  and  C13_14 
REMARK    7  A    between atoms: C17_18  and  C16_17 
REMARK    8  A    between atoms: C17_18  and  O18_19 
REMARK    9  A    between atoms: C19_20  and  C17_18 
REMARK   10  A    between atoms: C19_20  and  N20_21 
REMARK   11  A    between atoms: C32_32  and  C19_20 
REMARK       I    between atoms: N20_21  and  C21_22 
REMARK   12  A    between atoms: C21_22  and  O23_24 
REMARK   13  A    between atoms: O23_24  and  C24_25 
REMARK   14  A    between atoms: C38_38  and  C32_32 
ROOT
ATOM      1  C17 G55 d          15.344  24.291  18.131  0.00  0.00     0.160 C 
ENDROOT
BRANCH   1   2
ATOM      2  C16 G55 d          16.437  25.196  17.583  0.00  0.00     0.169 C 
BRANCH   2   3
ATOM      3  N11 G55 d          17.732  24.540  17.505  0.00  0.00    -0.304 N 
BRANCH   3   4
ATOM      4  S8  G55 d          18.381  24.222  16.038  0.00  0.00     0.260 S 
ATOM      5  O9  G55 d          17.300  24.119  15.075  0.00  0.00    -0.200 OA
ATOM      6  O10 G55 d          19.246  23.113  16.229  0.00  0.00    -0.200 OA
BRANCH   4   7
ATOM      7  C5  G55 d          19.346  25.628  15.539  0.00  0.00     0.079 C 
ATOM      8  C4  G55 d          20.736  25.597  15.811  0.00  0.00     0.028 C 
ATOM      9  C3  G55 d          21.461  26.726  15.541  0.00  0.00     0.038 C 
ATOM     10  C2  G55 d          20.869  27.890  15.059  0.00  0.00     0.068 C 
ATOM     11  C7  G55 d          19.515  27.814  14.660  0.00  0.00     0.038 C 
ATOM     12  C6  G55 d          18.755  26.706  14.939  0.00  0.00     0.028 C 
BRANCH  10  13
ATOM     13  O39 G55 d          21.493  29.041  14.763  0.00  0.00    -0.356 OA
ATOM     14  C40 G55 d          22.877  29.103  15.088  0.00  0.00     0.210 C 
ENDBRANCH  10  13
ENDBRANCH   4   7
ENDBRANCH   3   4
BRANCH   3  15
ATOM     15  C12 G55 d          18.661  24.819  18.572  0.00  0.00     0.139 C 
BRANCH  15  16
ATOM     16  C13 G55 d          18.361  24.124  19.932  0.00  0.00    -0.004 C 
ATOM     17  C14 G55 d          18.470  22.622  19.776  0.00  0.00     0.011 C 
ATOM     18  C15 G55 d          19.419  24.675  20.882  0.00  0.00     0.011 C 
ENDBRANCH  15  16
ENDBRANCH   3  15
ENDBRANCH   2   3
ENDBRANCH   1   2
BRANCH   1  19
ATOM     19  O18 G55 d          14.173  25.100  18.429  0.00  0.00    -0.392 OA
ATOM     20  H20 G55 d          13.484  24.543  18.772  0.00  0.00     0.210 HD
ENDBRANCH   1  19
BRANCH   1  21
ATOM     21  C19 G55 d          14.928  23.125  17.193  0.00  0.00     0.121 C 
BRANCH  21  22
ATOM     22  N20 G55 d          14.055  22.193  17.921  0.00  0.00    -0.329 N 
ATOM     23  C21 G55 d          14.440  21.011  18.364  0.00  0.00     0.361 C 
ATOM     24  O22 G55 d          15.533  20.583  18.269  0.00  0.00    -0.238 OA
ATOM     25  H22 G55 d          13.110  22.472  18.091  0.00  0.00     0.165 HD
BRANCH  23  26
ATOM     26  O23 G55 d          13.451  20.339  19.002  0.00  0.00    -0.296 OA
BRANCH  26  27
ATOM     27  C24 G55 d          13.767  18.994  19.378  0.00  0.00     0.159 C 
ATOM     28  C25 G55 d          12.794  18.591  20.460  0.00  0.00     0.203 C 
ATOM     29  O26 G55 d          11.440  18.657  20.087  0.00  0.00    -0.364 OA
ATOM     30  C27 G55 d          10.848  17.560  19.450  0.00  0.00     0.337 C 
ATOM     31  O28 G55 d          11.659  16.919  18.512  0.00  0.00    -0.367 OA
ATOM     32  C29 G55 d          12.261  17.857  17.612  0.00  0.00     0.173 C 
ATOM     33  C30 G55 d          13.657  18.148  18.120  0.00  0.00     0.061 C 
ENDBRANCH  26  27
ENDBRANCH  23  26
ENDBRANCH  21  22
BRANCH  21  34
ATOM     34  C32 G55 d          14.156  23.560  15.957  0.00  0.00     0.066 C 
BRANCH  34  35
ATOM     35  C38 G55 d          13.869  22.400  15.045  0.00  0.00    -0.056 A 
ATOM     36  C33 G55 d          12.617  21.786  15.045  0.00  0.00     0.007 A 
ATOM     37  C34 G55 d          12.411  20.617  14.352  0.00  0.00     0.001 A 
ATOM     38  C35 G55 d          13.404  20.047  13.556  0.00  0.00     0.000 A 
ATOM     39  C36 G55 d          14.632  20.698  13.469  0.00  0.00     0.001 A 
ATOM     40  C37 G55 d          14.866  21.862  14.227  0.00  0.00     0.007 A 
ENDBRANCH  34  35
ENDBRANCH  21  34
ENDBRANCH   1  21
TORSDOF 14
