REMARK  12 active torsions:
REMARK  status: ('A' for Active; 'I' for Inactive)
REMARK    1  A    between atoms: CAZ_26  and  CAY_25 
REMARK    2  A    between atoms: CAY_25  and  CBA_27 
REMARK    3  A    between atoms: CBB_28  and  CAZ_26 
REMARK    4  A    between atoms: CBA_27  and  CBF_32 
REMARK    5  A    between atoms: CBG_33  and  CBB_28 
REMARK    6  A    between atoms: CBH_34  and  CBC_29 
REMARK    7  A    between atoms: CBC_29  and  NBO_41 
REMARK    8  A    between atoms: CBD_30  and  CBI_35 
REMARK    9  A    between atoms: NBP_42  and  CBD_30 
REMARK   10  A    between atoms: CBJ_36  and  NBM_39 
REMARK   11  A    between atoms: NBN_40  and  CBK_37 
REMARK   12  A    between atoms: CBL_38  and  NBN_40 
ROOT
ATOM      1  CAI G8S d          19.313  -8.802   4.758  0.00  0.00     0.007 A 
ATOM      2  CAJ G8S d          21.318  -8.316   3.515  0.00  0.00     0.007 A 
ATOM      3  CAM G8S d          19.775 -10.110   4.997  0.00  0.00     0.009 A 
ATOM      4  CAN G8S d          21.782  -9.621   3.752  0.00  0.00     0.009 A 
ATOM      5  CBG G8S d          20.073  -7.889   4.008  0.00  0.00    -0.058 A 
ATOM      6  CBI G8S d          21.018 -10.526   4.510  0.00  0.00    -0.040 A 
ENDROOT
BRANCH   5   7
ATOM      7  CBB G8S d          19.579  -6.568   3.781  0.00  0.00     0.038 C 
BRANCH   7   8
ATOM      8  CAZ G8S d          19.771  -6.106   2.306  0.00  0.00     0.005 C 
BRANCH   8   9
ATOM      9  CAY G8S d          18.802  -4.959   1.859  0.00  0.00     0.005 C 
BRANCH   9  10
ATOM     10  CBA G8S d          18.041  -5.304   0.527  0.00  0.00     0.038 C 
BRANCH  10  11
ATOM     11  CBF G8S d          17.143  -6.270   0.918  0.00  0.00    -0.058 A 
ATOM     12  CAG G8S d          15.840  -5.910   1.263  0.00  0.00     0.007 A 
ATOM     13  CAK G8S d          14.977  -6.911   1.706  0.00  0.00     0.009 A 
ATOM     14  CBH G8S d          15.424  -8.243   1.788  0.00  0.00    -0.040 A 
ATOM     15  CAL G8S d          16.743  -8.591   1.483  0.00  0.00     0.009 A 
ATOM     16  CAH G8S d          17.595  -7.592   1.034  0.00  0.00     0.007 A 
BRANCH  14  17
ATOM     17  CBC G8S d          14.599  -9.223   2.321  0.00  0.00     0.166 C 
BRANCH  17  18
ATOM     18  NBO G8S d          15.027  -9.087   3.769  0.00  0.00    -0.362 N 
ATOM     19  CAU G8S d          15.415  -7.791   4.203  0.00  0.00     0.093 A 
ATOM     20  CAQ G8S d          15.857  -7.510   5.483  0.00  0.00     0.046 A 
ATOM     21  CBJ G8S d          15.926  -8.545   6.404  0.00  0.00     0.032 A 
ATOM     22  CAR G8S d          15.556  -9.846   6.006  0.00  0.00     0.046 A 
ATOM     23  CAV G8S d          15.115 -10.138   4.702  0.00  0.00     0.093 A 
BRANCH  21  24
ATOM     24  NBM G8S d          16.352  -8.236   7.641  0.00  0.00    -0.389 N 
ATOM     25  CAA G8S d          16.742  -6.832   7.915  0.00  0.00     0.149 C 
ATOM     26  CAB G8S d          16.401  -9.282   8.683  0.00  0.00     0.149 C 
ENDBRANCH  21  24
ENDBRANCH  17  18
ENDBRANCH  14  17
ENDBRANCH  10  11
ENDBRANCH   9  10
ENDBRANCH   8   9
ENDBRANCH   7   8
ENDBRANCH   5   7
BRANCH   6  27
ATOM     27  CBD G8S d          21.498 -11.838   4.709  0.00  0.00     0.166 C 
BRANCH  27  28
ATOM     28  NBP G8S d          21.588 -12.349   6.119  0.00  0.00    -0.363 N 
ATOM     29  CAW G8S d          20.859 -13.505   6.517  0.00  0.00     0.089 A 
ATOM     30  CAS G8S d          20.960 -13.990   7.831  0.00  0.00     0.019 A 
ATOM     31  CBL G8S d          21.800 -13.346   8.772  0.00  0.00     0.133 A 
ATOM     32  CAT G8S d          22.519 -12.209   8.360  0.00  0.00     0.019 A 
ATOM     33  CAX G8S d          22.430 -11.721   7.054  0.00  0.00     0.089 A 
BRANCH  31  34
ATOM     34  NBN G8S d          21.922 -13.794  10.051  0.00  0.00    -0.374 N 
ATOM     35  CAC G8S d          21.263 -15.048  10.471  0.00  0.00     0.150 C 
BRANCH  34  36
ATOM     36  CBK G8S d          22.646 -13.086  10.960  0.00  0.00     0.030 A 
ATOM     37  CAO G8S d          24.032 -13.291  11.086  0.00  0.00     0.031 A 
ATOM     38  CAE G8S d          24.778 -12.555  12.013  0.00  0.00     0.026 A 
ATOM     39  CBE G8S d          24.123 -11.618  12.816  0.00  0.00     0.034 A 
ATOM     40 CL   G8S d          25.064 -10.680  13.972  0.00  0.00    -0.084 Cl
ATOM     41  CAF G8S d          22.739 -11.410  12.697  0.00  0.00     0.026 A 
ATOM     42  CAP G8S d          21.997 -12.154  11.772  0.00  0.00     0.031 A 
ENDBRANCH  34  36
ENDBRANCH  31  34
ENDBRANCH  27  28
ENDBRANCH   6  27
TORSDOF 12
