REMARK  6 active torsions:
REMARK  status: ('A' for Active; 'I' for Inactive)
REMARK    1  A    between atoms: O5'_1  and  C5'_2 
REMARK    2  A    between atoms: C5'_2  and  C4'_3 
REMARK    3  A    between atoms: C3'_5  and  O3'_6 
REMARK    4  A    between atoms: C2'_7  and  O2'_8 
REMARK    5  A    between atoms: C1'_9  and  N9_10 
REMARK    6  A    between atoms: C6_14  and  N6_15 
ROOT
ATOM      1  C4' ADN d          42.961   4.515  11.544  0.00  0.00     0.179 C 
ATOM      2  O4' ADN d          43.339   4.024  10.244  0.00  0.00    -0.353 OA
ATOM      3  C3' ADN d          43.954   3.925  12.549  0.00  0.00     0.182 C 
ATOM      4  C2' ADN d          45.189   3.747  11.670  0.00  0.00     0.198 C 
ATOM      5  C1' ADN d          44.548   3.255  10.373  0.00  0.00     0.262 C 
ENDROOT
BRANCH   5   6
ATOM      6  N9  ADN d          45.473   3.453   9.234  0.00  0.00    -0.294 N 
ATOM      7  C8  ADN d          45.852   4.628   8.735  0.00  0.00     0.214 A 
ATOM      8  N7  ADN d          46.722   4.433   7.745  0.00  0.00    -0.236 NA
ATOM      9  C5  ADN d          46.899   3.122   7.610  0.00  0.00     0.149 A 
ATOM     10  C6  ADN d          47.672   2.330   6.770  0.00  0.00     0.155 A 
ATOM     11  C4  ADN d          46.098   2.496   8.555  0.00  0.00     0.167 A 
ATOM     12  N1  ADN d          47.614   0.998   6.901  0.00  0.00    -0.222 NA
ATOM     13  C2  ADN d          46.836   0.436   7.811  0.00  0.00     0.237 A 
ATOM     14  N3  ADN d          46.090   1.158   8.627  0.00  0.00    -0.222 NA
BRANCH  10  15
ATOM     15  N6  ADN d          48.464   2.880   5.854  0.00  0.00    -0.382 N 
ATOM     16  H11 ADN d          49.032   2.281   5.238  0.00  0.00     0.157 HD
ATOM     17  H12 ADN d          48.510   3.905   5.761  0.00  0.00     0.157 HD
ENDBRANCH  10  15
ENDBRANCH   5   6
BRANCH   4  18
ATOM     18  O2' ADN d          46.109   2.799  12.217  0.00  0.00    -0.388 OA
ATOM     19  H8  ADN d          45.681   1.955  12.300  0.00  0.00     0.210 HD
ENDBRANCH   4  18
BRANCH   1  20
ATOM     20  C5' ADN d          43.015   6.044  11.547  0.00  0.00     0.198 C 
BRANCH  20  21
ATOM     21  O5' ADN d          44.317   6.475  11.142  0.00  0.00    -0.398 OA
ATOM     22  H1  ADN d          44.498   6.153  10.267  0.00  0.00     0.209 HD
ENDBRANCH  20  21
ENDBRANCH   1  20
BRANCH   3  23
ATOM     23  O3' ADN d          43.507   2.662  13.049  0.00  0.00    -0.390 OA
ATOM     24  H6  ADN d          44.144   2.324  13.668  0.00  0.00     0.210 HD
ENDBRANCH   3  23
TORSDOF 6
