4dds_ligand

Created by X-TOOL on Fri Sep 26 17:34:54 2014
 39 42  0  0  0  0  0  0  0  0999 V2000
   -9.2330   55.6610   13.5100  O 0  0  0  1  0  1
   -8.7990   55.8140   12.3560  C 0  0  0  1  0  3
   -7.7420   55.1140   11.9120  N 0  0  0  2  0  3
   -6.9370   54.2790   12.7340  C 0  0  0  1  0  3
   -5.5800   54.1940   12.3660  C 0  0  0  2  0  3
   -7.4130   53.5870   13.8670  C 0  0  0  2  0  3
   -6.4720   52.8850   14.6180  C 0  0  0  2  0  3
   -5.1060   52.8230   14.2610  C 0  0  0  2  0  3
   -4.6530   53.4540   13.1030  C 0  0  0  1  0  3
   -3.2170   53.4210   12.6940  C 0  0  0  1  0  3
   -2.1730   53.0750   13.4960  N 0  0  0  1  0  2
   -0.9840   53.1370   12.7530  N 0  0  0  2  0  3
   -1.3510   53.4880   11.4480  N 0  0  0  1  0  2
   -2.7300   53.6020   11.4300  N 0  0  0  1  0  2
   -9.5620   56.7340   11.4250  C 0  0  0  1  0  3
   -9.1970   56.9220   10.1020  C 0  0  0  2  0  3
   -9.9310   57.7660    9.2680  C 0  0  0  2  0  3
  -11.0320   58.4690    9.7450  C 0  0  0  2  0  3
  -11.3930   58.3110   11.0700  C 0  0  0  1  0  3
  -10.6620   57.4550   11.9070  C 0  0  0  2  0  3
  -12.6070   59.0070   11.6010  C 0  0  0  1  0  3
  -13.1660   60.0330   10.9160  N 0  0  0  1  0  2
  -14.2560   60.6510   11.3520  C 0  0  0  2  0  3
  -14.8090   60.2420   12.5420  C 0  0  0  2  0  3
  -14.2490   59.1930   13.2380  C 0  0  0  2  0  3
  -13.1520   58.5890   12.7630  N 0  0  0  1  0  2
   -7.5067   55.1847   10.9427  H 0  0  0  1  0  1
   -5.2438   54.7210   11.4804  H 0  0  0  1  0  1
   -8.4617   53.6005   14.1409  H 0  0  0  1  0  1
   -6.8008   52.3661   15.5111  H 0  0  0  1  0  1
   -4.4076   52.2828   14.8899  H 0  0  0  1  0  1
   -0.0303   52.9595   13.0991  H 0  0  0  1  0  1
   -8.3285   56.4059    9.7090  H 0  0  0  1  0  1
   -9.6380   57.8757    8.2301  H 0  0  0  1  0  1
  -11.5947   59.1264    9.0922  H 0  0  0  1  0  1
  -10.9536   57.3495   12.9457  H 0  0  0  1  0  1
  -14.7001   61.4597   10.7830  H 0  0  0  1  0  1
  -15.6860   60.7449   12.9331  H 0  0  0  1  0  1
  -14.6950   58.8575   14.1673  H 0  0  0  1  0  1
  1  2  2  0  0  2
  2  3  1  0  0  2
  2 15  1  0  0  2
  3  4  1  0  0  2
  4  5  4  0  0  1
  4  6  4  0  0  1
  5  9  4  0  0  1
  6  7  4  0  0  1
  7  8  4  0  0  1
  8  9  4  0  0  1
  9 10  1  0  0  2
 10 11  2  0  0  1
 10 14  1  0  0  1
 11 12  1  0  0  1
 12 13  1  0  0  1
 13 14  2  0  0  1
 15 16  4  0  0  1
 15 20  4  0  0  1
 16 17  4  0  0  1
 17 18  4  0  0  1
 18 19  4  0  0  1
 19 20  4  0  0  1
 19 21  1  0  0  2
 21 22  4  0  0  1
 21 26  4  0  0  1
 22 23  4  0  0  1
 23 24  4  0  0  1
 24 25  4  0  0  1
 25 26  4  0  0  1
  3 27  1  0  0  2
  5 28  1  0  0  2
  6 29  1  0  0  2
  7 30  1  0  0  2
  8 31  1  0  0  2
 12 32  1  0  0  2
 16 33  1  0  0  2
 17 34  1  0  0  2
 18 35  1  0  0  2
 20 36  1  0  0  2
 23 37  1  0  0  2
 24 38  1  0  0  2
 25 39  1  0  0  2
M  END
> <MOLECULAR_FORMULA>
C18H13N7O

> <MOLECULAR_WEIGHT>
343.2

> <NUM_HB_ATOMS>
8  

> <NUM_ROTOR>
0  

> <XLOGP2>
2.85 

$$$$
