REMARK  4 active torsions:
REMARK  status: ('A' for Active; 'I' for Inactive)
REMARK       I    between atoms: C13_2  and  N12_3 
REMARK    1  A    between atoms: C13_2  and  C14_15 
REMARK    2  A    between atoms: N12_3  and  C8_4 
REMARK    3  A    between atoms: C6_9  and  C5_10 
REMARK    4  A    between atoms: C16_19  and  C20_21 
ROOT
ATOM      1  O26 MOL d          -9.233  55.661  13.510  0.00  0.00    -0.267 OA
ATOM      2  C13 MOL d          -8.799  55.814  12.356  0.00  0.00     0.256 C 
ATOM      3  N12 MOL d          -7.742  55.114  11.912  0.00  0.00    -0.323 N 
ATOM      4  H1  MOL d          -7.507  55.185  10.943  0.00  0.00     0.169 HD
ENDROOT
BRANCH   2   5
ATOM      5  C14 MOL d          -9.562  56.734  11.425  0.00  0.00     0.033 A 
ATOM      6  C19 MOL d          -9.197  56.922  10.102  0.00  0.00     0.017 A 
ATOM      7  C18 MOL d          -9.931  57.766   9.268  0.00  0.00     0.002 A 
ATOM      8  C17 MOL d         -11.032  58.469   9.745  0.00  0.00     0.015 A 
ATOM      9  C16 MOL d         -11.393  58.311  11.070  0.00  0.00     0.013 A 
ATOM     10  C15 MOL d         -10.662  57.455  11.907  0.00  0.00     0.032 A 
BRANCH   9  11
ATOM     11  C20 MOL d         -12.607  59.007  11.601  0.00  0.00     0.159 A 
ATOM     12  N25 MOL d         -13.166  60.033  10.916  0.00  0.00    -0.241 NA
ATOM     13  C24 MOL d         -14.256  60.651  11.352  0.00  0.00     0.120 A 
ATOM     14  C23 MOL d         -14.809  60.242  12.542  0.00  0.00     0.038 A 
ATOM     15  C22 MOL d         -14.249  59.193  13.238  0.00  0.00     0.120 A 
ATOM     16  N21 MOL d         -13.152  58.589  12.763  0.00  0.00    -0.241 NA
ENDBRANCH   9  11
ENDBRANCH   2   5
BRANCH   3  17
ATOM     17  C8  MOL d          -6.937  54.279  12.734  0.00  0.00     0.035 A 
ATOM     18  C7  MOL d          -5.580  54.194  12.366  0.00  0.00     0.045 A 
ATOM     19  C6  MOL d          -4.653  53.454  13.103  0.00  0.00     0.017 A 
ATOM     20  C11 MOL d          -5.106  52.823  14.261  0.00  0.00     0.015 A 
ATOM     21  C10 MOL d          -6.472  52.885  14.618  0.00  0.00     0.003 A 
ATOM     22  C9  MOL d          -7.413  53.587  13.867  0.00  0.00     0.029 A 
BRANCH  19  23
ATOM     23  C5  MOL d          -3.217  53.421  12.694  0.00  0.00     0.198 A 
ATOM     24  N4  MOL d          -2.173  53.075  13.496  0.00  0.00    -0.139 NA
ATOM     25  N3  MOL d          -0.984  53.137  12.753  0.00  0.00    -0.200 N 
ATOM     26  N2  MOL d          -1.351  53.488  11.448  0.00  0.00     0.022 NA
ATOM     27  H6  MOL d          -0.030  52.959  13.099  0.00  0.00     0.208 HD
ATOM     28  N1  MOL d          -2.730  53.602  11.430  0.00  0.00    -0.136 NA
ENDBRANCH  19  23
ENDBRANCH   3  17
TORSDOF 4
