REMARK  10 active torsions:
REMARK  status: ('A' for Active; 'I' for Inactive)
REMARK    1  A    between atoms: C2_2  and  N1_3 
REMARK    2  A    between atoms: C2_2  and  P4_4 
REMARK    3  A    between atoms: P4_4  and  C7_7 
REMARK    4  A    between atoms: C7_7  and  C8_8 
REMARK    5  A    between atoms: C8_8  and  C10_9 
REMARK    6  A    between atoms: C8_8  and  C9_17 
REMARK       I    between atoms: C10_9  and  N24_11 
REMARK    7  A    between atoms: N24_11  and  C25_12 
REMARK    8  A    between atoms: C25_12  and  C27_14 
REMARK    9  A    between atoms: C9_17  and  C11_18 
REMARK   10  A    between atoms: C14_21  and  C17_24 
ROOT
ATOM      1  C8  BIR d          30.148  44.742  33.211  0.00  0.00     0.092 C 
ENDROOT
BRANCH   1   2
ATOM      2  C7  BIR d          28.861  44.556  32.394  0.00  0.00     0.120 C 
BRANCH   2   3
ATOM      3  P4  BIR d          29.016  43.502  31.026  0.00  0.00     0.137 P 
ATOM      4  O6  BIR d          30.230  42.650  31.223  0.00  0.00    -0.666 OA
ATOM      5  O5  BIR d          28.936  44.315  29.767  0.00  0.00    -0.666 OA
BRANCH   3   6
ATOM      6  C2  BIR d          27.708  42.362  31.092  0.00  0.00     0.270 C 
ATOM      7  C3  BIR d          27.859  41.356  29.945  0.00  0.00     0.051 C 
BRANCH   6   8
ATOM      8  N1  BIR d          26.400  42.999  31.015  0.00  0.00    -0.066 N 
ATOM      9  H5  BIR d          25.680  42.295  31.058  0.00  0.00     0.275 HD
ATOM     10  H6  BIR d          26.323  43.505  30.147  0.00  0.00     0.275 HD
ATOM     11  H7  BIR d          26.291  43.638  31.787  0.00  0.00     0.275 HD
ENDBRANCH   6   8
ENDBRANCH   3   6
ENDBRANCH   2   3
ENDBRANCH   1   2
BRANCH   1  12
ATOM     12  C10 BIR d          30.375  43.578  34.141  0.00  0.00     0.223 C 
ATOM     13  O23 BIR d          31.501  43.177  34.391  0.00  0.00    -0.273 OA
ATOM     14  N24 BIR d          29.310  42.986  34.665  0.00  0.00    -0.347 N 
ATOM     15  H11 BIR d          28.385  43.263  34.404  0.00  0.00     0.163 HD
BRANCH  14  16
ATOM     16  C25 BIR d          29.528  41.922  35.631  0.00  0.00     0.181 C 
ATOM     17  C26 BIR d          29.447  42.472  37.053  0.00  0.00     0.043 C 
BRANCH  16  18
ATOM     18  C27 BIR d          28.525  40.835  35.461  0.00  0.00     0.196 C 
ATOM     19  O28 BIR d          27.600  40.977  34.658  0.00  0.00    -0.646 OA
ATOM     20  O29 BIR d          28.647  39.816  36.123  0.00  0.00    -0.646 OA
ENDBRANCH  16  18
ENDBRANCH  14  16
ENDBRANCH   1  12
BRANCH   1  21
ATOM     21  C9  BIR d          30.052  46.051  34.009  0.00  0.00     0.053 C 
BRANCH  21  22
ATOM     22  C11 BIR d          31.328  46.340  34.747  0.00  0.00    -0.057 A 
ATOM     23  C12 BIR d          31.318  46.489  36.132  0.00  0.00     0.008 A 
ATOM     24  C13 BIR d          32.501  46.740  36.819  0.00  0.00     0.013 A 
ATOM     25  C14 BIR d          33.717  46.841  36.131  0.00  0.00    -0.026 A 
ATOM     26  C15 BIR d          33.717  46.695  34.739  0.00  0.00     0.013 A 
ATOM     27  C16 BIR d          32.533  46.448  34.054  0.00  0.00     0.008 A 
BRANCH  25  28
ATOM     28  C17 BIR d          34.970  47.086  36.855  0.00  0.00    -0.026 A 
ATOM     29  C18 BIR d          36.121  46.348  36.552  0.00  0.00     0.012 A 
ATOM     30  C19 BIR d          37.310  46.574  37.240  0.00  0.00     0.001 A 
ATOM     31  C20 BIR d          37.365  47.544  38.238  0.00  0.00     0.000 A 
ATOM     32  C21 BIR d          36.226  48.285  38.547  0.00  0.00     0.001 A 
ATOM     33  C22 BIR d          35.037  48.056  37.862  0.00  0.00     0.012 A 
ENDBRANCH  25  28
ENDBRANCH  21  22
ENDBRANCH   1  21
TORSDOF 10
