REMARK  8 active torsions:
REMARK  status: ('A' for Active; 'I' for Inactive)
REMARK    1  A    between atoms: C4A_8  and  N_1 
REMARK    2  A    between atoms: N_1  and  CA_17 
REMARK    3  A    between atoms: C3_5  and  O3A_6 
REMARK    4  A    between atoms: C4_7  and  C4A_8 
REMARK    5  A    between atoms: C5_9  and  C5A_10 
REMARK    6  A    between atoms: C5A_10  and  OP4_11 
REMARK    7  A    between atoms: OP4_11  and  P_12 
REMARK    8  A    between atoms: CA_17  and  C_19 
ROOT
ATOM      1  N1  PDD d          74.687  38.607  62.428  0.00  0.00    -0.262 NA
ATOM      2  C2  PDD d          74.592  37.672  63.422  0.00  0.00     0.064 A 
ATOM      3  C2A PDD d          73.872  38.043  64.684  0.00  0.00     0.073 C 
ATOM      4  C3  PDD d          75.198  36.386  63.186  0.00  0.00     0.098 A 
ATOM      5  C4  PDD d          75.880  36.138  61.929  0.00  0.00     0.012 A 
ATOM      6  C5  PDD d          75.934  37.195  60.939  0.00  0.00    -0.006 A 
ATOM      7  C6  PDD d          75.321  38.411  61.231  0.00  0.00     0.127 A 
ENDROOT
BRANCH   5   8
ATOM      8  C4A PDD d          76.516  34.762  61.726  0.00  0.00     0.275 C 
BRANCH   8   9
ATOM      9  N   PDD d          75.648  33.614  62.145  0.00  0.00    -0.058 N 
ATOM     10  H1  PDD d          75.157  33.266  61.336  0.00  0.00     0.278 HD
ATOM     11  H2  PDD d          74.982  33.943  62.827  0.00  0.00     0.278 HD
BRANCH   9  12
ATOM     12  CA  PDD d          76.450  32.481  62.753  0.00  0.00     0.282 C 
ATOM     13  CB  PDD d          77.533  31.978  61.792  0.00  0.00     0.052 C 
BRANCH  12  14
ATOM     14  C   PDD d          75.479  31.342  63.157  0.00  0.00     0.204 C 
ATOM     15  O   PDD d          75.536  30.306  62.276  0.00  0.00    -0.646 OA
ATOM     16  OXT PDD d          74.676  31.387  64.200  0.00  0.00    -0.646 OA
ENDBRANCH  12  14
ENDBRANCH   9  12
ENDBRANCH   8   9
ENDBRANCH   5   8
BRANCH   4  17
ATOM     17  O3A PDD d          75.146  35.416  64.113  0.00  0.00    -0.358 OA
ATOM     18  H6  PDD d          75.594  34.644  63.788  0.00  0.00     0.217 HD
ENDBRANCH   4  17
BRANCH   6  19
ATOM     19  C5A PDD d          76.634  37.042  59.589  0.00  0.00     0.223 C 
BRANCH  19  20
ATOM     20  OP4 PDD d          77.330  38.275  59.268  0.00  0.00    -0.278 OA
BRANCH  20  21
ATOM     21  P   PDD d          77.661  38.571  57.724  0.00  0.00     0.422 P 
ATOM     22  OP1 PDD d          76.456  38.150  56.954  0.00  0.00    -0.617 OA
ATOM     23  OP2 PDD d          78.902  37.699  57.366  0.00  0.00    -0.617 OA
ATOM     24  OP3 PDD d          78.078  40.016  57.612  0.00  0.00    -0.617 OA
ENDBRANCH  20  21
ENDBRANCH  19  20
ENDBRANCH   6  19
TORSDOF 8
