REMARK  2 active torsions:
REMARK  status: ('A' for Active; 'I' for Inactive)
REMARK    1  A    between atoms: C1_1  and  C_7 
REMARK    2  A    between atoms: C_7  and  N1_8 
ROOT
ATOM      1  C   BEN d          29.498  15.648  15.457  0.00  0.00     0.102 C 
ATOM      2  N2  BEN d          29.094  16.893  15.322  0.00  0.00    -0.385 N 
ATOM      3  H8  BEN d          28.531  17.335  16.062  0.00  0.00     0.157 HD
ATOM      4  H9  BEN d          29.341  17.426  14.476  0.00  0.00     0.157 HD
ENDROOT
BRANCH   1   5
ATOM      5  C1  BEN d          29.153  14.938  16.613  0.00  0.00     0.007 A 
ATOM      6  C2  BEN d          28.717  15.569  17.779  0.00  0.00     0.015 A 
ATOM      7  C3  BEN d          28.369  14.875  18.919  0.00  0.00     0.001 A 
ATOM      8  C4  BEN d          28.445  13.515  18.928  0.00  0.00     0.000 A 
ATOM      9  C5  BEN d          28.868  12.861  17.799  0.00  0.00     0.001 A 
ATOM     10  C6  BEN d          29.219  13.554  16.660  0.00  0.00     0.015 A 
ENDBRANCH   1   5
BRANCH   1  11
ATOM     11  N1  BEN d          30.221  15.046  14.532  0.00  0.00    -0.385 N 
ATOM     12  H6  BEN d          30.485  15.552  13.675  0.00  0.00     0.157 HD
ATOM     13  H7  BEN d          30.521  14.070  14.667  0.00  0.00     0.157 HD
ENDBRANCH   1  11
TORSDOF 2
