REMARK  4 active torsions:
REMARK  status: ('A' for Active; 'I' for Inactive)
REMARK    1  A    between atoms: C2_2  and  O2_7 
REMARK    2  A    between atoms: C3_3  and  O3_8 
REMARK    3  A    between atoms: C4_4  and  O4_9 
REMARK    4  A    between atoms: C6_6  and  O6_10 
ROOT
ATOM      1  C1  CTS d          -0.507  10.844  10.627  0.00  0.00     0.269 C 
ATOM      2  C2  CTS d           0.333  11.693   9.680  0.00  0.00     0.175 C 
ATOM      3  C3  CTS d          -0.273  11.917   8.297  0.00  0.00     0.179 C 
ATOM      4  C4  CTS d          -1.085  10.694   7.891  0.00  0.00     0.182 C 
ATOM      5  C5  CTS d          -2.328  10.659   8.782  0.00  0.00     0.247 C 
ATOM      6  C6  CTS d          -3.101   9.357   8.724  0.00  0.00     0.153 C 
ATOM      7  N   CTS d          -1.871  10.569  10.182  0.00  0.00    -0.059 N 
ATOM      8  C7  CTS d          -3.845   9.382  10.052  0.00  0.00     0.061 C 
ATOM      9  C8  CTS d          -2.823   9.874  11.051  0.00  0.00     0.238 C 
ATOM     10  H12 CTS d          -2.189  11.494  10.425  0.00  0.00     0.280 HD
ENDROOT
BRANCH   2  11
ATOM     11  O2  CTS d           0.542  12.951  10.304  0.00  0.00    -0.391 OA
ATOM     12  H8  CTS d           0.919  12.817  11.166  0.00  0.00     0.210 HD
ENDBRANCH   2  11
BRANCH   3  13
ATOM     13  O3  CTS d           0.823  12.231   7.431  0.00  0.00    -0.390 OA
ATOM     14  H9  CTS d           0.495  12.400   6.556  0.00  0.00     0.210 HD
ENDBRANCH   3  13
BRANCH   4  15
ATOM     15  O4  CTS d          -1.521  10.818   6.539  0.00  0.00    -0.391 OA
ATOM     16  H10 CTS d          -0.765  10.842   5.965  0.00  0.00     0.210 HD
ENDBRANCH   4  15
BRANCH   6  17
ATOM     17  O6  CTS d          -2.250   8.196   8.824  0.00  0.00    -0.393 OA
ATOM     18  H11 CTS d          -2.782   7.410   8.783  0.00  0.00     0.210 HD
ENDBRANCH   6  17
TORSDOF 4
