REMARK  8 active torsions:
REMARK  status: ('A' for Active; 'I' for Inactive)
REMARK    1  A    between atoms: CA_1  and  C_2 
REMARK    2  A    between atoms: CA_1  and  CB_4 
REMARK    3  A    between atoms: CA_1  and  N_11 
REMARK    4  A    between atoms: CB_4  and  CG_5 
REMARK    5  A    between atoms: CG_5  and  CD_6 
REMARK    6  A    between atoms: CD_6  and  NE_7 
REMARK       I    between atoms: NE_7  and  CZ_8 
REMARK       I    between atoms: CZ_8  and  NH2_9 
REMARK    7  A    between atoms: CAU_12  and  CAS_17 
REMARK    8  A    between atoms: CAQ_15  and  OAM_16 
ROOT
ATOM      1  CA  OP1 d           3.627  18.204   2.913  0.00  0.00     0.292 C 
ENDROOT
BRANCH   1   2
ATOM      2  C   OP1 d           2.303  17.544   3.289  0.00  0.00     0.205 C 
ATOM      3  O   OP1 d           2.319  16.514   4.012  0.00  0.00    -0.646 OA
ATOM      4  OXT OP1 d           1.210  18.094   2.922  0.00  0.00    -0.646 OA
ENDBRANCH   1   2
BRANCH   1   5
ATOM      5  CB  OP1 d           4.263  18.801   4.156  0.00  0.00     0.046 C 
BRANCH   5   6
ATOM      6  CG  OP1 d           3.364  19.638   4.986  0.00  0.00     0.023 C 
BRANCH   6   7
ATOM      7  CD  OP1 d           4.044  20.105   6.212  0.00  0.00     0.138 C 
BRANCH   7   8
ATOM      8  NE  OP1 d           3.278  21.254   6.729  0.00  0.00    -0.227 N 
ATOM      9  CZ  OP1 d           3.679  21.885   7.952  0.00  0.00     0.665 C 
ATOM     10  NH2 OP1 d           2.935  22.947   8.286  0.00  0.00    -0.235 N 
ATOM     11  NH1 OP1 d           4.685  21.441   8.675  0.00  0.00    -0.235 N 
ATOM     12  H   OP1 d           3.143  23.471   9.149  0.00  0.00     0.174 HD
ATOM     13  H   OP1 d           2.155  23.241   7.681  0.00  0.00     0.174 HD
ATOM     14  H   OP1 d           5.219  20.617   8.363  0.00  0.00     0.174 HD
ATOM     15  H   OP1 d           4.938  21.917   9.553  0.00  0.00     0.174 HD
ATOM     16  H   OP1 d           2.457  21.602   6.213  0.00  0.00     0.177 HD
ENDBRANCH   7   8
ENDBRANCH   6   7
ENDBRANCH   5   6
ENDBRANCH   1   5
BRANCH   1  17
ATOM     17  N   OP1 d           3.444  19.165   1.820  0.00  0.00    -0.017 N 
ATOM     18  CAU OP1 d           3.830  20.553   1.626  0.00  0.00     0.292 C 
ATOM     19  CAM OP1 d           3.170  20.991   0.366  0.00  0.00     0.049 C 
ATOM     20  CAK OP1 d           2.971  19.756  -0.465  0.00  0.00     0.064 C 
ATOM     21  CAQ OP1 d           2.898  18.694   0.576  0.00  0.00     0.323 C 
ATOM     22  H   OP1 d           2.555  19.433   2.211  0.00  0.00     0.285 HD
BRANCH  18  23
ATOM     23  CAS OP1 d           5.291  20.645   1.457  0.00  0.00     0.205 C 
ATOM     24  OAH OP1 d           5.999  19.606   1.241  0.00  0.00    -0.646 OA
ATOM     25  OAE OP1 d           5.864  21.757   1.491  0.00  0.00    -0.646 OA
ENDBRANCH  18  23
BRANCH  21  26
ATOM     26  OAM OP1 d           2.884  17.369   0.263  0.00  0.00    -0.369 OA
ATOM     27  H   OP1 d           2.380  16.896   0.915  0.00  0.00     0.212 HD
ENDBRANCH  21  26
ENDBRANCH   1  17
TORSDOF 8
