REMARK  4 active torsions:
REMARK  status: ('A' for Active; 'I' for Inactive)
REMARK    1  A    between atoms: S1_1  and  N2_2 
REMARK    2  A    between atoms: C7_5  and  S1_1 
REMARK    3  A    between atoms: C12_10  and  C9_7 
REMARK    4  A    between atoms: C24_16  and  N14_12 
ROOT
ATOM      1  C12 Y0R d         -30.678  -0.867  -1.350  0.00  0.00     0.109 A 
ATOM      2  C13 Y0R d         -31.996  -0.481  -1.559  0.00  0.00     0.148 A 
ATOM      3  N14 Y0R d         -31.900   0.863  -1.492  0.00  0.00    -0.247 N 
ATOM      4  N15 Y0R d         -30.581   1.327  -1.287  0.00  0.00     0.010 NA
ATOM      5  N16 Y0R d         -29.801   0.169  -1.219  0.00  0.00    -0.157 NA
ENDROOT
BRANCH   1   6
ATOM      6  C9  Y0R d         -30.161  -2.274  -1.363  0.00  0.00     0.037 A 
ATOM      7  S8  Y0R d         -28.452  -2.523  -1.525  0.00  0.00    -0.074 SA
ATOM      8  C7  Y0R d         -28.649  -4.238  -1.465  0.00  0.00     0.120 A 
ATOM      9  C11 Y0R d         -30.007  -4.609  -1.376  0.00  0.00     0.034 A 
ATOM     10  C10 Y0R d         -30.876  -3.478  -1.296  0.00  0.00     0.023 A 
BRANCH   8  11
ATOM     11  S1  Y0R d         -27.354  -5.274  -1.665  0.00  0.00     0.263 S 
ATOM     12  O5  Y0R d         -27.529  -5.781  -3.021  0.00  0.00    -0.200 OA
ATOM     13  O6  Y0R d         -26.073  -4.635  -1.618  0.00  0.00    -0.200 OA
BRANCH  11  14
ATOM     14  N2  Y0R d         -27.398  -6.503  -0.613  0.00  0.00    -0.324 N 
ATOM     15  H1  Y0R d         -28.227  -7.055  -0.523  0.00  0.00     0.169 HD
ATOM     16  H2  Y0R d         -26.596  -6.711  -0.053  0.00  0.00     0.169 HD
ENDBRANCH  11  14
ENDBRANCH   8  11
ENDBRANCH   1   6
BRANCH   3  17
ATOM     17  C24 Y0R d         -32.915   1.754  -1.617  0.00  0.00     0.054 A 
ATOM     18  C25 Y0R d         -34.046   1.574  -2.431  0.00  0.00     0.031 A 
ATOM     19  C26 Y0R d         -35.058   2.539  -2.549  0.00  0.00     0.009 A 
ATOM     20  C27 Y0R d         -34.969   3.755  -1.857  0.00  0.00    -0.062 A 
ATOM     21  C23 Y0R d         -36.034   4.825  -1.938  0.00  0.00     0.048 C 
ATOM     22  C28 Y0R d         -33.856   3.960  -1.043  0.00  0.00     0.009 A 
ATOM     23  C29 Y0R d         -32.865   2.983  -0.935  0.00  0.00     0.031 A 
ENDBRANCH   3  17
TORSDOF 4
