REMARK  7 active torsions:
REMARK  status: ('A' for Active; 'I' for Inactive)
REMARK    1  A    between atoms: C9_6  and  P1_2 
REMARK    2  A    between atoms: C10_8  and  C9_6 
REMARK    3  A    between atoms: C9_6  and  C4_24 
REMARK    4  A    between atoms: C11_16  and  C10_8 
REMARK    5  A    between atoms: C19_20  and  C12_17 
REMARK       I    between atoms: N1_31  and  C19_20 
REMARK    6  A    between atoms: C21_37  and  N1_31 
REMARK       I    between atoms: C26_39  and  N2_34 
REMARK    7  A    between atoms: C27_42  and  C26_39 
ROOT
ATOM      1  C17 OHH d          13.431  67.734   1.592  0.00  0.00     0.012 A 
ATOM      2  C16 OHH d          14.061  67.707   0.284  0.00  0.00     0.001 A 
ATOM      3  C15 OHH d          13.472  68.466  -0.842  0.00  0.00     0.001 A 
ATOM      4  C14 OHH d          12.260  69.271  -0.721  0.00  0.00     0.012 A 
ATOM      5  C4B OHH d          11.583  69.324   0.599  0.00  0.00    -0.025 A 
ATOM      6  C8B OHH d          12.186  68.520   1.838  0.00  0.00    -0.025 A 
ATOM      7  C18 OHH d          11.564  68.546   3.147  0.00  0.00     0.028 A 
ATOM      8  C11 OHH d          10.335  69.349   3.338  0.00  0.00     0.028 A 
ATOM      9  C12 OHH d           9.721  70.135   2.173  0.00  0.00     0.046 A 
ATOM     10  C13 OHH d          10.365  70.099   0.826  0.00  0.00     0.030 A 
ENDROOT
BRANCH   9  11
ATOM     11  C19 OHH d           8.442  71.044   2.176  0.00  0.00     0.254 C 
ATOM     12  O5  OHH d           7.407  70.506   1.745  0.00  0.00    -0.267 OA
ATOM     13  N1  OHH d           8.529  72.406   2.658  0.00  0.00    -0.347 N 
ATOM     14  C20 OHH d           7.310  73.294   2.665  0.00  0.00     0.153 C 
BRANCH  13  15
ATOM     15  C21 OHH d           9.978  72.841   3.135  0.00  0.00     0.090 C 
ATOM     16  C22 OHH d           9.793  73.666   4.493  0.00  0.00     0.045 C 
ATOM     17  C23 OHH d          11.190  74.162   5.049  0.00  0.00     0.128 C 
ATOM     18  N2  OHH d          11.962  74.841   3.914  0.00  0.00    -0.348 N 
ATOM     19  C24 OHH d          12.231  73.917   2.709  0.00  0.00     0.128 C 
ATOM     20  C26 OHH d          12.440  76.178   3.961  0.00  0.00     0.253 C 
ATOM     21  C25 OHH d          10.845  73.600   2.086  0.00  0.00     0.045 C 
ATOM     22  O6  OHH d          12.290  76.826   5.023  0.00  0.00    -0.267 OA
BRANCH  20  23
ATOM     23  C27 OHH d          13.173  76.888   2.759  0.00  0.00     0.033 A 
ATOM     24  C28 OHH d          14.482  77.574   3.017  0.00  0.00     0.018 A 
ATOM     25  C29 OHH d          15.224  78.256   1.953  0.00  0.00     0.013 A 
ATOM     26  C4C OHH d          14.687  78.273   0.592  0.00  0.00    -0.026 A 
ATOM     27  C8C OHH d          13.313  77.559   0.287  0.00  0.00    -0.025 A 
ATOM     28  C30 OHH d          15.386  78.923  -0.506  0.00  0.00     0.012 A 
ATOM     29  C34 OHH d          12.621  76.910   1.359  0.00  0.00     0.029 A 
ATOM     30  C33 OHH d          12.773  77.570  -1.076  0.00  0.00     0.012 A 
ATOM     31  C32 OHH d          13.513  78.241  -2.144  0.00  0.00     0.001 A 
ATOM     32  C31 OHH d          14.802  78.902  -1.860  0.00  0.00     0.001 A 
ENDBRANCH  20  23
ENDBRANCH  13  15
ENDBRANCH   9  11
BRANCH   8  33
ATOM     33  C10 OHH d           9.656  69.421   4.730  0.00  0.00     0.182 C 
ATOM     34  O4  OHH d           8.497  69.731   4.789  0.00  0.00    -0.291 OA
BRANCH  33  35
ATOM     35  C9  OHH d          10.490  69.116   5.974  0.00  0.00     0.224 C 
BRANCH  35  36
ATOM     36  P1  OHH d          10.008  67.547   6.589  0.00  0.00     0.276 P 
ATOM     37  O1  OHH d           8.484  67.252   6.893  0.00  0.00    -0.639 OA
ATOM     38  O3  OHH d          10.339  66.530   5.501  0.00  0.00    -0.639 OA
ATOM     39  O2  OHH d          10.837  67.275   7.799  0.00  0.00    -0.639 OA
ENDBRANCH  35  36
BRANCH  35  40
ATOM     40  C4  OHH d          10.218  70.235   7.033  0.00  0.00    -0.022 A 
ATOM     41  C3  OHH d           9.068  70.684   7.876  0.00  0.00     0.009 A 
ATOM     42  C2  OHH d           9.132  71.838   8.843  0.00  0.00     0.002 A 
ATOM     43  C1  OHH d          10.335  72.598   9.028  0.00  0.00     0.012 A 
ATOM     44  C8A OHH d          11.565  72.306   8.286  0.00  0.00    -0.025 A 
ATOM     45  C4A OHH d          11.597  71.060   7.189  0.00  0.00    -0.018 A 
ATOM     46  C8  OHH d          12.796  73.133   8.520  0.00  0.00     0.012 A 
ATOM     47  C5  OHH d          12.923  70.898   6.513  0.00  0.00     0.013 A 
ATOM     48  C6  OHH d          14.111  71.753   6.784  0.00  0.00     0.001 A 
ATOM     49  C7  OHH d          14.032  72.869   7.797  0.00  0.00     0.001 A 
ENDBRANCH  35  40
ENDBRANCH  33  35
ENDBRANCH   8  33
TORSDOF 7
