REMARK  8 active torsions:
REMARK  status: ('A' for Active; 'I' for Inactive)
REMARK    1  A    between atoms: O3_14  and  P1_1 
REMARK    2  A    between atoms: O5_9  and  P2_5 
REMARK    3  A    between atoms: C5_10  and  O5_9 
REMARK    4  A    between atoms: C4_11  and  C5_10 
REMARK    5  A    between atoms: C3_13  and  O3_14 
REMARK    6  A    between atoms: C2_15  and  O2_16 
REMARK    7  A    between atoms: C1_17  and  N9_18 
REMARK    8  A    between atoms: C6_22  and  N6_23 
ROOT
ATOM      1  C4  A3P d          37.914   5.723  15.804  0.00  0.00     0.181 C 
ATOM      2  O4  A3P d          37.458   5.538  17.174  0.00  0.00    -0.353 OA
ATOM      3  C3  A3P d          39.260   5.006  15.694  0.00  0.00     0.199 C 
ATOM      4  C2  A3P d          39.252   4.072  16.904  0.00  0.00     0.199 C 
ATOM      5  C1  A3P d          38.475   4.907  17.919  0.00  0.00     0.262 C 
ENDROOT
BRANCH   5   6
ATOM      6  N9  A3P d          37.865   4.161  19.023  0.00  0.00    -0.294 N 
ATOM      7  C8  A3P d          38.113   2.868  19.425  0.00  0.00     0.214 A 
ATOM      8  N7  A3P d          37.441   2.507  20.491  0.00  0.00    -0.236 NA
ATOM      9  C5  A3P d          36.690   3.632  20.808  0.00  0.00     0.149 A 
ATOM     10  C6  A3P d          35.780   3.901  21.848  0.00  0.00     0.155 A 
ATOM     11  C4  A3P d          36.929   4.651  19.902  0.00  0.00     0.167 A 
ATOM     12  N1  A3P d          35.202   5.124  21.876  0.00  0.00    -0.222 NA
ATOM     13  C2  A3P d          35.527   6.007  20.922  0.00  0.00     0.237 A 
ATOM     14  N3  A3P d          36.373   5.873  19.900  0.00  0.00    -0.222 NA
BRANCH  10  15
ATOM     15  N6  A3P d          35.463   3.022  22.805  0.00  0.00    -0.382 N 
ATOM     16  H9  A3P d          34.789   3.281  23.539  0.00  0.00     0.157 HD
ATOM     17  H10 A3P d          35.893   2.086  22.808  0.00  0.00     0.157 HD
ENDBRANCH  10  15
ENDBRANCH   5   6
BRANCH   4  18
ATOM     18  O2  A3P d          40.548   3.781  17.387  0.00  0.00    -0.388 OA
ATOM     19  H6  A3P d          40.976   4.588  17.648  0.00  0.00     0.210 HD
ENDBRANCH   4  18
BRANCH   1  20
ATOM     20  C5  A3P d          36.849   5.254  14.846  0.00  0.00     0.217 C 
BRANCH  20  21
ATOM     21  O5  A3P d          37.012   3.856  14.576  0.00  0.00    -0.280 OA
BRANCH  21  22
ATOM     22  P2  A3P d          36.399   3.192  13.222  0.00  0.00     0.422 P 
ATOM     23  O4P A3P d          34.904   3.425  13.317  0.00  0.00    -0.617 OA
ATOM     24  O5P A3P d          37.062   3.903  12.059  0.00  0.00    -0.617 OA
ATOM     25  O6P A3P d          36.782   1.725  13.321  0.00  0.00    -0.617 OA
ENDBRANCH  21  22
ENDBRANCH  20  21
ENDBRANCH   1  20
BRANCH   3  26
ATOM     26  O3  A3P d          40.325   5.948  15.787  0.00  0.00    -0.272 OA
BRANCH  26  27
ATOM     27  P1  A3P d          41.235   6.255  14.491  0.00  0.00     0.422 P 
ATOM     28  O1P A3P d          40.273   6.520  13.346  0.00  0.00    -0.617 OA
ATOM     29  O2P A3P d          42.087   5.015  14.271  0.00  0.00    -0.617 OA
ATOM     30  O3P A3P d          42.066   7.475  14.850  0.00  0.00    -0.617 OA
ENDBRANCH  26  27
ENDBRANCH   3  26
TORSDOF 8
