REMARK  7 active torsions:
REMARK  status: ('A' for Active; 'I' for Inactive)
REMARK    1  A    between atoms: P_1  and  O5'_5 
REMARK    2  A    between atoms: O5'_5  and  C5'_6 
REMARK    3  A    between atoms: C5'_6  and  C4'_7 
REMARK    4  A    between atoms: C3'_9  and  O3'_10 
REMARK    5  A    between atoms: C2'_11  and  O2'_12 
REMARK    6  A    between atoms: C1'_13  and  N1_14 
REMARK    7  A    between atoms: C4_17  and  C6_18 
REMARK       I    between atoms: C6_18  and  N6_21 
ROOT
ATOM      1  C4' MZP d         -24.616  36.835  47.228  0.00  0.00     0.180 C 
ATOM      2  O4' MZP d         -24.519  36.573  45.817  0.00  0.00    -0.354 OA
ATOM      3  C3' MZP d         -26.123  36.992  47.471  0.00  0.00     0.182 C 
ATOM      4  C2' MZP d         -26.609  37.699  46.192  0.00  0.00     0.198 C 
ATOM      5  C1' MZP d         -25.710  37.076  45.149  0.00  0.00     0.258 C 
ENDROOT
BRANCH   5   6
ATOM      6  N1  MZP d         -26.334  36.007  44.319  0.00  0.00    -0.310 N 
ATOM      7  C2  MZP d         -27.222  35.022  44.497  0.00  0.00     0.279 A 
ATOM      8  N3  MZP d         -27.423  34.338  43.436  0.00  0.00    -0.260 NA
ATOM      9  C4  MZP d         -26.627  34.894  42.499  0.00  0.00     0.174 A 
ATOM     10  C5  MZP d         -25.951  35.938  43.026  0.00  0.00     0.214 A 
ATOM     11  O5  MZP d         -25.062  36.727  42.363  0.00  0.00    -0.169 OA
BRANCH   9  12
ATOM     12  C6  MZP d         -26.490  34.448  41.088  0.00  0.00     0.272 C 
ATOM     13  O6  MZP d         -27.121  33.489  40.667  0.00  0.00    -0.266 OA
ATOM     14  N6  MZP d         -25.638  35.092  40.197  0.00  0.00    -0.365 N 
ATOM     15  H11 MZP d         -25.566  34.770  39.253  0.00  0.00     0.159 HD
ATOM     16  H12 MZP d         -25.098  35.877  40.500  0.00  0.00     0.159 HD
ENDBRANCH   9  12
ENDBRANCH   5   6
BRANCH   4  17
ATOM     17  O2' MZP d         -26.424  39.121  46.260  0.00  0.00    -0.388 OA
ATOM     18  H7  MZP d         -26.914  39.468  46.996  0.00  0.00     0.210 HD
ENDBRANCH   4  17
BRANCH   1  19
ATOM     19  C5' MZP d         -23.984  35.699  48.067  0.00  0.00     0.217 C 
BRANCH  19  20
ATOM     20  O5' MZP d         -22.563  35.787  47.745  0.00  0.00    -0.280 OA
BRANCH  20  21
ATOM     21  P   MZP d         -21.572  34.922  48.523  0.00  0.00     0.422 P 
ATOM     22  O1P MZP d         -20.212  35.194  47.998  0.00  0.00    -0.617 OA
ATOM     23  O2P MZP d         -21.691  35.258  49.967  0.00  0.00    -0.617 OA
ATOM     24  O3P MZP d         -21.935  33.521  48.234  0.00  0.00    -0.617 OA
ENDBRANCH  20  21
ENDBRANCH  19  20
ENDBRANCH   1  19
BRANCH   3  25
ATOM     25  O3' MZP d         -26.385  37.737  48.633  0.00  0.00    -0.390 OA
ATOM     26  H5  MZP d         -26.003  38.602  48.546  0.00  0.00     0.210 HD
ENDBRANCH   3  25
TORSDOF 7
