REMARK  16 active torsions:
REMARK  status: ('A' for Active; 'I' for Inactive)
REMARK    1  A    between atoms: C18_18  and  C3_3 
REMARK    2  A    between atoms: C3_3  and  C21_20 
REMARK    3  A    between atoms: C4_4  and  O17_17 
REMARK    4  A    between atoms: N6_6  and  C7_7 
REMARK    5  A    between atoms: C11_11  and  O12_12 
REMARK    6  A    between atoms: C19_19  and  C18_18 
REMARK    7  A    between atoms: N36_35  and  C19_19 
REMARK    8  A    between atoms: C21_20  and  C22_21 
REMARK    9  A    between atoms: C29_28  and  C28_27 
REMARK   10  A    between atoms: C35_34  and  C32_31 
REMARK   11  A    between atoms: C35_34  and  N36_35 
REMARK   12  A    between atoms: N36_35  and  N37_36 
REMARK       I    between atoms: N37_36  and  C38_37 
REMARK   13  A    between atoms: C38_37  and  C39_38 
REMARK   14  A    between atoms: C39_38  and  N40_39 
REMARK   15  A    between atoms: C39_38  and  C45_44 
REMARK       I    between atoms: N40_39  and  C41_40 
REMARK   16  A    between atoms: C41_40  and  O42_41 
ROOT
ATOM      1  N36 UX9 d          14.587  22.212   6.513  0.00  0.00     0.015 N 
ATOM      2  H31 UX9 d          13.898  21.559   6.852  0.00  0.00     0.309 HD
ENDROOT
BRANCH   1   3
ATOM      3  C19 UX9 d          13.870  23.260   5.787  0.00  0.00     0.264 C 
BRANCH   3   4
ATOM      4  C18 UX9 d          12.965  22.814   4.572  0.00  0.00     0.052 C 
BRANCH   4   5
ATOM      5  C3  UX9 d          11.647  23.627   4.265  0.00  0.00     0.074 C 
ATOM      6  C1  UX9 d          10.613  23.535   5.373  0.00  0.00     0.232 C 
ATOM      7  O2  UX9 d          10.023  22.479   5.644  0.00  0.00    -0.272 OA
ATOM      8  N6  UX9 d          10.466  24.733   5.962  0.00  0.00    -0.338 N 
ATOM      9  C5  UX9 d          11.336  25.771   5.369  0.00  0.00     0.159 C 
ATOM     10  C4  UX9 d          11.894  25.158   4.075  0.00  0.00     0.154 C 
BRANCH   8  11
ATOM     11  C7  UX9 d           9.465  24.927   7.084  0.00  0.00     0.150 C 
ATOM     12  C8  UX9 d           9.744  25.894   8.195  0.00  0.00    -0.026 A 
ATOM     13  C9  UX9 d           8.563  26.573   8.569  0.00  0.00    -0.047 A 
ATOM     14  C16 UX9 d          10.991  26.151   8.821  0.00  0.00     0.010 A 
ATOM     15  C10 UX9 d           7.360  26.142   7.787  0.00  0.00     0.073 C 
ATOM     16  C13 UX9 d           8.592  27.630   9.686  0.00  0.00     0.008 A 
ATOM     17  C11 UX9 d           8.041  25.466   6.587  0.00  0.00     0.149 C 
ATOM     18  C14 UX9 d           9.821  27.887  10.305  0.00  0.00     0.001 A 
ATOM     19  C15 UX9 d          11.081  27.106   9.848  0.00  0.00     0.001 A 
BRANCH  17  20
ATOM     20  O12 UX9 d           8.209  26.441   5.525  0.00  0.00    -0.393 OA
ATOM     21  H8  UX9 d           8.630  26.027   4.780  0.00  0.00     0.210 HD
ENDBRANCH  17  20
ENDBRANCH   8  11
BRANCH  10  22
ATOM     22  O17 UX9 d          13.267  25.590   3.923  0.00  0.00    -0.393 OA
ATOM     23  H13 UX9 d          13.628  25.219   3.126  0.00  0.00     0.210 HD
ENDBRANCH  10  22
BRANCH   5  24
ATOM     24  C21 UX9 d          10.942  23.077   2.887  0.00  0.00     0.060 C 
BRANCH  24  25
ATOM     25  C22 UX9 d           9.479  23.658   2.560  0.00  0.00    -0.057 A 
ATOM     26  C23 UX9 d           8.253  22.976   3.037  0.00  0.00     0.007 A 
ATOM     27  C24 UX9 d           6.926  23.511   2.749  0.00  0.00     0.001 A 
ATOM     28  C25 UX9 d           6.791  24.748   1.974  0.00  0.00     0.000 A 
ATOM     29  C26 UX9 d           7.983  25.438   1.492  0.00  0.00     0.001 A 
ATOM     30  C27 UX9 d           9.305  24.902   1.781  0.00  0.00     0.007 A 
ENDBRANCH  24  25
ENDBRANCH   5  24
ENDBRANCH   4   5
ENDBRANCH   3   4
ENDBRANCH   1   3
BRANCH   1  31
ATOM     31  C35 UX9 d          15.317  22.764   7.722  0.00  0.00     0.301 C 
BRANCH  31  32
ATOM     32  C32 UX9 d          15.750  21.533   8.528  0.00  0.00    -0.030 A 
ATOM     33  C31 UX9 d          17.167  21.166   8.660  0.00  0.00     0.010 A 
ATOM     34  C30 UX9 d          17.548  19.984   9.432  0.00  0.00     0.013 A 
ATOM     35  C29 UX9 d          16.512  19.146  10.087  0.00  0.00    -0.026 A 
ATOM     36  C34 UX9 d          15.096  19.538   9.933  0.00  0.00     0.013 A 
ATOM     37  C33 UX9 d          14.724  20.716   9.163  0.00  0.00     0.010 A 
BRANCH  35  38
ATOM     38  C28 UX9 d          16.898  17.907  10.910  0.00  0.00    -0.023 A 
ATOM     39  C50 UX9 d          16.172  16.619  10.759  0.00  0.00     0.031 A 
ATOM     40  C51 UX9 d          16.587  15.488  11.577  0.00  0.00     0.117 A 
ATOM     41  N52 UX9 d          17.657  15.663  12.475  0.00  0.00    -0.273 NA
ATOM     42  C53 UX9 d          18.361  16.884  12.633  0.00  0.00     0.117 A 
ATOM     43  C54 UX9 d          17.991  18.016  11.856  0.00  0.00     0.031 A 
ENDBRANCH  35  38
ENDBRANCH  31  32
ENDBRANCH   1  31
BRANCH   1  44
ATOM     44  N37 UX9 d          15.455  21.501   5.673  0.00  0.00    -0.185 N 
ATOM     45  C38 UX9 d          15.145  20.179   5.329  0.00  0.00     0.265 C 
ATOM     46  O49 UX9 d          14.108  19.653   5.766  0.00  0.00    -0.269 OA
ATOM     47  H32 UX9 d          16.286  21.933   5.323  0.00  0.00     0.197 HD
BRANCH  45  48
ATOM     48  C39 UX9 d          16.094  19.369   4.425  0.00  0.00     0.188 C 
BRANCH  48  49
ATOM     49  N40 UX9 d          16.853  18.579   5.447  0.00  0.00    -0.323 N 
ATOM     50  C41 UX9 d          18.222  18.667   5.677  0.00  0.00     0.360 C 
ATOM     51  O44 UX9 d          19.017  19.419   5.052  0.00  0.00    -0.239 OA
ATOM     52  H34 UX9 d          16.333  17.936   6.010  0.00  0.00     0.165 HD
BRANCH  50  53
ATOM     53  O42 UX9 d          18.578  17.801   6.702  0.00  0.00    -0.309 OA
ATOM     54  C43 UX9 d          19.979  17.737   7.110  0.00  0.00     0.215 C 
ENDBRANCH  50  53
ENDBRANCH  48  49
BRANCH  48  55
ATOM     55  C45 UX9 d          15.427  18.395   3.311  0.00  0.00    -0.022 C 
ATOM     56  C46 UX9 d          14.498  17.261   3.866  0.00  0.00     0.017 C 
ATOM     57  C47 UX9 d          14.611  19.250   2.281  0.00  0.00     0.017 C 
ATOM     58  C48 UX9 d          16.555  17.668   2.509  0.00  0.00     0.017 C 
ENDBRANCH  48  55
ENDBRANCH  45  48
ENDBRANCH   1  44
TORSDOF 16
