REMARK  13 active torsions:
REMARK  status: ('A' for Active; 'I' for Inactive)
REMARK       I    between atoms: NAU_11  and  CAX_1 
REMARK    1  A    between atoms: CBB_4  and  CBF_6 
REMARK       I    between atoms: NAW_23  and  CBB_4 
REMARK    2  A    between atoms: CBF_6  and  CAR_7 
REMARK    3  A    between atoms: CBF_6  and  NAU_11 
REMARK    4  A    between atoms: CAR_7  and  CAZ_8 
REMARK    5  A    between atoms: CAS_18  and  CBC_17 
REMARK    6  A    between atoms: CBG_19  and  CAS_18 
REMARK    7  A    between atoms: CBG_19  and  P1_20 
REMARK    8  A    between atoms: CBG_19  and  NAW_23 
REMARK    9  A    between atoms: P1_20  and  CAT_24 
REMARK   10  A    between atoms: CAT_24  and  CBD_25 
REMARK   11  A    between atoms: CBD_25  and  CBA_27 
REMARK       I    between atoms: CBA_27  and  N_29 
REMARK   12  A    between atoms: N_29  and  CA_30 
REMARK   13  A    between atoms: CA_30  and  C_32 
REMARK       I    between atoms: C_32  and  NAD_34 
ROOT
ATOM      1  CBG RX4 d          -2.451 -17.206 -23.028  0.00  0.00     0.180 C 
ENDROOT
BRANCH   1   2
ATOM      2  CAS RX4 d          -2.748 -15.750 -22.631  0.00  0.00     0.074 C 
BRANCH   2   3
ATOM      3  CBC RX4 d          -4.159 -15.353 -23.030  0.00  0.00    -0.056 A 
ATOM      4  CAP RX4 d          -5.194 -15.407 -22.091  0.00  0.00     0.007 A 
ATOM      5  CAN RX4 d          -6.497 -15.046 -22.460  0.00  0.00     0.001 A 
ATOM      6  CAM RX4 d          -6.768 -14.629 -23.765  0.00  0.00     0.000 A 
ATOM      7  CAO RX4 d          -5.736 -14.576 -24.701  0.00  0.00     0.001 A 
ATOM      8  CAQ RX4 d          -4.434 -14.933 -24.334  0.00  0.00     0.007 A 
ENDBRANCH   2   3
ENDBRANCH   1   2
BRANCH   1   9
ATOM      9  P1  RX4 d          -0.763 -17.712 -22.571  0.00  0.00     0.130 P 
ATOM     10  O4  RX4 d          -0.534 -19.046 -23.227  0.00  0.00    -0.666 OA
ATOM     11  O3  RX4 d          -0.588 -17.664 -21.070  0.00  0.00    -0.666 OA
BRANCH   9  12
ATOM     12  CAT RX4 d           0.320 -16.496 -23.357  0.00  0.00     0.119 C 
BRANCH  12  13
ATOM     13  CBD RX4 d           1.690 -16.416 -22.687  0.00  0.00     0.083 C 
ATOM     14  CAB RX4 d           2.736 -16.093 -23.753  0.00  0.00     0.020 C 
BRANCH  13  15
ATOM     15  CBA RX4 d           1.723 -15.297 -21.682  0.00  0.00     0.222 C 
ATOM     16  OAH RX4 d           0.902 -14.386 -21.736  0.00  0.00    -0.273 OA
ATOM     17  N   RX4 d           2.705 -15.361 -20.776  0.00  0.00    -0.348 N 
ATOM     18  H23 RX4 d           3.320 -16.149 -20.801  0.00  0.00     0.163 HD
BRANCH  17  19
ATOM     19  CA  RX4 d           2.927 -14.346 -19.756  0.00  0.00     0.172 C 
ATOM     20  CB  RX4 d           4.051 -14.787 -18.815  0.00  0.00     0.042 C 
BRANCH  19  21
ATOM     21  C   RX4 d           3.337 -13.072 -20.437  0.00  0.00     0.237 C 
ATOM     22  O   RX4 d           3.991 -13.124 -21.473  0.00  0.00    -0.271 OA
ATOM     23  NAD RX4 d           2.964 -11.927 -19.889  0.00  0.00    -0.368 N 
ATOM     24  H28 RX4 d           3.221 -11.061 -20.317  0.00  0.00     0.159 HD
ATOM     25  H29 RX4 d           2.425 -11.928 -19.046  0.00  0.00     0.159 HD
ENDBRANCH  19  21
ENDBRANCH  17  19
ENDBRANCH  13  15
ENDBRANCH  12  13
ENDBRANCH   9  12
ENDBRANCH   1   9
BRANCH   1  26
ATOM     26  NAW RX4 d          -3.448 -18.028 -22.351  0.00  0.00    -0.345 N 
ATOM     27  CBB RX4 d          -4.188 -18.895 -23.054  0.00  0.00     0.241 C 
ATOM     28  OAI RX4 d          -4.073 -19.063 -24.254  0.00  0.00    -0.271 OA
ATOM     29  H16 RX4 d          -3.579 -17.944 -21.363  0.00  0.00     0.163 HD
BRANCH  27  30
ATOM     30  CBF RX4 d          -5.225 -19.698 -22.338  0.00  0.00     0.186 C 
BRANCH  30  31
ATOM     31  CAR RX4 d          -4.691 -21.068 -21.953  0.00  0.00     0.147 C 
BRANCH  31  32
ATOM     32  CAZ RX4 d          -5.751 -21.753 -21.123  0.00  0.00     0.175 C 
ATOM     33  OAK RX4 d          -6.041 -21.244 -20.021  0.00  0.00    -0.648 OA
ATOM     34  OAG RX4 d          -6.305 -22.788 -21.564  0.00  0.00    -0.648 OA
ENDBRANCH  31  32
ENDBRANCH  30  31
BRANCH  30  35
ATOM     35  NAU RX4 d          -6.315 -19.963 -23.268  0.00  0.00    -0.348 N 
ATOM     36  CAX RX4 d          -7.506 -19.357 -23.241  0.00  0.00     0.214 C 
ATOM     37  CAA RX4 d          -7.762 -18.348 -22.159  0.00  0.00     0.117 C 
ATOM     38  OAE RX4 d          -8.363 -19.623 -24.075  0.00  0.00    -0.274 OA
ATOM     39  H7  RX4 d          -6.160 -20.649 -23.979  0.00  0.00     0.163 HD
ENDBRANCH  30  35
ENDBRANCH  27  30
ENDBRANCH   1  26
TORSDOF 13
