REMARK  3 active torsions:
REMARK  status: ('A' for Active; 'I' for Inactive)
REMARK    1  A    between atoms: C28_2  and  C24_4 
REMARK    2  A    between atoms: C22_9  and  C19_10 
REMARK    3  A    between atoms: N11_20  and  N10_21 
ROOT
ATOM      1  C19 H0Y d         -19.727 -14.076  11.235  0.00  0.00    -0.006 A 
ATOM      2  C20 H0Y d         -19.710 -14.434   9.894  0.00  0.00     0.014 A 
ATOM      3  C21 H0Y d         -18.724 -13.908   9.051  0.00  0.00     0.009 A 
ATOM      4  C16 H0Y d         -17.760 -13.030   9.548  0.00  0.00    -0.046 A 
ATOM      5  C15 H0Y d         -16.692 -12.466   8.627  0.00  0.00     0.040 C 
ATOM      6  C14 H0Y d         -15.414 -12.229   9.415  0.00  0.00     0.011 C 
ATOM      7  C13 H0Y d         -15.678 -11.190  10.498  0.00  0.00     0.062 C 
ATOM      8  C18 H0Y d         -18.756 -13.206  11.731  0.00  0.00     0.028 A 
ATOM      9  C17 H0Y d         -17.778 -12.682  10.891  0.00  0.00    -0.003 A 
ATOM     10  C12 H0Y d         -16.728 -11.747  11.427  0.00  0.00     0.065 C 
ATOM     11  N11 H0Y d         -16.719 -11.367  12.632  0.00  0.00    -0.177 NA
ENDROOT
BRANCH  11  12
ATOM     12  N10 H0Y d         -15.802 -10.527  13.092  0.00  0.00    -0.255 N 
ATOM     13  C8  H0Y d         -16.143  -9.696  14.115  0.00  0.00     0.188 A 
ATOM     14  S9  H0Y d         -17.792  -9.527  14.676  0.00  0.00    -0.049 SA
ATOM     15  N7  H0Y d         -15.202  -8.932  14.709  0.00  0.00    -0.222 NA
ATOM     16  C4  H0Y d         -17.113  -8.418  15.762  0.00  0.00     0.037 A 
ATOM     17  C3  H0Y d         -17.902  -7.762  16.692  0.00  0.00     0.021 A 
ATOM     18  C5  H0Y d         -15.746  -8.177  15.704  0.00  0.00     0.076 A 
ATOM     19  C2  H0Y d         -17.324  -6.854  17.572  0.00  0.00     0.002 A 
ATOM     20  C1  H0Y d         -15.954  -6.608  17.524  0.00  0.00     0.002 A 
ATOM     21  C6  H0Y d         -15.167  -7.272  16.594  0.00  0.00     0.033 A 
ATOM     22  H13 H0Y d         -14.856 -10.504  12.686  0.00  0.00     0.191 HD
ENDBRANCH  11  12
BRANCH   1  23
ATOM     23  C22 H0Y d         -20.688 -14.616  12.078  0.00  0.00     0.068 A 
ATOM     24  N23 H0Y d         -21.301 -15.744  11.706  0.00  0.00    -0.241 NA
ATOM     25  C24 H0Y d         -22.233 -16.334  12.469  0.00  0.00     0.133 A 
ATOM     26  C25 H0Y d         -22.572 -15.787  13.702  0.00  0.00     0.039 A 
ATOM     27  C26 H0Y d         -21.936 -14.625  14.117  0.00  0.00     0.005 A 
ATOM     28  C27 H0Y d         -20.979 -14.035  13.305  0.00  0.00     0.032 A 
BRANCH  25  29
ATOM     29  C28 H0Y d         -22.925 -17.576  11.969  0.00  0.00     0.229 C 
ATOM     30  O82 H0Y d         -22.852 -17.870  10.747  0.00  0.00    -0.643 OA
ATOM     31  O81 H0Y d         -23.592 -18.265  12.771  0.00  0.00    -0.643 OA
ENDBRANCH  25  29
ENDBRANCH   1  23
TORSDOF 3
