REMARK  3 active torsions:
REMARK  status: ('A' for Active; 'I' for Inactive)
REMARK    1  A    between atoms: C4_1  and  C5_2 
REMARK    2  A    between atoms: C4_1  and  O6_6 
REMARK    3  A    between atoms: C5_2  and  N1_7 
ROOT
ATOM      1  C5  CHT d          -4.362   4.534 -21.255  0.00  0.00     0.262 C 
ENDROOT
BRANCH   1   2
ATOM      2  C4  CHT d          -3.444   3.666 -20.417  0.00  0.00     0.192 C 
BRANCH   2   3
ATOM      3  O6  CHT d          -3.620   3.949 -18.986  0.00  0.00    -0.399 OA
ATOM      4  H14 CHT d          -3.036   3.395 -18.481  0.00  0.00     0.209 HD
ENDBRANCH   2   3
ENDBRANCH   1   2
BRANCH   1   5
ATOM      5  N1  CHT d          -5.825   4.171 -21.308  0.00  0.00    -0.077 N 
ATOM      6  C6  CHT d          -6.413   5.204 -22.171  0.00  0.00     0.271 C 
ATOM      7  C7  CHT d          -6.180   2.919 -21.972  0.00  0.00     0.271 C 
ATOM      8  C8  CHT d          -6.435   4.119 -19.969  0.00  0.00     0.271 C 
ENDBRANCH   1   5
TORSDOF 3
