REMARK  6 active torsions:
REMARK  status: ('A' for Active; 'I' for Inactive)
REMARK    1  A    between atoms: N12_3  and  C19_4 
REMARK    2  A    between atoms: C19_4  and  C21_5 
REMARK    3  A    between atoms: C21_5  and  C23_6 
REMARK    4  A    between atoms: C23_6  and  N29_7 
REMARK    5  A    between atoms: C1_12  and  C4_21 
REMARK    6  A    between atoms: C17_25  and  C20_26 
ROOT
ATOM      1  O13 BI7 d          -3.379  10.146  22.338  0.00  0.00    -0.279 OA
ATOM      2  C6  BI7 d          -3.941  11.158  21.918  0.00  0.00     0.213 C 
ATOM      3  N12 BI7 d          -4.991  11.085  21.036  0.00  0.00    -0.188 NA
ATOM      4  C2  BI7 d          -3.544  12.584  22.220  0.00  0.00     0.124 C 
ATOM      5  C1  BI7 d          -3.379  12.984  23.688  0.00  0.00     0.256 C 
ATOM      6  N3  BI7 d          -4.717  13.372  24.164  0.00  0.00    -0.055 N 
ATOM      7  C8  BI7 d          -4.637  14.412  25.204  0.00  0.00     0.236 C 
ATOM      8  C15 BI7 d          -4.710  15.765  24.500  0.00  0.00     0.030 C 
ATOM      9  C14 BI7 d          -5.138  15.487  23.062  0.00  0.00     0.036 C 
ATOM     10  C7  BI7 d          -5.372  13.977  22.979  0.00  0.00     0.202 C 
ATOM     11  C5  BI7 d          -4.743  13.381  21.734  0.00  0.00     0.118 C 
ATOM     12  C11 BI7 d          -5.591  12.329  21.082  0.00  0.00     0.213 C 
ATOM     13  O18 BI7 d          -6.697  12.532  20.591  0.00  0.00    -0.279 OA
ATOM     14  H18 BI7 d          -5.226  12.571  24.505  0.00  0.00     0.281 HD
ENDROOT
BRANCH   5  15
ATOM     15  C4  BI7 d          -2.526  12.030  24.449  0.00  0.00     0.096 A 
ATOM     16  C16 BI7 d          -3.064  11.118  25.385  0.00  0.00     0.072 A 
ATOM     17  C17 BI7 d          -1.919  10.462  25.860  0.00  0.00     0.120 A 
ATOM     18  O10 BI7 d          -0.819  10.870  25.195  0.00  0.00    -0.212 OA
ATOM     19  N9  BI7 d          -1.185  11.912  24.296  0.00  0.00    -0.130 NA
BRANCH  17  20
ATOM     20  C20 BI7 d          -1.873   9.376  26.728  0.00  0.00     0.042 A 
ATOM     21  C22 BI7 d          -2.763   9.054  27.745  0.00  0.00     0.024 A 
ATOM     22  C24 BI7 d          -2.411   7.837  28.330  0.00  0.00     0.033 A 
ATOM     23  C25 BI7 d          -1.289   7.339  27.683  0.00  0.00     0.075 A 
ATOM     24  S1  BI7 d          -0.575   8.264  26.420  0.00  0.00    -0.075 SA
ATOM     25 CL1  BI7 d          -0.495   5.774  28.107  0.00  0.00    -0.076 Cl
ENDBRANCH  17  20
ENDBRANCH   5  15
BRANCH   3  26
ATOM     26  C19 BI7 d          -5.880   9.909  21.148  0.00  0.00     0.109 C 
BRANCH  26  27
ATOM     27  C21 BI7 d          -5.561   9.170  19.854  0.00  0.00     0.043 C 
BRANCH  27  28
ATOM     28  C23 BI7 d          -6.326   7.875  19.654  0.00  0.00     0.237 C 
BRANCH  28  29
ATOM     29  N29 BI7 d          -6.051   7.199  18.370  0.00  0.00    -0.079 N 
ATOM     30  C30 BI7 d          -4.637   6.854  18.201  0.00  0.00     0.271 C 
ATOM     31  C31 BI7 d          -6.791   5.939  18.393  0.00  0.00     0.271 C 
ATOM     32  C32 BI7 d          -6.519   7.992  17.212  0.00  0.00     0.271 C 
ENDBRANCH  28  29
ENDBRANCH  27  28
ENDBRANCH  26  27
ENDBRANCH   3  26
TORSDOF 6
