REMARK  5 active torsions:
REMARK  status: ('A' for Active; 'I' for Inactive)
REMARK    1  A    between atoms: O5'_1  and  C5'_2 
REMARK    2  A    between atoms: C5'_2  and  C4'_3 
REMARK    3  A    between atoms: C3'_5  and  O3'_6 
REMARK    4  A    between atoms: N1'_8  and  C10_9 
REMARK    5  A    between atoms: C10_9  and  C9_10 
ROOT
ATOM      1  C9  DIH d          56.642  16.797  40.666  0.00  0.00     0.014 A 
ATOM      2  C8  DIH d          56.744  15.687  39.837  0.00  0.00     0.099 A 
ATOM      3  N7  DIH d          55.807  15.580  38.925  0.00  0.00    -0.359 N 
ATOM      4  C5  DIH d          54.998  16.689  39.129  0.00  0.00     0.130 A 
ATOM      5  C6  DIH d          53.786  17.131  38.430  0.00  0.00     0.275 A 
ATOM      6  O6  DIH d          53.238  16.570  37.484  0.00  0.00    -0.266 OA
ATOM      7  N1  DIH d          53.217  18.351  38.936  0.00  0.00    -0.316 N 
ATOM      8  C2  DIH d          53.753  19.104  40.030  0.00  0.00     0.210 A 
ATOM      9  N3  DIH d          54.902  18.686  40.695  0.00  0.00    -0.241 NA
ATOM     10  C4  DIH d          55.490  17.466  40.207  0.00  0.00     0.099 A 
ATOM     11  H15 DIH d          55.697  14.840  38.217  0.00  0.00     0.165 HD
ATOM     12  H16 DIH d          52.390  18.698  38.493  0.00  0.00     0.170 HD
ENDROOT
BRANCH   1  13
ATOM     13  C10 DIH d          57.511  17.229  41.789  0.00  0.00     0.277 C 
BRANCH  13  14
ATOM     14  N1' DIH d          57.355  17.020  43.210  0.00  0.00    -0.064 N 
ATOM     15  C6' DIH d          57.046  15.634  43.503  0.00  0.00     0.244 C 
ATOM     16  C4' DIH d          56.246  15.618  44.734  0.00  0.00     0.065 C 
ATOM     17  C3' DIH d          56.071  17.032  45.172  0.00  0.00     0.151 C 
ATOM     18  C2' DIH d          56.212  17.632  43.827  0.00  0.00     0.267 C 
ATOM     19  H11 DIH d          58.203  17.317  43.666  0.00  0.00     0.280 HD
BRANCH  16  20
ATOM     20  C5' DIH d          54.963  14.914  44.471  0.00  0.00     0.173 C 
BRANCH  20  21
ATOM     21  O5' DIH d          54.786  13.576  44.032  0.00  0.00    -0.400 OA
ATOM     22  H1  DIH d          53.858  13.392  43.947  0.00  0.00     0.209 HD
ENDBRANCH  20  21
ENDBRANCH  16  20
BRANCH  17  23
ATOM     23  O3' DIH d          56.905  17.466  46.228  0.00  0.00    -0.393 OA
ATOM     24  H8  DIH d          56.714  18.375  46.428  0.00  0.00     0.210 HD
ENDBRANCH  17  23
ENDBRANCH  13  14
ENDBRANCH   1  13
TORSDOF 5
