REMARK  7 active torsions:
REMARK  status: ('A' for Active; 'I' for Inactive)
REMARK    1  A    between atoms: C15_2  and  C2_3 
REMARK       I    between atoms: N17_17  and  C15_2 
REMARK    2  A    between atoms: C3_4  and  O13_5 
REMARK    3  A    between atoms: C5_8  and  N10_9 
REMARK    4  A    between atoms: C6_12  and  N7_13 
REMARK    5  A    between atoms: C18_18  and  N17_17 
REMARK    6  A    between atoms: C05_21  and  C18_18 
REMARK    7  A    between atoms: N09_22  and  C10_23 
ROOT
ATOM      1  C2  C57 d          31.996  22.347   9.860  0.00  0.00     0.067 A 
ATOM      2  C3  C57 d          33.062  23.284   9.976  0.00  0.00     0.086 A 
ATOM      3  C4  C57 d          34.010  23.451   8.912  0.00  0.00     0.069 A 
ATOM      4  C5  C57 d          33.926  22.692   7.760  0.00  0.00     0.065 A 
ATOM      5  C6  C57 d          32.829  21.727   7.636  0.00  0.00     0.130 A 
ATOM      6  C1  C57 d          31.902  21.570   8.693  0.00  0.00     0.058 A 
ENDROOT
BRANCH   1   7
ATOM      7  C15 C57 d          30.989  22.137  10.971  0.00  0.00     0.254 C 
ATOM      8  O16 C57 d          30.577  21.024  11.177  0.00  0.00    -0.268 OA
ATOM      9  N17 C57 d          30.546  23.225  11.811  0.00  0.00    -0.355 N 
ATOM     10  H12 C57 d          30.901  24.143  11.632  0.00  0.00     0.162 HD
BRANCH   9  11
ATOM     11  C18 C57 d          29.599  23.042  12.914  0.00  0.00     0.156 C 
BRANCH  11  12
ATOM     12  C05 C57 d          28.147  22.635  12.688  0.00  0.00     0.206 C 
ATOM     13  C06 C57 d          27.482  22.380  13.992  0.00  0.00     0.036 C 
ATOM     14  C07 C57 d          27.736  20.942  14.246  0.00  0.00     0.030 C 
ATOM     15  C08 C57 d          27.842  20.328  12.894  0.00  0.00     0.235 C 
ATOM     16  N09 C57 d          27.942  21.406  11.937  0.00  0.00    -0.066 N 
ATOM     17  H20 C57 d          28.864  21.276  11.550  0.00  0.00     0.280 HD
BRANCH  16  18
ATOM     18  C10 C57 d          27.164  21.227  10.724  0.00  0.00     0.231 C 
ATOM     19  C13 C57 d          27.623  21.994   9.477  0.00  0.00     0.034 C 
ENDBRANCH  16  18
ENDBRANCH  11  12
ENDBRANCH   9  11
ENDBRANCH   1   7
BRANCH   2  20
ATOM     20  O13 C57 d          33.206  24.065  11.101  0.00  0.00    -0.355 OA
ATOM     21  C14 C57 d          34.216  25.017  11.132  0.00  0.00     0.210 C 
ENDBRANCH   2  20
BRANCH   5  22
ATOM     22  N7  C57 d          32.613  20.868   6.504  0.00  0.00    -0.113 N 
ATOM     23  O9  C57 d          31.570  21.030   5.733  0.00  0.00    -0.532 OA
ATOM     24  O8  C57 d          33.413  19.952   6.259  0.00  0.00    -0.532 OA
ENDBRANCH   5  22
BRANCH   4  25
ATOM     25  N10 C57 d          34.989  22.992   6.727  0.00  0.00    -0.387 N 
ATOM     26  C12 C57 d          36.095  23.885   7.085  0.00  0.00     0.149 C 
ATOM     27  C11 C57 d          34.940  22.444   5.350  0.00  0.00     0.149 C 
ENDBRANCH   4  25
TORSDOF 7
