REMARK  12 active torsions:
REMARK  status: ('A' for Active; 'I' for Inactive)
REMARK    1  A    between atoms: C7_2  and  O7_1 
REMARK    2  A    between atoms: C1_4  and  O1_5 
REMARK    3  A    between atoms: C2_6  and  O2_7 
REMARK    4  A    between atoms: C3_8  and  C8_9 
REMARK    5  A    between atoms: C8_9  and  O8_10 
REMARK    6  A    between atoms: O1_20  and  C6_13 
REMARK    7  A    between atoms: C1_14  and  O1_20 
REMARK    8  A    between atoms: C2_15  and  O2_21 
REMARK    9  A    between atoms: C3_16  and  O3_22 
REMARK   10  A    between atoms: C4_17  and  O4_23 
REMARK   11  A    between atoms: C5_18  and  C6_19 
REMARK   12  A    between atoms: C6_19  and  O6_25 
ROOT
ATOM      1  C7  MOL d          -5.756 -34.458  43.876  0.00  0.00     0.182 C 
ATOM      2  C7A MOL d          -6.814 -34.224  42.799  0.00  0.00     0.251 C 
ATOM      3  C1  MOL d          -6.955 -35.360  41.776  0.00  0.00     0.182 C 
ATOM      4  C2  MOL d          -7.109 -34.649  40.424  0.00  0.00     0.182 C 
ATOM      5  C3  MOL d          -6.006 -33.583  40.487  0.00  0.00     0.243 C 
ATOM      6  N4  MOL d          -6.053 -33.309  41.938  0.00  0.00    -0.050 N 
ATOM      7  C5  MOL d          -5.081 -32.508  42.664  0.00  0.00     0.270 C 
ATOM      8  C6  MOL d          -4.479 -33.709  43.430  0.00  0.00     0.181 C 
ATOM      9  H12 MOL d          -6.753 -32.587  41.869  0.00  0.00     0.281 HD
ENDROOT
BRANCH   8  10
ATOM     10  O1  MOL d          -3.818 -34.783  42.687  0.00  0.00    -0.349 OA
BRANCH  10  11
ATOM     11  C1  MOL d          -2.767 -34.459  41.786  0.00  0.00     0.292 C 
ATOM     12  C2  MOL d          -2.198 -35.699  41.085  0.00  0.00     0.204 C 
ATOM     13  C3  MOL d          -1.377 -36.567  42.062  0.00  0.00     0.183 C 
ATOM     14  C4  MOL d          -0.271 -35.685  42.672  0.00  0.00     0.180 C 
ATOM     15  C5  MOL d          -0.882 -34.471  43.371  0.00  0.00     0.179 C 
ATOM     16  O5  MOL d          -1.739 -33.766  42.480  0.00  0.00    -0.348 OA
BRANCH  12  17
ATOM     17  O2  MOL d          -3.260 -36.391  40.453  0.00  0.00    -0.388 OA
ATOM     18  H23 MOL d          -3.861 -36.717  41.113  0.00  0.00     0.210 HD
ENDBRANCH  12  17
BRANCH  13  19
ATOM     19  O3  MOL d          -0.791 -37.646  41.375  0.00  0.00    -0.390 OA
ATOM     20  H24 MOL d          -0.272 -38.162  41.981  0.00  0.00     0.210 HD
ENDBRANCH  13  19
BRANCH  14  21
ATOM     21  O4  MOL d           0.534 -36.430  43.573  0.00  0.00    -0.390 OA
ATOM     22  H25 MOL d           0.904 -37.179  43.120  0.00  0.00     0.210 HD
ENDBRANCH  14  21
BRANCH  15  23
ATOM     23  C6  MOL d           0.182 -33.492  43.913  0.00  0.00     0.198 C 
BRANCH  23  24
ATOM     24  O6  MOL d          -0.427 -32.329  44.492  0.00  0.00    -0.398 OA
ATOM     25  H26 MOL d          -0.943 -31.881  43.832  0.00  0.00     0.209 HD
ENDBRANCH  23  24
ENDBRANCH  15  23
ENDBRANCH  10  11
ENDBRANCH   8  10
BRANCH   1  26
ATOM     26  O7  MOL d          -6.225 -33.836  45.086  0.00  0.00    -0.391 OA
ATOM     27  H1  MOL d          -5.585 -33.966  45.776  0.00  0.00     0.210 HD
ENDBRANCH   1  26
BRANCH   3  28
ATOM     28  O1  MOL d          -8.063 -36.220  42.048  0.00  0.00    -0.391 OA
ATOM     29  H5  MOL d          -8.103 -36.902  41.388  0.00  0.00     0.210 HD
ENDBRANCH   3  28
BRANCH   5  30
ATOM     30  C8  MOL d          -6.140 -32.413  39.490  0.00  0.00     0.200 C 
BRANCH  30  31
ATOM     31  O8  MOL d          -7.397 -31.803  39.592  0.00  0.00    -0.399 OA
ATOM     32  H11 MOL d          -7.452 -31.088  38.969  0.00  0.00     0.209 HD
ENDBRANCH  30  31
ENDBRANCH   5  30
BRANCH   4  33
ATOM     33  O2  MOL d          -6.816 -35.504  39.295  0.00  0.00    -0.391 OA
ATOM     34  H7  MOL d          -6.928 -35.013  38.490  0.00  0.00     0.210 HD
ENDBRANCH   4  33
TORSDOF 12
