REMARK  3 active torsions:
REMARK  status: ('A' for Active; 'I' for Inactive)
REMARK    1  A    between atoms: N_1  and  CA_2 
REMARK    2  A    between atoms: CA_2  and  CB_4 
REMARK    3  A    between atoms: CB_4  and  CG_5 
ROOT
ATOM      1  CB  1WE d          -3.309  -3.858  17.004  0.00  0.00     0.070 C 
ENDROOT
BRANCH   1   2
ATOM      2  CA  1WE d          -3.334  -3.134  15.665  0.00  0.00     0.183 C 
ATOM      3  C   1WE d          -2.124  -3.506  14.952  0.00  0.00     0.040 C 
BRANCH   2   4
ATOM      4  N   1WE d          -3.252  -1.706  15.776  0.00  0.00    -0.075 N 
ATOM      5  H1  1WE d          -3.274  -1.296  14.856  0.00  0.00     0.274 HD
ATOM      6  H2  1WE d          -2.391  -1.454  16.236  0.00  0.00     0.274 HD
ATOM      7  H3  1WE d          -4.033  -1.365  16.314  0.00  0.00     0.274 HD
ENDBRANCH   2   4
ENDBRANCH   1   2
BRANCH   1   8
ATOM      8  CG  1WE d          -4.188  -4.890  17.120  0.00  0.00    -0.056 A 
ATOM      9  CD1 1WE d          -5.461  -4.769  16.634  0.00  0.00     0.007 A 
ATOM     10  CE1 1WE d          -6.359  -5.788  16.795  0.00  0.00     0.001 A 
ATOM     11  CZ  1WE d          -5.993  -6.923  17.456  0.00  0.00     0.000 A 
ATOM     12  CE2 1WE d          -4.707  -7.030  17.952  0.00  0.00     0.001 A 
ATOM     13  CD2 1WE d          -3.821  -6.017  17.788  0.00  0.00     0.007 A 
ENDBRANCH   1   8
TORSDOF 3
