REMARK  2 active torsions:
REMARK  status: ('A' for Active; 'I' for Inactive)
REMARK    1  A    between atoms: C2_4  and  C1_1 
REMARK    2  A    between atoms: C3_5  and  P_7 
ROOT
ATOM      1  C2  PPR d          13.099   7.716   5.269  0.00  0.00     0.240 C 
ATOM      2  C3  PPR d          14.439   7.500   5.277  0.00  0.00     0.202 C 
ATOM      3  O2  PPR d          12.433   7.248   6.302  0.00  0.00    -0.212 OA
ENDROOT
BRANCH   1   4
ATOM      4  C1  PPR d          12.214   8.400   4.227  0.00  0.00     0.217 C 
ATOM      5  O2' PPR d          10.997   8.470   4.336  0.00  0.00    -0.646 OA
ATOM      6  O1  PPR d          12.838   8.897   3.210  0.00  0.00    -0.646 OA
ENDBRANCH   1   4
BRANCH   2   7
ATOM      7  P   PPR d          14.598   5.608   4.798  0.00  0.00     0.263 P 
ATOM      8  O3P PPR d          14.594   4.822   6.046  0.00  0.00    -0.639 OA
ATOM      9  O2P PPR d          13.477   5.369   3.905  0.00  0.00    -0.639 OA
ATOM     10  O1P PPR d          15.986   5.437   4.114  0.00  0.00    -0.639 OA
ENDBRANCH   2   7
TORSDOF 2
