REMARK  3 active torsions:
REMARK  status: ('A' for Active; 'I' for Inactive)
REMARK       I    between atoms: C_1  and  N_4 
REMARK    1  A    between atoms: N_4  and  CA_5 
REMARK    2  A    between atoms: CA_5  and  CB_6 
REMARK    3  A    between atoms: CB_6  and  CG_7 
ROOT
ATOM      1  CB  AHN d         -18.557 -12.613  16.363  0.00  0.00     0.080 C 
ENDROOT
BRANCH   1   2
ATOM      2  CA  AHN d         -17.518 -13.649  16.936  0.00  0.00     0.128 C 
BRANCH   2   3
ATOM      3  N   AHN d         -17.707 -13.883  18.325  0.00  0.00    -0.361 N 
ATOM      4  C   AHN d         -18.345 -14.981  18.688  0.00  0.00     0.213 C 
ATOM      5  O   AHN d         -18.875 -15.738  17.818  0.00  0.00    -0.274 OA
ATOM      6  CT  AHN d         -18.381 -15.239  20.234  0.00  0.00     0.117 C 
ATOM      7  H4  AHN d         -17.367 -13.236  19.007  0.00  0.00     0.162 HD
ENDBRANCH   2   3
ENDBRANCH   1   2
BRANCH   1   8
ATOM      8  CG  AHN d         -18.442 -12.612  14.830  0.00  0.00     0.052 A 
ATOM      9  CD2 AHN d         -18.666 -13.624  13.961  0.00  0.00     0.116 A 
ATOM     10  NE2 AHN d         -18.406 -13.211  12.701  0.00  0.00    -0.359 N 
ATOM     11  CE1 AHN d         -18.025 -11.941  12.834  0.00  0.00     0.207 A 
ATOM     12  H11 AHN d         -18.485 -13.757  11.831  0.00  0.00     0.166 HD
ATOM     13  ND1 AHN d         -18.002 -11.598  14.087  0.00  0.00    -0.247 NA
ENDBRANCH   1   8
TORSDOF 3
