REMARK  16 active torsions:
REMARK  status: ('A' for Active; 'I' for Inactive)
REMARK    1  A    between atoms: C2_2  and  C1_1 
REMARK    2  A    between atoms: C1_1  and  C3_3 
REMARK    3  A    between atoms: C2_2  and  C4_4 
REMARK    4  A    between atoms: N2_15  and  C2_2 
REMARK    5  A    between atoms: C3_3  and  N1_7 
REMARK    6  A    between atoms: C4_4  and  S1_5 
REMARK    7  A    between atoms: S1_5  and  C5_6 
REMARK    8  A    between atoms: C17_20  and  N2_15 
REMARK    9  A    between atoms: S2_22  and  C14_17 
REMARK   10  A    between atoms: C16_19  and  N7_57 
REMARK   11  A    between atoms: N6_53  and  S2_22 
REMARK   12  A    between atoms: C21_27  and  C25_31 
REMARK   13  A    between atoms: C31_37  and  C22_28 
REMARK   14  A    between atoms: N3_38  and  C31_37 
REMARK   15  A    between atoms: C36_44  and  N4_41 
REMARK   16  A    between atoms: C42_52  and  N6_53 
ROOT
ATOM      1  C36 1E9 d          10.659  24.412   8.479  0.00  0.00     0.031 A 
ATOM      2  C37 1E9 d          11.515  25.491   8.132  0.00  0.00     0.055 A 
ATOM      3  C38 1E9 d          12.618  22.940   8.857  0.00  0.00     0.019 A 
ATOM      4  C39 1E9 d          11.220  23.147   8.822  0.00  0.00     0.030 A 
ATOM      5  C40 1E9 d          13.436  24.029   8.523  0.00  0.00     0.035 A 
ATOM      6  C41 1E9 d          12.897  25.259   8.178  0.00  0.00     0.098 A 
ATOM      7  S3  1E9 d          14.230  26.345   7.828  0.00  0.00     0.286 S 
ATOM      8  N5  1E9 d          15.407  25.222   8.149  0.00  0.00    -0.140 NA
ATOM      9  C42 1E9 d          14.907  24.079   8.492  0.00  0.00     0.162 A 
ATOM     10  O3  1E9 d          14.253  26.629   6.379  0.00  0.00    -0.198 OA
ATOM     11  O4  1E9 d          14.260  27.469   8.775  0.00  0.00    -0.198 OA
ENDROOT
BRANCH   9  12
ATOM     12  N6  1E9 d          15.624  22.935   8.812  0.00  0.00    -0.263 N 
ATOM     13  H46 1E9 d          15.150  22.054   8.803  0.00  0.00     0.180 HD
BRANCH  12  14
ATOM     14  S2  1E9 d          17.272  22.968   9.219  0.00  0.00     0.264 S 
ATOM     15  O1  1E9 d          17.520  21.618   9.748  0.00  0.00    -0.200 OA
ATOM     16  O2  1E9 d          17.956  23.494   8.019  0.00  0.00    -0.200 OA
BRANCH  14  17
ATOM     17  C14 1E9 d          17.440  24.138  10.548  0.00  0.00     0.082 A 
ATOM     18  C13 1E9 d          17.796  25.468  10.284  0.00  0.00     0.028 A 
ATOM     19  C18 1E9 d          17.907  26.355  11.362  0.00  0.00     0.033 A 
ATOM     20  C17 1E9 d          17.661  25.939  12.697  0.00  0.00     0.061 A 
ATOM     21  C16 1E9 d          17.284  24.586  12.942  0.00  0.00     0.130 A 
ATOM     22  C15 1E9 d          17.188  23.693  11.853  0.00  0.00     0.063 A 
BRANCH  20  23
ATOM     23  N2  1E9 d          17.773  26.850  13.691  0.00  0.00    -0.383 N 
ATOM     24  H20 1E9 d          17.602  26.517  14.651  0.00  0.00     0.160 HD
BRANCH  23  25
ATOM     25  C2  1E9 d          18.114  28.264  13.531  0.00  0.00     0.093 C 
BRANCH  25  26
ATOM     26  C1  1E9 d          18.528  28.919  14.866  0.00  0.00     0.053 C 
BRANCH  26  27
ATOM     27  C3  1E9 d          19.855  28.421  15.468  0.00  0.00     0.236 C 
BRANCH  27  28
ATOM     28  N1  1E9 d          20.067  29.016  16.791  0.00  0.00    -0.079 N 
ATOM     29  C6  1E9 d          21.351  28.569  17.321  0.00  0.00     0.269 C 
ATOM     30  C7  1E9 d          20.037  30.479  16.739  0.00  0.00     0.269 C 
ATOM     31  H8  1E9 d          19.332  28.703  17.405  0.00  0.00     0.278 HD
ENDBRANCH  27  28
ENDBRANCH  26  27
ENDBRANCH  25  26
BRANCH  25  32
ATOM     32  C4  1E9 d          16.950  29.055  12.875  0.00  0.00     0.104 C 
BRANCH  32  33
ATOM     33  S1  1E9 d          15.312  29.001  13.698  0.00  0.00    -0.128 SA
BRANCH  33  34
ATOM     34  C5  1E9 d          14.589  27.447  13.311  0.00  0.00     0.000 A 
ATOM     35  C8  1E9 d          14.527  26.437  14.288  0.00  0.00     0.018 A 
ATOM     36  C9  1E9 d          13.943  25.198  13.958  0.00  0.00     0.001 A 
ATOM     37  C10 1E9 d          13.417  24.984  12.667  0.00  0.00     0.000 A 
ATOM     38  C11 1E9 d          13.483  26.001  11.693  0.00  0.00     0.001 A 
ATOM     39  C12 1E9 d          14.067  27.241  12.017  0.00  0.00     0.018 A 
ENDBRANCH  33  34
ENDBRANCH  32  33
ENDBRANCH  25  32
ENDBRANCH  23  25
ENDBRANCH  20  23
BRANCH  21  40
ATOM     40  N7  1E9 d          17.020  24.041  14.290  0.00  0.00    -0.113 N 
ATOM     41  O5  1E9 d          17.147  24.793  15.251  0.00  0.00    -0.532 OA
ATOM     42  O6  1E9 d          16.641  22.883  14.396  0.00  0.00    -0.532 OA
ENDBRANCH  21  40
ENDBRANCH  14  17
ENDBRANCH  12  14
ENDBRANCH   9  12
BRANCH   1  43
ATOM     43  N4  1E9 d           9.311  24.547   8.485  0.00  0.00    -0.378 N 
ATOM     44  C33 1E9 d           8.430  23.373   8.667  0.00  0.00     0.150 C 
ATOM     45  C32 1E9 d           7.002  23.750   9.147  0.00  0.00     0.255 C 
ATOM     46  N3  1E9 d           6.434  24.711   8.191  0.00  0.00    -0.064 N 
ATOM     47  C35 1E9 d           7.230  25.946   8.285  0.00  0.00     0.255 C 
ATOM     48  H34 1E9 d           6.521  24.337   7.259  0.00  0.00     0.280 HD
ATOM     49  C34 1E9 d           8.638  25.617   7.736  0.00  0.00     0.150 C 
BRANCH  46  50
ATOM     50  C31 1E9 d           5.008  24.953   8.454  0.00  0.00     0.274 C 
BRANCH  50  51
ATOM     51  C22 1E9 d           4.263  23.622   8.536  0.00  0.00    -0.021 A 
ATOM     52  C21 1E9 d           3.724  23.141   9.769  0.00  0.00    -0.018 A 
ATOM     53  C20 1E9 d           3.061  21.889   9.783  0.00  0.00     0.013 A 
ATOM     54  C19 1E9 d           2.955  21.108   8.609  0.00  0.00     0.001 A 
ATOM     55  C24 1E9 d           3.515  21.582   7.400  0.00  0.00     0.001 A 
ATOM     56  C23 1E9 d           4.167  22.832   7.362  0.00  0.00     0.010 A 
BRANCH  52  57
ATOM     57  C25 1E9 d           3.749  23.843  11.071  0.00  0.00    -0.025 A 
ATOM     58  C26 1E9 d           3.143  25.114  11.238  0.00  0.00     0.014 A 
ATOM     59  C27 1E9 d           3.139  25.756  12.498  0.00  0.00     0.024 A 
ATOM     60  C28 1E9 d           3.735  25.125  13.607  0.00  0.00     0.034 A 
ATOM     61  C29 1E9 d           4.347  23.861  13.460  0.00  0.00     0.024 A 
ATOM     62 CL1  1E9 d           3.725  25.900  15.151  0.00  0.00    -0.084 Cl
ATOM     63  C30 1E9 d           4.346  23.219  12.197  0.00  0.00     0.014 A 
ENDBRANCH  52  57
ENDBRANCH  50  51
ENDBRANCH  46  50
ENDBRANCH   1  43
TORSDOF 16
