REMARK  4 active torsions:
REMARK  status: ('A' for Active; 'I' for Inactive)
REMARK    1  A    between atoms: C1_1  and  C2_4 
REMARK    2  A    between atoms: C2_4  and  O2_5 
REMARK    3  A    between atoms: C2_4  and  C3_6 
REMARK    4  A    between atoms: C3_6  and  C4_7 
ROOT
ATOM      1  C2  LMR d          96.720 -21.092  51.992  0.00  0.00     0.228 C 
ENDROOT
BRANCH   1   2
ATOM      2  C1  LMR d          95.661 -20.891  53.038  0.00  0.00     0.203 C 
ATOM      3  O1A LMR d          94.690 -20.108  52.865  0.00  0.00    -0.646 OA
ATOM      4  O1B LMR d          95.755 -21.513  54.116  0.00  0.00    -0.646 OA
ENDBRANCH   1   2
BRANCH   1   5
ATOM      5  O2  LMR d          96.573 -20.178  50.928  0.00  0.00    -0.384 OA
ATOM      6  H2  LMR d          96.643 -19.291  51.262  0.00  0.00     0.210 HD
ENDBRANCH   1   5
BRANCH   1   7
ATOM      7  C3  LMR d          98.111 -20.969  52.621  0.00  0.00     0.156 C 
BRANCH   7   8
ATOM      8  C4  LMR d          98.267 -19.688  53.407  0.00  0.00     0.175 C 
ATOM      9  O4A LMR d          99.317 -19.457  54.061  0.00  0.00    -0.648 OA
ATOM     10  O4B LMR d          97.348 -18.843  53.424  0.00  0.00    -0.648 OA
ENDBRANCH   7   8
ENDBRANCH   1   7
TORSDOF 4
