REMARK  7 active torsions:
REMARK  status: ('A' for Active; 'I' for Inactive)
REMARK    1  A    between atoms: N1_1  and  C1'_9 
REMARK    2  A    between atoms: C4_4  and  N4_8 
REMARK    3  A    between atoms: C2'_10  and  O2'_11 
REMARK    4  A    between atoms: O2'_11  and  P_18 
REMARK    5  A    between atoms: C3'_12  and  O3'_15 
REMARK    6  A    between atoms: C4'_13  and  C5'_16 
REMARK    7  A    between atoms: C5'_16  and  O5'_17 
ROOT
ATOM      1  C1' C2P d          36.938   0.865  24.936  0.00  0.00     0.264 C 
ATOM      2  C2' C2P d          36.824  -0.136  23.777  0.00  0.00     0.216 C 
ATOM      3  C3' C2P d          38.061   0.243  22.970  0.00  0.00     0.183 C 
ATOM      4  C4' C2P d          39.081   0.472  24.068  0.00  0.00     0.179 C 
ATOM      5  O4' C2P d          38.316   1.171  25.091  0.00  0.00    -0.353 OA
ENDROOT
BRANCH   1   6
ATOM      6  N1  C2P d          36.216   2.125  24.718  0.00  0.00    -0.280 N 
ATOM      7  C2  C2P d          35.012   2.333  25.403  0.00  0.00     0.330 A 
ATOM      8  N3  C2P d          34.366   3.525  25.270  0.00  0.00    -0.293 N 
ATOM      9  O2  C2P d          34.562   1.414  26.115  0.00  0.00    -0.246 OA
ATOM     10  C4  C2P d          34.869   4.471  24.465  0.00  0.00     0.125 A 
ATOM     11  H1  C2P d          33.518   3.694  25.772  0.00  0.00     0.172 HD
ATOM     12  C5  C2P d          36.082   4.262  23.720  0.00  0.00     0.067 A 
ATOM     13  C6  C2P d          36.715   3.085  23.876  0.00  0.00     0.102 A 
BRANCH  10  14
ATOM     14  N4  C2P d          34.218   5.624  24.381  0.00  0.00    -0.284 NA
ATOM     15  H4  C2P d          34.568   6.358  23.785  0.00  0.00     0.188 HD
ENDBRANCH  10  14
ENDBRANCH   1   6
BRANCH   2  16
ATOM     16  O2' C2P d          36.781  -1.388  24.462  0.00  0.00    -0.270 OA
BRANCH  16  17
ATOM     17  P   C2P d          36.589  -2.795  23.653  0.00  0.00     0.422 P 
ATOM     18  O1P C2P d          35.102  -2.851  23.444  0.00  0.00    -0.617 OA
ATOM     19  O2P C2P d          37.290  -3.897  24.379  0.00  0.00    -0.617 OA
ATOM     20  O3P C2P d          37.264  -2.633  22.223  0.00  0.00    -0.617 OA
ENDBRANCH  16  17
ENDBRANCH   2  16
BRANCH   3  21
ATOM     21  O3' C2P d          38.499  -0.738  22.065  0.00  0.00    -0.390 OA
ATOM     22  H9  C2P d          38.635  -1.556  22.528  0.00  0.00     0.210 HD
ENDBRANCH   3  21
BRANCH   4  23
ATOM     23  C5' C2P d          40.267   1.294  23.654  0.00  0.00     0.198 C 
BRANCH  23  24
ATOM     24  O5' C2P d          39.832   2.405  22.851  0.00  0.00    -0.398 OA
ATOM     25  H12 C2P d          40.586   2.921  22.592  0.00  0.00     0.209 HD
ENDBRANCH  23  24
ENDBRANCH   4  23
TORSDOF 7
