3mtw_ligand

Created by X-TOOL on Fri Sep 26 17:34:46 2014
 32 31  0  0  0  0  0  0  0  0999 V2000
   26.8330  115.0640    9.5040  C 0  0  0  4  0  4
   27.7320  116.5770    9.2810  P 0  0  0  1  0  4
   28.1990  117.1880   10.6490  O 0  0  0  1  0  1
   26.8770  117.6000    8.6010  O 0  0  0  1  0  1
   29.1240  116.4370    8.4560  N 0  0  0  2  0  3
   29.7760  117.6810    7.9090  C 0  0  0  2  0  4
   29.5640  117.7860    6.4100  C 0  5  0  1  0  3
   29.5870  116.7750    5.7160  O 0  0  0  1  0  1
   31.2730  117.7990    8.2400  C 0  0  0  3  0  4
   31.9310  119.1310    7.8890  C 0  0  0  3  0  4
   33.3250  118.5610    7.8140  C 0  0  0  3  0  4
   34.3380  119.6160    7.6730  N 0  0  0  2  0  3
   34.9490  120.7240    8.0870  C 0  3  0  1  0  3
   34.5240  121.2910    9.2010  N 0  0  0  3  0  3
   35.9830  121.2500    7.4280  N 0  0  0  3  0  3
   29.3340  118.8510    5.8730  O 0  0  0  1  0  1
   27.4766  114.3255   10.0044  H 0  0  0  1  0  1
   26.5218  114.6745    8.5235  H 0  0  0  1  0  1
   25.9433  115.2538   10.1224  H 0  0  0  1  0  1
   29.5418  115.5398    8.3132  H 0  0  0  1  0  1
   29.2730  118.5391    8.3787  H 0  0  0  1  0  1
   31.8029  117.0065    7.6912  H 0  0  0  1  0  1
   31.3926  117.6389    9.3217  H 0  0  0  1  0  1
   31.8174  119.8887    8.6783  H 0  0  0  1  0  1
   31.5826  119.5443    6.9310  H 0  0  0  1  0  1
   33.3885  117.8880    6.9463  H 0  0  0  1  0  1
   33.5277  117.9932    8.7341  H 0  0  0  1  0  1
   34.8311  119.3715    6.8024  H 0  0  0  1  0  1
   34.9764  122.1492    9.5472  H 0  0  0  1  0  1
   33.7401  120.8752    9.7239  H 0  0  0  1  0  1
   36.3171  120.8102    6.5586  H 0  0  0  1  0  1
   36.4471  122.0958    7.7886  H 0  0  0  1  0  1
  1  2  1  0  0  2
  2  3  2  0  0  2
  2  4  2  0  0  2
  2  5  1  0  0  2
  5  6  1  0  0  2
  6  7  1  0  0  2
  6  9  1  0  0  2
  7  8  2  0  0  2
  7 16  2  0  0  2
  9 10  1  0  0  2
 10 11  1  0  0  2
 11 12  1  0  0  2
 12 13  2  0  0  2
 13 14  2  0  0  2
 13 15  2  0  0  2
  1 17  1  0  0  2
  1 18  1  0  0  2
  1 19  1  0  0  2
  5 20  1  0  0  2
  6 21  1  0  0  2
  9 22  1  0  0  2
  9 23  1  0  0  2
 10 24  1  0  0  2
 10 25  1  0  0  2
 11 26  1  0  0  2
 11 27  1  0  0  2
 12 28  1  0  0  2
 14 29  1  0  0  2
 14 30  1  0  0  2
 15 31  1  0  0  2
 15 32  1  0  0  2
M  END
> <MOLECULAR_FORMULA>
C7H16N4O4P

> <MOLECULAR_WEIGHT>
251.1

> <NUM_HB_ATOMS>
8  

> <NUM_ROTOR>
5  

> <XLOGP2>
-2.77

$$$$
