REMARK  7 active torsions:
REMARK  status: ('A' for Active; 'I' for Inactive)
REMARK    1  A    between atoms: P_2  and  N_5 
REMARK    2  A    between atoms: N_5  and  CA_6 
REMARK    3  A    between atoms: CA_6  and  C_7 
REMARK    4  A    between atoms: CA_6  and  CB_9 
REMARK    5  A    between atoms: CB_9  and  CG_10 
REMARK    6  A    between atoms: CG_10  and  CD_11 
REMARK    7  A    between atoms: CD_11  and  NE_12 
REMARK       I    between atoms: NE_12  and  CZ_13 
REMARK       I    between atoms: CZ_13  and  NH2_14 
ROOT
ATOM      1  CB  M3R d          31.273 117.799   8.240  0.00  0.00     0.038 C 
ENDROOT
BRANCH   1   2
ATOM      2  CA  M3R d          29.776 117.681   7.909  0.00  0.00     0.186 C 
BRANCH   2   3
ATOM      3  N   M3R d          29.124 116.437   8.456  0.00  0.00    -0.335 N 
ATOM      4  H4  M3R d          29.542 115.540   8.313  0.00  0.00     0.164 HD
BRANCH   3   5
ATOM      5  P   M3R d          27.732 116.577   9.281  0.00  0.00     0.201 P 
ATOM      6  CP  M3R d          26.833 115.064   9.504  0.00  0.00     0.145 C 
ATOM      7  OPA M3R d          28.199 117.188  10.649  0.00  0.00    -0.652 OA
ATOM      8  OPB M3R d          26.877 117.600   8.601  0.00  0.00    -0.652 OA
ENDBRANCH   3   5
ENDBRANCH   2   3
BRANCH   2   9
ATOM      9  C   M3R d          29.564 117.786   6.410  0.00  0.00     0.196 C 
ATOM     10  OXT M3R d          29.587 116.775   5.716  0.00  0.00    -0.646 OA
ATOM     11  O   M3R d          29.334 118.851   5.873  0.00  0.00    -0.646 OA
ENDBRANCH   2   9
ENDBRANCH   1   2
BRANCH   1  12
ATOM     12  CG  M3R d          31.931 119.131   7.889  0.00  0.00     0.023 C 
BRANCH  12  13
ATOM     13  CD  M3R d          33.325 118.561   7.814  0.00  0.00     0.138 C 
BRANCH  13  14
ATOM     14  NE  M3R d          34.338 119.616   7.673  0.00  0.00    -0.227 N 
ATOM     15  CZ  M3R d          34.949 120.724   8.087  0.00  0.00     0.665 C 
ATOM     16  NH2 M3R d          34.524 121.291   9.201  0.00  0.00    -0.235 N 
ATOM     17  NH1 M3R d          35.983 121.250   7.428  0.00  0.00    -0.235 N 
ATOM     18  H13 M3R d          34.976 122.149   9.547  0.00  0.00     0.174 HD
ATOM     19  H14 M3R d          33.740 120.875   9.724  0.00  0.00     0.174 HD
ATOM     20  H15 M3R d          36.317 120.810   6.559  0.00  0.00     0.174 HD
ATOM     21  H16 M3R d          36.447 122.096   7.789  0.00  0.00     0.174 HD
ATOM     22  H12 M3R d          34.831 119.371   6.802  0.00  0.00     0.177 HD
ENDBRANCH  13  14
ENDBRANCH  12  13
ENDBRANCH   1  12
TORSDOF 7
