REMARK  5 active torsions:
REMARK  status: ('A' for Active; 'I' for Inactive)
REMARK    1  A    between atoms: N1_1  and  C1_9 
REMARK    2  A    between atoms: C3_11  and  O3_13 
REMARK    3  A    between atoms: C4_12  and  C5_15 
REMARK    4  A    between atoms: C5_15  and  O5_16 
REMARK    5  A    between atoms: O5_16  and  P_17 
ROOT
ATOM      1  C1  UMP d          15.431  48.712 -55.026  0.00  0.00     0.235 C 
ATOM      2  C2  UMP d          14.988  48.411 -56.452  0.00  0.00     0.088 C 
ATOM      3  C3  UMP d          16.285  48.614 -57.223  0.00  0.00     0.153 C 
ATOM      4  C4  UMP d          16.883  49.930 -56.711  0.00  0.00     0.177 C 
ATOM      5  O4  UMP d          16.333  49.885 -55.308  0.00  0.00    -0.356 OA
ENDROOT
BRANCH   1   6
ATOM      6  N1  UMP d          14.432  48.846 -53.984  0.00  0.00    -0.282 N 
ATOM      7  C2  UMP d          13.681  47.799 -53.449  0.00  0.00     0.331 A 
ATOM      8  N3  UMP d          12.958  48.087 -52.308  0.00  0.00    -0.275 N 
ATOM      9  O2  UMP d          13.551  46.674 -53.908  0.00  0.00    -0.246 OA
ATOM     10  C4  UMP d          12.918  49.337 -51.686  0.00  0.00     0.250 A 
ATOM     11  H1  UMP d          12.425  47.347 -51.898  0.00  0.00     0.173 HD
ATOM     12  C5  UMP d          13.717  50.359 -52.323  0.00  0.00     0.092 A 
ATOM     13  O4  UMP d          12.229  49.541 -50.686  0.00  0.00    -0.268 OA
ATOM     14  C6  UMP d          14.445  50.046 -53.464  0.00  0.00     0.104 A 
ENDBRANCH   1   6
BRANCH   3  15
ATOM     15  O3  UMP d          17.156  47.563 -56.796  0.00  0.00    -0.393 OA
ATOM     16  H9  UMP d          17.208  47.562 -55.847  0.00  0.00     0.210 HD
ENDBRANCH   3  15
BRANCH   4  17
ATOM     17  C5  UMP d          16.304  51.129 -57.472  0.00  0.00     0.217 C 
BRANCH  17  18
ATOM     18  O5  UMP d          16.897  51.258 -58.846  0.00  0.00    -0.280 OA
BRANCH  18  19
ATOM     19  P   UMP d          15.931  51.726 -59.975  0.00  0.00     0.422 P 
ATOM     20  O1P UMP d          15.260  53.001 -59.692  0.00  0.00    -0.617 OA
ATOM     21  O2P UMP d          16.448  51.818 -61.387  0.00  0.00    -0.617 OA
ATOM     22  O3P UMP d          14.957  50.630 -59.896  0.00  0.00    -0.617 OA
ENDBRANCH  18  19
ENDBRANCH  17  18
ENDBRANCH   4  17
TORSDOF 5
