4zhm_ligand

Created by X-TOOL on Sun Nov 13 14:28:45 2016
136139  0  0  0  0  0  0  0  0999 V2000
    9.8510  -25.0650  -27.5740  N 0  3  0  4  0  4
    8.7720  -26.0860  -27.4020  C 0  0  0  2  0  4
    9.1490  -27.4010  -28.0820  C 0  0  0  1  0  3
    9.3420  -27.4310  -29.2990  O 0  0  0  1  0  1
    7.4580  -25.5680  -27.9830  C 0  0  0  3  0  4
    6.5740  -24.4300  -26.8910  S 0  0  0  1  0  2
    9.2520  -28.4960  -27.3010  N 0  0  0  1  0  3
    9.4910  -29.8000  -27.9200  C 0  0  0  2  0  4
    8.3840  -30.1650  -28.8980  C 0  0  0  1  0  3
    7.2240  -29.8180  -28.6730  O 0  0  0  1  0  1
    9.5070  -30.7670  -26.7310  C 0  0  0  3  0  4
    9.8720  -29.9240  -25.5660  C 0  0  0  3  0  4
    9.2860  -28.5710  -25.8300  C 0  0  0  3  0  4
    8.7420  -30.8510  -29.9790  N 0  0  0  2  0  3
    7.7830  -31.1590  -31.0360  C 0  0  0  2  0  4
    6.5750  -31.9550  -30.5220  C 0  0  0  1  0  3
    5.4940  -31.8710  -31.1000  O 0  0  0  1  0  1
    8.4680  -31.8960  -32.1800  C 0  0  0  4  0  4
    6.7640  -32.7120  -29.4400  N 0  0  0  2  0  3
    5.6980  -33.5320  -28.8590  C 0  0  0  2  0  4
    5.1890  -32.9720  -27.5270  C 0  0  0  1  0  3
    4.6590  -33.7000  -26.6770  O 0  0  0  1  0  1
    6.1810  -34.9820  -28.7340  C 0  0  0  3  0  4
    6.7120  -35.5500  -30.0470  C 0  0  0  1  0  3
    6.2970  -35.0340  -31.2850  C 0  0  0  2  0  3
    7.6120  -36.6120  -30.0610  C 0  0  0  2  0  3
    6.7780  -35.5390  -32.4800  C 0  0  0  2  0  3
    8.0840  -37.1310  -31.2630  C 0  0  0  2  0  3
    7.6710  -36.5820  -32.4640  C 0  0  0  1  0  3
    8.1360  -37.0750  -33.6610  O 0  0  0  2  0  2
    5.3260  -31.6600  -27.3630  N 0  0  0  2  0  3
    4.6740  -30.9780  -26.2710  C 0  0  0  2  0  4
    3.1680  -31.2230  -26.3800  C 0  0  0  1  0  3
    2.5660  -31.1180  -27.4450  O 0  0  0  1  0  1
    4.9610  -29.4810  -26.3070  C 0  0  0  3  0  4
    4.3950  -28.8200  -25.1850  O 0  0  0  2  0  2
    2.6290  -31.3260  -25.2700  N 0  0  0  2  0  3
    1.2420  -31.2440  -24.8250  C 0  0  0  2  0  4
    1.0090  -29.9430  -24.0910  C 0  0  0  1  0  3
   -0.0620  -29.7420  -23.6070  O 0  0  0  1  0  1
    0.8150  -32.3860  -23.9180  C 0  0  0  4  0  4
    1.8400  -28.7480  -23.8110  N 0  0  0  2  0  3
    1.5440  -27.4650  -23.1820  C 0  0  0  2  0  4
    0.6150  -26.6370  -24.0630  C 0  0  0  1  0  3
    0.8300  -26.5220  -25.2860  O 0  0  0  1  0  1
    2.8650  -26.7560  -22.9360  C 0  0  0  3  0  4
    2.7650  -25.4770  -22.1690  C 0  0  0  1  0  3
    1.8830  -25.3390  -21.0950  C 0  0  0  2  0  3
    3.5810  -24.4050  -22.4890  C 0  0  0  2  0  3
    1.8110  -24.1570  -20.3880  C 0  0  0  2  0  3
    3.5150  -23.2250  -21.7900  C 0  0  0  2  0  3
    2.6290  -23.1030  -20.7450  C 0  0  0  1  0  3
    2.5810  -21.9170  -20.0580  O 0  0  0  2  0  2
   -0.4240  -26.0770  -23.4380  N 0  0  0  2  0  3
   -1.3220  -25.1000  -24.0870  C 0  0  0  2  0  4
   -0.5140  -24.0400  -24.8430  C 0  0  0  1  0  3
   -0.8620  -23.6550  -25.9640  O 0  0  0  1  0  1
   -2.2010  -24.3330  -23.0590  C 0  0  0  2  0  4
   -3.0770  -25.2700  -22.2350  C 0  0  0  3  0  4
   -3.0950  -23.3010  -23.7490  C 0  0  0  4  0  4
   -4.1500  -25.9590  -23.0260  C 0  0  0  4  0  4
    0.5670  -23.5770  -24.2220  N 0  0  0  2  0  3
    1.3780  -22.5040  -24.7820  C 0  0  0  3  0  4
    2.3320  -22.8700  -25.9080  C 0  0  0  1  0  3
    3.1360  -22.0300  -26.3020  O 0  0  0  1  0  1
    2.2750  -24.1090  -26.4100  N 0  0  0  2  0  3
    3.1440  -24.5480  -27.5080  C 0  0  0  2  0  4
    2.3610  -24.7450  -28.8040  C 0  5  0  1  0  3
    1.2080  -25.1740  -28.7800  O 0  0  0  1  0  1
    3.8800  -25.8430  -27.1410  C 0  0  0  3  0  4
    5.2280  -25.6370  -25.9530  S 0  0  0  1  0  2
    2.8720  -24.4780  -29.8910  O 0  0  0  1  0  1
    9.5789  -24.2085  -27.1175  H 0  0  0  1  0  1
    9.9955  -24.8910  -28.5563  H 0  0  0  1  0  1
   10.7059  -25.4072  -27.1641  H 0  0  0  1  0  1
    8.6353  -26.2725  -26.3266  H 0  0  0  1  0  1
    6.8055  -26.4298  -28.1868  H 0  0  0  1  0  1
    7.6781  -25.0439  -28.9247  H 0  0  0  1  0  1
   10.4574  -29.8096  -28.4452  H 0  0  0  1  0  1
   10.2538  -31.5597  -26.8855  H 0  0  0  1  0  1
    8.5154  -31.2205  -26.5863  H 0  0  0  1  0  1
   10.9659  -29.8544  -25.4733  H 0  0  0  1  0  1
    9.4519  -30.3478  -24.6419  H 0  0  0  1  0  1
    8.2733  -28.4914  -25.4081  H 0  0  0  1  0  1
    9.9217  -27.7777  -25.4098  H 0  0  0  1  0  1
    9.6878  -31.1626  -30.0701  H 0  0  0  1  0  1
    7.4054  -30.2034  -31.4287  H 0  0  0  1  0  1
    7.7312  -32.1193  -32.9656  H 0  0  0  1  0  1
    8.8997  -32.8355  -31.8046  H 0  0  0  1  0  1
    9.2676  -31.2654  -32.5958  H 0  0  0  1  0  1
    7.6666  -32.7201  -29.0096  H 0  0  0  1  0  1
    4.8498  -33.5216  -29.5593  H 0  0  0  1  0  1
    5.3383  -35.6043  -28.3985  H 0  0  0  1  0  1
    6.9858  -35.0199  -27.9851  H 0  0  0  1  0  1
    5.5819  -34.2196  -31.3051  H 0  0  0  1  0  1
    7.9494  -37.0400  -29.1240  H 0  0  0  1  0  1
    6.4521  -35.1141  -33.4225  H 0  0  0  1  0  1
    8.7755  -37.9658  -31.2583  H 0  0  0  1  0  1
    7.7506  -36.5826  -34.3761  H 0  0  0  1  0  1
    5.8883  -31.1386  -28.0048  H 0  0  0  1  0  1
    5.0425  -31.3873  -25.3188  H 0  0  0  1  0  1
    4.5327  -29.0561  -27.2268  H 0  0  0  1  0  1
    6.0498  -29.3247  -26.3032  H 0  0  0  1  0  1
    4.7644  -29.1800  -24.3872  H 0  0  0  1  0  1
    3.2759  -31.5009  -24.5277  H 0  0  0  1  0  1
    0.6032  -31.2646  -25.7202  H 0  0  0  1  0  1
   -0.2376  -32.2505  -23.6286  H 0  0  0  1  0  1
    1.4451  -32.3934  -23.0164  H 0  0  0  1  0  1
    0.9283  -33.3407  -24.4524  H 0  0  0  1  0  1
    2.7893  -28.8388  -24.1121  H 0  0  0  1  0  1
    1.0453  -27.6400  -22.2173  H 0  0  0  1  0  1
    3.3191  -26.5329  -23.9127  H 0  0  0  1  0  1
    3.5193  -27.4395  -22.3749  H 0  0  0  1  0  1
    1.2474  -26.1708  -20.8137  H 0  0  0  1  0  1
    4.2857  -24.4992  -23.3073  H 0  0  0  1  0  1
    1.1188  -24.0562  -19.5599  H 0  0  0  1  0  1
    4.1573  -22.3946  -22.0601  H 0  0  0  1  0  1
    3.4321  -21.7394  -19.6752  H 0  0  0  1  0  1
   -0.6022  -26.3307  -22.4873  H 0  0  0  1  0  1
   -1.9730  -25.6394  -24.7907  H 0  0  0  1  0  1
   -1.5254  -23.8021  -22.3722  H 0  0  0  1  0  1
   -3.5579  -24.6826  -21.4390  H 0  0  0  1  0  1
   -2.4322  -26.0390  -21.7846  H 0  0  0  1  0  1
   -2.4731  -22.6187  -24.3471  H 0  0  0  1  0  1
   -3.6444  -22.7255  -22.9894  H 0  0  0  1  0  1
   -3.8102  -23.8167  -24.4066  H 0  0  0  1  0  1
   -4.7334  -26.6126  -22.3608  H 0  0  0  1  0  1
   -3.6887  -26.5630  -23.8213  H 0  0  0  1  0  1
   -4.8145  -25.2065  -23.4757  H 0  0  0  1  0  1
    0.8311  -23.9773  -23.3445  H 0  0  0  1  0  1
    1.9789  -22.0814  -23.9633  H 0  0  0  1  0  1
    0.6909  -21.7360  -25.1668  H 0  0  0  1  0  1
    1.6185  -24.7572  -26.0242  H 0  0  0  1  0  1
    3.8947  -23.7624  -27.6789  H 0  0  0  1  0  1
    4.2990  -26.2719  -28.0632  H 0  0  0  1  0  1
    3.1483  -26.5426  -26.7107  H 0  0  0  1  0  1
  1  2  1  0  0  2
  2  3  1  0  0  1
  2  5  1  0  0  1
  3  4  2  0  0  2
  3  7  1  0  0  1
  5  6  1  0  0  1
  6 71  1  0  0  1
  7  8  1  0  0  1
  7 13  1  0  0  1
  8  9  1  0  0  1
  8 11  1  0  0  1
  9 10  2  0  0  2
  9 14  1  0  0  1
 11 12  1  0  0  1
 12 13  1  0  0  1
 14 15  1  0  0  1
 15 16  1  0  0  1
 15 18  1  0  0  2
 16 17  2  0  0  2
 16 19  1  0  0  1
 19 20  1  0  0  1
 20 21  1  0  0  1
 20 23  1  0  0  2
 21 22  2  0  0  2
 21 31  1  0  0  1
 23 24  1  0  0  2
 24 25  4  0  0  1
 24 26  4  0  0  1
 25 27  4  0  0  1
 26 28  4  0  0  1
 27 29  4  0  0  1
 28 29  4  0  0  1
 29 30  1  0  0  2
 31 32  1  0  0  1
 32 33  1  0  0  1
 32 35  1  0  0  2
 33 34  2  0  0  2
 33 37  1  0  0  1
 35 36  1  0  0  2
 37 38  1  0  0  1
 38 39  1  0  0  1
 38 41  1  0  0  2
 39 40  2  0  0  2
 39 42  1  0  0  1
 42 43  1  0  0  1
 43 44  1  0  0  1
 43 46  1  0  0  2
 44 45  2  0  0  2
 44 54  1  0  0  1
 46 47  1  0  0  2
 47 48  4  0  0  1
 47 49  4  0  0  1
 48 50  4  0  0  1
 49 51  4  0  0  1
 50 52  4  0  0  1
 51 52  4  0  0  1
 52 53  1  0  0  2
 54 55  1  0  0  1
 55 56  1  0  0  1
 55 58  1  0  0  2
 56 57  2  0  0  2
 56 62  1  0  0  1
 58 59  1  0  0  2
 58 60  1  0  0  2
 59 61  1  0  0  2
 62 63  1  0  0  1
 63 64  1  0  0  1
 64 65  2  0  0  2
 64 66  1  0  0  1
 66 67  1  0  0  1
 67 68  1  0  0  2
 67 70  1  0  0  1
 68 69  2  0  0  2
 68 72  2  0  0  2
 70 71  1  0  0  1
  1 73  1  0  0  2
  1 74  1  0  0  2
  1 75  1  0  0  2
  2 76  1  0  0  2
  5 77  1  0  0  2
  5 78  1  0  0  2
  8 79  1  0  0  2
 11 80  1  0  0  2
 11 81  1  0  0  2
 12 82  1  0  0  2
 12 83  1  0  0  2
 13 84  1  0  0  2
 13 85  1  0  0  2
 14 86  1  0  0  2
 15 87  1  0  0  2
 18 88  1  0  0  2
 18 89  1  0  0  2
 18 90  1  0  0  2
 19 91  1  0  0  2
 20 92  1  0  0  2
 23 93  1  0  0  2
 23 94  1  0  0  2
 25 95  1  0  0  2
 26 96  1  0  0  2
 27 97  1  0  0  2
 28 98  1  0  0  2
 30 99  1  0  0  2
 31100  1  0  0  2
 32101  1  0  0  2
 35102  1  0  0  2
 35103  1  0  0  2
 36104  1  0  0  2
 37105  1  0  0  2
 38106  1  0  0  2
 41107  1  0  0  2
 41108  1  0  0  2
 41109  1  0  0  2
 42110  1  0  0  2
 43111  1  0  0  2
 46112  1  0  0  2
 46113  1  0  0  2
 48114  1  0  0  2
 49115  1  0  0  2
 50116  1  0  0  2
 51117  1  0  0  2
 53118  1  0  0  2
 54119  1  0  0  2
 55120  1  0  0  2
 58121  1  0  0  2
 59122  1  0  0  2
 59123  1  0  0  2
 60124  1  0  0  2
 60125  1  0  0  2
 60126  1  0  0  2
 61127  1  0  0  2
 61128  1  0  0  2
 61129  1  0  0  2
 62130  1  0  0  2
 63131  1  0  0  2
 63132  1  0  0  2
 66133  1  0  0  2
 67134  1  0  0  2
 70135  1  0  0  2
 70136  1  0  0  2
M  END
> <MOLECULAR_FORMULA>
C46H64N10O14S2

> <MOLECULAR_WEIGHT>
1044.7

> <NUM_HB_ATOMS>
25 

> <NUM_ROTOR>
7  

> <XLOGP2>
-1.28

$$$$
