REMARK  2 active torsions:
REMARK  status: ('A' for Active; 'I' for Inactive)
REMARK    1  A    between atoms: C2_2  and  S15_8 
REMARK    2  A    between atoms: C3_3  and  S17_9 
ROOT
ATOM      1  C1  TLD d          18.501  -6.013  26.112  0.00  0.00     0.020 A 
ATOM      2  C2  TLD d          17.774  -5.473  24.926  0.00  0.00     0.014 A 
ATOM      3  C3  TLD d          17.925  -4.135  24.566  0.00  0.00     0.014 A 
ATOM      4  C4  TLD d          18.810  -3.255  25.375  0.00  0.00     0.026 A 
ATOM      5  C5  TLD d          19.465  -3.765  26.460  0.00  0.00    -0.061 A 
ATOM      6  C6  TLD d          19.301  -5.204  26.846  0.00  0.00     0.008 A 
ATOM      7  C13 TLD d          20.353  -2.875  27.282  0.00  0.00     0.048 C 
ENDROOT
BRANCH   2   8
ATOM      8  S15 TLD d          16.718  -6.595  23.998  0.00  0.00    -0.142 SA
ATOM      9  H7  TLD d          16.748  -7.510  24.421  0.00  0.00     0.107 HD
ENDBRANCH   2   8
BRANCH   3  10
ATOM     10  S17 TLD d          17.064  -3.426  23.155  0.00  0.00    -0.142 SA
ATOM     11  H8  TLD d          16.507  -4.139  22.710  0.00  0.00     0.107 HD
ENDBRANCH   3  10
TORSDOF 2
