REMARK  10 active torsions:
REMARK  status: ('A' for Active; 'I' for Inactive)
REMARK    1  A    between atoms: O3B_8  and  PG_1 
REMARK    2  A    between atoms: PB_5  and  O3B_8 
REMARK    3  A    between atoms: O3A_12  and  PB_5 
REMARK    4  A    between atoms: PA_9  and  O3A_12 
REMARK    5  A    between atoms: PA_9  and  O5'_13 
REMARK    6  A    between atoms: O5'_13  and  C5'_14 
REMARK    7  A    between atoms: C5'_14  and  C4'_15 
REMARK    8  A    between atoms: C3'_17  and  O3'_18 
REMARK    9  A    between atoms: C2'_19  and  O2'_20 
REMARK   10  A    between atoms: C1'_21  and  N9_22 
ROOT
ATOM      1  C4' ATP d         -25.081 -10.015  21.692  0.00  0.00     0.180 A 
ATOM      2  O4' ATP d         -26.182  -9.541  22.474  0.00  0.00    -0.353 OA
ATOM      3  C3' ATP d         -23.844  -9.230  22.106  0.00  0.00     0.182 A 
ATOM      4  C2' ATP d         -24.297  -8.258  23.180  0.00  0.00     0.198 A 
ATOM      5  C1' ATP d         -25.789  -8.496  23.368  0.00  0.00     0.262 A 
ENDROOT
BRANCH   1   6
ATOM      6  C5' ATP d         -24.889 -11.507  21.937  0.00  0.00     0.216 C 
BRANCH   6   7
ATOM      7  O5' ATP d         -25.718 -12.246  21.041  0.00  0.00    -0.287 OA
BRANCH   7   8
ATOM      8  PA  ATP d         -25.100 -12.896  19.704  0.00  0.00     0.417 P 
ATOM      9  O1A ATP d         -25.794 -12.278  18.514  0.00  0.00    -0.624 OA
ATOM     10  O2A ATP d         -23.594 -12.847  19.807  0.00  0.00    -0.624 OA
BRANCH   8  11
ATOM     11  O3A ATP d         -25.563 -14.434  19.814  0.00  0.00    -0.180 OA
BRANCH  11  12
ATOM     12  PB  ATP d         -24.662 -15.606  19.177  0.00  0.00     0.428 P 
ATOM     13  O1B ATP d         -23.632 -16.020  20.201  0.00  0.00    -0.624 OA
ATOM     14  O2B ATP d         -24.222 -15.169  17.801  0.00  0.00    -0.624 OA
BRANCH  12  15
ATOM     15  O3B ATP d         -25.717 -16.810  19.010  0.00  0.00    -0.173 OA
BRANCH  15  16
ATOM     16  PG  ATP d         -25.333 -18.121  18.158  0.00  0.00     0.431 P 
ATOM     17  O1G ATP d         -23.965 -17.806  17.603  0.00  0.00    -0.616 OA
ATOM     18  O2G ATP d         -26.423 -18.212  17.117  0.00  0.00    -0.616 OA
ATOM     19  O3G ATP d         -25.351 -19.235  19.178  0.00  0.00    -0.616 OA
ENDBRANCH  15  16
ENDBRANCH  12  15
ENDBRANCH  11  12
ENDBRANCH   8  11
ENDBRANCH   7   8
ENDBRANCH   6   7
ENDBRANCH   1   6
BRANCH   3  20
ATOM     20  O3' ATP d         -23.344  -8.500  20.980  0.00  0.00    -0.390 OA
ATOM     21  H5  ATP d         -24.012  -7.900  20.671  0.00  0.00     0.210 HD
ENDBRANCH   3  20
BRANCH   5  22
ATOM     22  N9  ATP d         -26.051  -8.917  24.768  0.00  0.00    -0.294 N 
ATOM     23  C8  ATP d         -25.452  -8.416  25.865  0.00  0.00     0.214 A 
ATOM     24  N7  ATP d         -25.914  -9.015  26.992  0.00  0.00    -0.236 NA
ATOM     25  C5  ATP d         -26.833  -9.924  26.619  0.00  0.00     0.149 A 
ATOM     26  C6  ATP d         -27.709 -10.903  27.306  0.00  0.00     0.155 A 
ATOM     27  C4  ATP d         -26.919  -9.856  25.152  0.00  0.00     0.167 A 
ATOM     28  N6  ATP d         -27.693 -11.031  28.655  0.00  0.00    -0.382 N 
ATOM     29  N1  ATP d         -28.524 -11.663  26.541  0.00  0.00    -0.222 NA
ATOM     30  H10 ATP d         -28.309 -11.717  29.115  0.00  0.00     0.157 HD
ATOM     31  H11 ATP d         -27.065 -10.443  29.221  0.00  0.00     0.157 HD
ATOM     32  C2  ATP d         -28.549 -11.545  25.201  0.00  0.00     0.237 A 
ATOM     33  N3  ATP d         -27.783 -10.680  24.512  0.00  0.00    -0.222 NA
ENDBRANCH   5  22
BRANCH   4  34
ATOM     34  O2' ATP d         -24.081  -6.915  22.730  0.00  0.00    -0.388 OA
ATOM     35  H7  ATP d         -24.579  -6.764  21.935  0.00  0.00     0.210 HD
ENDBRANCH   4  34
TORSDOF 10
