REMARK  1 active torsions:
REMARK  status: ('A' for Active; 'I' for Inactive)
REMARK    1  A    between atoms: N1_9  and  O1_10 
ROOT
ATOM      1  C7  MOL d          17.095   1.391  12.450  0.00  0.00     0.071 C 
ATOM      2  C5  MOL d          16.369   1.850  13.683  0.00  0.00     0.038 A 
ATOM      3  C4  MOL d          15.993   3.158  13.809  0.00  0.00     0.034 A 
ATOM      4  C3  MOL d          15.369   3.591  14.964  0.00  0.00    -0.057 A 
ATOM      5  C6  MOL d          14.947   5.043  15.100  0.00  0.00     0.048 C 
ATOM      6  C2  MOL d          15.072   2.698  15.953  0.00  0.00     0.051 A 
ATOM      7  C1  MOL d          15.441   1.379  15.820  0.00  0.00     0.129 A 
ATOM      8  S1  MOL d          15.065   0.234  17.087  0.00  0.00    -0.058 SA
ATOM      9  N1  MOL d          16.142   0.971  14.711  0.00  0.00    -0.219 N 
ENDROOT
BRANCH   9  10
ATOM     10  O1  MOL d          16.547  -0.303  14.605  0.00  0.00    -0.282 OA
ATOM     11  H9  MOL d          15.790  -0.877  14.623  0.00  0.00     0.245 HD
ENDBRANCH   9  10
TORSDOF 1
