REMARK  15 active torsions:
REMARK  status: ('A' for Active; 'I' for Inactive)
REMARK    1  A    between atoms: C8_2  and  O1_16 
REMARK    2  A    between atoms: C1_30  and  C16_9 
REMARK    3  A    between atoms: C28_12  and  N1_14 
REMARK    4  A    between atoms: O1_16  and  C34_17 
REMARK    5  A    between atoms: C34_17  and  C25_18 
REMARK       I    between atoms: C25_18  and  N16_20 
REMARK    6  A    between atoms: N16_20  and  C17_32 
REMARK    7  A    between atoms: C17_32  and  C15_21 
REMARK    8  A    between atoms: C15_21  and  C12_23 
REMARK    9  A    between atoms: C15_21  and  O14_22 
REMARK   10  A    between atoms: C12_23  and  C4_24 
REMARK   11  A    between atoms: C4_24  and  N3_29 
REMARK   12  A    between atoms: C4_24  and  C5_25 
REMARK   13  A    between atoms: C5_25  and  C6_26 
REMARK       I    between atoms: N3_29  and  C1_30 
REMARK   14  A    between atoms: C17_32  and  C18_33 
REMARK   15  A    between atoms: C18_33  and  C19_34 
ROOT
ATOM      1  C15 R37 d          31.478  32.795  14.405  0.00  0.00     0.143 C 
ENDROOT
BRANCH   1   2
ATOM      2  C17 R37 d          30.817  32.598  12.998  0.00  0.00     0.117 C 
BRANCH   2   3
ATOM      3  N16 R37 d          31.752  31.997  12.062  0.00  0.00    -0.352 N 
ATOM      4  C25 R37 d          31.851  32.374  10.784  0.00  0.00     0.242 C 
ATOM      5  O26 R37 d          31.374  33.438  10.364  0.00  0.00    -0.271 OA
ATOM      6  H18 R37 d          32.350  31.266  12.390  0.00  0.00     0.163 HD
BRANCH   4   7
ATOM      7  C34 R37 d          32.618  31.424   9.839  0.00  0.00     0.278 C 
BRANCH   7   8
ATOM      8  O1  R37 d          33.389  30.506  10.552  0.00  0.00    -0.341 OA
BRANCH   8   9
ATOM      9  C8  R37 d          34.455  29.842   9.950  0.00  0.00     0.081 A 
ATOM     10  C   R37 d          34.144  28.637   9.360  0.00  0.00    -0.028 A 
ATOM     11  C2  R37 d          32.713  28.132   9.404  0.00  0.00     0.051 C 
ATOM     12  C14 R37 d          35.142  27.894   8.715  0.00  0.00     0.009 A 
ATOM     13  C13 R37 d          36.442  28.360   8.664  0.00  0.00     0.001 A 
ATOM     14  C10 R37 d          36.760  29.567   9.249  0.00  0.00     0.009 A 
ATOM     15  C9  R37 d          35.777  30.319   9.897  0.00  0.00    -0.028 A 
ATOM     16  C3  R37 d          36.113  31.683  10.471  0.00  0.00     0.051 C 
ENDBRANCH   8   9
ENDBRANCH   7   8
ENDBRANCH   4   7
ENDBRANCH   2   3
BRANCH   2  17
ATOM     17  C18 R37 d          29.581  31.684  13.111  0.00  0.00     0.066 C 
BRANCH  17  18
ATOM     18  C19 R37 d          28.922  31.368  11.782  0.00  0.00    -0.056 A 
ATOM     19  C24 R37 d          29.046  30.093  11.214  0.00  0.00     0.007 A 
ATOM     20  C23 R37 d          28.459  29.779   9.975  0.00  0.00     0.001 A 
ATOM     21  C22 R37 d          27.732  30.757   9.307  0.00  0.00     0.000 A 
ATOM     22  C21 R37 d          27.598  32.027   9.872  0.00  0.00     0.001 A 
ATOM     23  C20 R37 d          28.197  32.330  11.105  0.00  0.00     0.007 A 
ENDBRANCH  17  18
ENDBRANCH   2  17
ENDBRANCH   1   2
BRANCH   1  24
ATOM     24  C12 R37 d          32.801  33.497  14.287  0.00  0.00     0.059 C 
BRANCH  24  25
ATOM     25  C4  R37 d          32.849  34.969  13.922  0.00  0.00     0.087 C 
BRANCH  25  26
ATOM     26  N3  R37 d          31.608  35.645  14.304  0.00  0.00    -0.352 N 
ATOM     27  C1  R37 d          31.208  36.769  13.709  0.00  0.00     0.252 C 
ATOM     28  O2  R37 d          31.348  36.955  12.487  0.00  0.00    -0.268 OA
ATOM     29  H33 R37 d          31.045  35.253  15.031  0.00  0.00     0.163 HD
BRANCH  27  30
ATOM     30  C16 R37 d          30.551  37.726  14.513  0.00  0.00     0.032 A 
ATOM     31  C30 R37 d          29.545  38.536  13.967  0.00  0.00     0.019 A 
ATOM     32  C29 R37 d          28.881  39.487  14.741  0.00  0.00     0.030 A 
ATOM     33  C28 R37 d          29.211  39.663  16.089  0.00  0.00     0.025 A 
ATOM     34  C27 R37 d          30.211  38.870  16.654  0.00  0.00     0.030 A 
ATOM     35  C26 R37 d          30.879  37.905  15.868  0.00  0.00     0.019 A 
BRANCH  33  36
ATOM     36  N1  R37 d          28.502  40.712  16.906  0.00  0.00    -0.399 N 
ATOM     37  H13 R37 d          28.744  40.842  17.899  0.00  0.00     0.156 HD
ATOM     38  H14 R37 d          27.775  41.299  16.472  0.00  0.00     0.156 HD
ENDBRANCH  33  36
ENDBRANCH  27  30
ENDBRANCH  25  26
BRANCH  25  39
ATOM     39  C5  R37 d          34.081  35.704  14.499  0.00  0.00     0.029 C 
BRANCH  39  40
ATOM     40  C6  R37 d          35.480  35.090  14.364  0.00  0.00    -0.021 C 
ATOM     41  C7  R37 d          36.474  36.030  14.995  0.00  0.00     0.009 C 
ATOM     42  C11 R37 d          35.785  34.970  12.855  0.00  0.00     0.009 C 
ENDBRANCH  39  40
ENDBRANCH  25  39
ENDBRANCH  24  25
ENDBRANCH   1  24
BRANCH   1  43
ATOM     43  O14 R37 d          31.772  31.518  14.967  0.00  0.00    -0.393 OA
ATOM     44  H20 R37 d          30.967  31.024  15.066  0.00  0.00     0.210 HD
ENDBRANCH   1  43
TORSDOF 15
