REMARK  7 active torsions:
REMARK  status: ('A' for Active; 'I' for Inactive)
REMARK    1  A    between atoms: N1_1  and  C7_8 
REMARK    2  A    between atoms: C4_4  and  O19_5 
REMARK    3  A    between atoms: C4_4  and  C20_19 
REMARK    4  A    between atoms: C7_8  and  C8_9 
REMARK    5  A    between atoms: C8_9  and  C9_10 
REMARK    6  A    between atoms: C9_10  and  C10_11 
REMARK    7  A    between atoms: C10_11  and  C12_12 
ROOT
ATOM      1  N1  THK d          63.840  38.186   0.208  0.00  0.00    -0.071 N 
ATOM      2  C2  THK d          64.966  37.932   1.128  0.00  0.00     0.238 C 
ATOM      3  C3  THK d          64.487  37.593   2.545  0.00  0.00     0.071 C 
ATOM      4  C4  THK d          63.475  38.619   3.090  0.00  0.00     0.088 C 
ATOM      5  C5  THK d          62.298  38.690   2.102  0.00  0.00     0.071 C 
ATOM      6  C6  THK d          62.786  39.091   0.707  0.00  0.00     0.238 C 
ATOM      7  H1  THK d          63.405  37.291   0.045  0.00  0.00     0.279 HD
ENDROOT
BRANCH   1   8
ATOM      8  C7  THK d          64.299  38.708  -1.096  0.00  0.00     0.235 C 
BRANCH   8   9
ATOM      9  C8  THK d          65.108  37.680  -1.895  0.00  0.00     0.030 C 
BRANCH   9  10
ATOM     10  C9  THK d          66.191  38.435  -2.684  0.00  0.00     0.038 C 
BRANCH  10  11
ATOM     11  C10 THK d          66.492  37.788  -4.051  0.00  0.00     0.083 C 
ATOM     12  S51 THK d          66.976  36.057  -3.765  0.00  0.00    -0.142 SA
ATOM     13  C52 THK d          68.399  36.000  -4.896  0.00  0.00     0.086 C 
ATOM     14  C55 THK d          68.851  37.362  -5.430  0.00  0.00     0.086 C 
ATOM     15  S58 THK d          67.879  38.738  -4.784  0.00  0.00    -0.142 SA
BRANCH  11  16
ATOM     16  C12 THK d          65.355  37.884  -4.910  0.00  0.00    -0.029 A 
ATOM     17  C13 THK d          64.966  39.133  -5.424  0.00  0.00     0.012 A 
ATOM     18  C14 THK d          63.788  39.278  -6.163  0.00  0.00     0.043 A 
ATOM     19  C15 THK d          62.984  38.165  -6.409  0.00  0.00     0.116 A 
ATOM     20  F18 THK d          61.800  38.304  -7.075  0.00  0.00    -0.206 F 
ATOM     21  C16 THK d          63.386  36.911  -5.941  0.00  0.00     0.043 A 
ATOM     22  C17 THK d          64.567  36.762  -5.205  0.00  0.00     0.012 A 
ENDBRANCH  11  16
ENDBRANCH  10  11
ENDBRANCH   9  10
ENDBRANCH   8   9
ENDBRANCH   1   8
BRANCH   4  23
ATOM     23  O19 THK d          64.094  39.902   3.101  0.00  0.00    -0.385 OA
ATOM     24  H6  THK d          63.480  40.546   3.435  0.00  0.00     0.211 HD
ENDBRANCH   4  23
BRANCH   4  25
ATOM     25  C20 THK d          63.119  38.348   4.449  0.00  0.00    -0.024 A 
ATOM     26  C21 THK d          64.134  38.128   5.400  0.00  0.00     0.012 A 
ATOM     27  C22 THK d          63.832  37.768   6.715  0.00  0.00     0.024 A 
ATOM     28  C23 THK d          62.501  37.639   7.113  0.00  0.00     0.034 A 
ATOM     29 CL6  THK d          62.144  37.096   8.736  0.00  0.00    -0.084 Cl
ATOM     30  C24 THK d          61.475  37.899   6.189  0.00  0.00     0.024 A 
ATOM     31  C25 THK d          61.779  38.266   4.868  0.00  0.00     0.012 A 
ENDBRANCH   4  25
TORSDOF 7
