REMARK  7 active torsions:
REMARK  status: ('A' for Active; 'I' for Inactive)
REMARK    1  A    between atoms: C_1  and  CA_4 
REMARK       I    between atoms: NAV_21  and  C_1 
REMARK    2  A    between atoms: CAH_9  and  CAL_13 
REMARK    3  A    between atoms: CAZ_24  and  CAR_18 
REMARK    4  A    between atoms: CAX_22  and  NAV_21 
REMARK    5  A    between atoms: CAX_22  and  CAY_23 
REMARK       I    between atoms: CAY_23  and  NBK_35 
REMARK    6  A    between atoms: NBK_35  and  SBM_37 
REMARK    7  A    between atoms: SBM_37  and  CBN_38 
ROOT
ATOM      1  N   SU3 d         -15.079  -9.759  13.760  0.00  0.00    -0.334 N 
ATOM      2  CA  SU3 d         -13.707  -9.772  14.322  0.00  0.00     0.181 C 
ATOM      3  CB  SU3 d         -12.928 -10.636  13.350  0.00  0.00     0.069 C 
ATOM      4  CG  SU3 d         -13.984 -11.650  12.871  0.00  0.00     0.154 C 
ATOM      5  CAF SU3 d         -16.062  -9.013  14.258  0.00  0.00     0.244 C 
ATOM      6  OAG SU3 d         -15.816  -8.230  15.184  0.00  0.00    -0.271 OA
ATOM      7  CAH SU3 d         -17.431  -9.000  13.591  0.00  0.00     0.186 C 
ATOM      8  NAI SU3 d         -18.400  -9.259  14.643  0.00  0.00    -0.323 N 
ATOM      9  CAJ SU3 d         -18.975 -10.438  14.767  0.00  0.00     0.361 C 
ATOM     10  OAK SU3 d         -19.822 -10.520  15.816  0.00  0.00    -0.303 OA
ATOM     11  OAM SU3 d         -18.804 -11.383  13.998  0.00  0.00    -0.238 OA
ATOM     12  CAO SU3 d         -13.500 -13.640  14.088  0.00  0.00     0.371 C 
ATOM     13  OAP SU3 d         -12.556 -13.871  13.328  0.00  0.00    -0.238 OA
ATOM     14  NAQ SU3 d         -13.740 -14.413  15.100  0.00  0.00    -0.278 N 
ATOM     15  CBB SU3 d         -13.068 -15.658  15.486  0.00  0.00     0.114 A 
ATOM     16  CBC SU3 d         -13.728 -16.078  16.765  0.00  0.00    -0.008 A 
ATOM     17  CBD SU3 d         -14.717 -15.155  17.097  0.00  0.00    -0.002 A 
ATOM     18  CBE SU3 d         -14.808 -14.071  16.048  0.00  0.00     0.114 A 
ATOM     19  CBF SU3 d         -13.478 -17.166  17.588  0.00  0.00     0.014 A 
ATOM     20  CBG SU3 d         -14.225 -17.317  18.739  0.00  0.00     0.002 A 
ATOM     21  CBH SU3 d         -15.219 -16.395  19.061  0.00  0.00     0.008 A 
ATOM     22  CBI SU3 d         -15.489 -15.287  18.246  0.00  0.00    -0.046 A 
ATOM     23  CBJ SU3 d         -16.550 -14.233  18.640  0.00  0.00     0.039 C 
ATOM     24  CBS SU3 d         -17.971 -14.673  18.847  0.00  0.00     0.005 C 
ATOM     25  CBT SU3 d         -18.806 -13.390  18.904  0.00  0.00     0.001 C 
ATOM     26  CBU SU3 d         -19.099 -12.845  17.500  0.00  0.00     0.011 C 
ATOM     27  CBV SU3 d         -20.482 -12.212  17.398  0.00  0.00    -0.025 C 
ATOM     28  CBW SU3 d         -20.607 -11.705  15.992  0.00  0.00     0.189 C 
ATOM     29  CBX SU3 d         -21.587 -13.263  17.582  0.00  0.00     0.017 C 
ATOM     30  CBY SU3 d         -20.646 -11.070  18.422  0.00  0.00     0.017 C 
ATOM     31  CD1 SU3 d         -15.213 -10.772  12.676  0.00  0.00     0.159 C 
ATOM     32  OD2 SU3 d         -14.284 -12.555  13.946  0.00  0.00    -0.296 OA
ATOM     33  H6  SU3 d         -18.635  -8.529  15.285  0.00  0.00     0.165 HD
ENDROOT
BRANCH   2  34
ATOM     34  C   SU3 d         -13.219  -8.313  14.338  0.00  0.00     0.241 C 
ATOM     35  O   SU3 d         -13.339  -7.565  13.361  0.00  0.00    -0.271 OA
ATOM     36  NAV SU3 d         -12.575  -7.949  15.440  0.00  0.00    -0.341 N 
ATOM     37  H15 SU3 d         -12.293  -8.659  16.085  0.00  0.00     0.163 HD
BRANCH  36  38
ATOM     38  CAX SU3 d         -12.261  -6.564  15.752  0.00  0.00     0.119 A 
ATOM     39  CAZ SU3 d         -13.535  -5.732  16.100  0.00  0.00     0.026 A 
ATOM     40  CBA SU3 d         -12.577  -6.135  17.194  0.00  0.00     0.049 A 
BRANCH  38  41
ATOM     41  CAY SU3 d         -11.025  -5.931  15.133  0.00  0.00     0.259 C 
ATOM     42  NBK SU3 d         -10.282  -6.709  14.395  0.00  0.00    -0.252 N 
ATOM     43  H26 SU3 d         -10.496  -7.676  14.260  0.00  0.00     0.181 HD
ATOM     44  OBL SU3 d         -10.784  -4.753  15.386  0.00  0.00    -0.270 OA
BRANCH  42  45
ATOM     45  SBM SU3 d          -9.015  -6.021  13.724  0.00  0.00     0.237 S 
ATOM     46  OBO SU3 d          -9.410  -4.962  12.768  0.00  0.00    -0.205 OA
ATOM     47  OBP SU3 d          -8.020  -5.567  14.698  0.00  0.00    -0.205 OA
BRANCH  45  48
ATOM     48  CBN SU3 d          -8.275  -7.332  12.756  0.00  0.00     0.130 A 
ATOM     49  CBQ SU3 d          -6.837  -7.064  12.297  0.00  0.00     0.023 A 
ATOM     50  CBR SU3 d          -7.123  -8.016  13.456  0.00  0.00     0.023 A 
ENDBRANCH  45  48
ENDBRANCH  42  45
ENDBRANCH  38  41
BRANCH  39  51
ATOM     51  CAR SU3 d         -13.589  -4.251  15.744  0.00  0.00     0.003 C 
ATOM     52  CAS SU3 d         -14.110  -4.039  14.325  0.00  0.00     0.005 C 
ENDBRANCH  39  51
ENDBRANCH  36  38
ENDBRANCH   2  34
BRANCH   7  53
ATOM     53  CAL SU3 d         -17.739  -7.680  12.835  0.00  0.00    -0.022 C 
ATOM     54  CAT SU3 d         -19.070  -7.842  12.071  0.00  0.00     0.017 C 
ATOM     55  CBZ SU3 d         -17.857  -6.470  13.753  0.00  0.00     0.017 C 
ATOM     56  CCA SU3 d         -16.627  -7.433  11.802  0.00  0.00     0.017 C 
ENDBRANCH   7  53
TORSDOF 7
