REMARK  9 active torsions:
REMARK  status: ('A' for Active; 'I' for Inactive)
REMARK    1  A    between atoms: C1_1  and  O1_2 
REMARK    2  A    between atoms: C2_4  and  O2_5 
REMARK    3  A    between atoms: C3_7  and  O3_8 
REMARK    4  A    between atoms: C4_9  and  N4_10 
REMARK       I    between atoms: N4_10  and  C9_11 
REMARK    5  A    between atoms: C9_11  and  C10_19 
REMARK    6  A    between atoms: C11_18  and  C12_16 
REMARK    7  A    between atoms: C12_16  and  O12_17 
REMARK    8  A    between atoms: C10_19  and  C11_18 
REMARK    9  A    between atoms: C10_19  and  O10_20 
ROOT
ATOM      1  C1  MGS d          -7.807 -21.735  18.311  0.00  0.00     0.291 C 
ATOM      2  C2  MGS d          -8.233 -20.447  17.630  0.00  0.00     0.206 C 
ATOM      3  C3  MGS d          -9.753 -20.431  17.362  0.00  0.00     0.177 C 
ATOM      4  C4  MGS d         -10.111 -21.719  16.625  0.00  0.00     0.144 C 
ATOM      5  C5  MGS d          -9.541 -22.981  17.283  0.00  0.00     0.146 C 
ATOM      6  O5  MGS d          -8.093 -22.895  17.525  0.00  0.00    -0.352 OA
ATOM      7  C6  MGS d          -9.851 -24.236  16.434  0.00  0.00     0.042 C 
ENDROOT
BRANCH   4   8
ATOM      8  N4  MGS d         -11.586 -21.905  16.402  0.00  0.00    -0.349 N 
ATOM      9  C9  MGS d         -11.890 -21.668  15.141  0.00  0.00     0.247 C 
ATOM     10  O9  MGS d         -10.945 -21.386  14.422  0.00  0.00    -0.271 OA
ATOM     11  H12 MGS d         -12.242 -22.170  17.108  0.00  0.00     0.163 HD
BRANCH   9  12
ATOM     12  C10 MGS d         -13.131 -21.691  14.241  0.00  0.00     0.212 C 
BRANCH  12  13
ATOM     13  O10 MGS d         -13.857 -20.494  14.214  0.00  0.00    -0.386 OA
ATOM     14  H23 MGS d         -14.605 -20.592  13.637  0.00  0.00     0.210 HD
ENDBRANCH  12  13
BRANCH  12  15
ATOM     15  C11 MGS d         -13.846 -23.038  14.439  0.00  0.00     0.067 C 
BRANCH  15  16
ATOM     16  C12 MGS d         -15.128 -23.014  13.698  0.00  0.00     0.167 C 
BRANCH  16  17
ATOM     17  O12 MGS d         -16.024 -22.906  14.807  0.00  0.00    -0.401 OA
ATOM     18  H19 MGS d         -16.919 -22.878  14.488  0.00  0.00     0.209 HD
ENDBRANCH  16  17
ENDBRANCH  15  16
ENDBRANCH  12  15
ENDBRANCH   9  12
ENDBRANCH   4   8
BRANCH   3  19
ATOM     19  O3  MGS d         -10.082 -19.301  16.518  0.00  0.00    -0.391 OA
ATOM     20  H10 MGS d          -9.587 -19.357  15.709  0.00  0.00     0.210 HD
ENDBRANCH   3  19
BRANCH   2  21
ATOM     21  O2  MGS d          -7.569 -20.270  16.369  0.00  0.00    -0.383 OA
ATOM     22  C8  MGS d          -6.185 -19.998  16.649  0.00  0.00     0.202 C 
ENDBRANCH   2  21
BRANCH   1  23
ATOM     23  O1  MGS d          -8.347 -21.812  19.604  0.00  0.00    -0.363 OA
ATOM     24  C7  MGS d          -8.254 -23.153  20.144  0.00  0.00     0.204 C 
ENDBRANCH   1  23
TORSDOF 9
