REMARK  8 active torsions:
REMARK  status: ('A' for Active; 'I' for Inactive)
REMARK    1  A    between atoms: C4_1  and  O4_11 
REMARK    2  A    between atoms: C7_4  and  C8_5 
REMARK    3  A    between atoms: C7_4  and  N1_7 
REMARK    4  A    between atoms: N7_15  and  C1'_16 
REMARK    5  A    between atoms: C4'_18  and  C5'_19 
REMARK    6  A    between atoms: C5'_19  and  O5'_20 
REMARK    7  A    between atoms: C3'_21  and  O3'_22 
REMARK    8  A    between atoms: C2'_23  and  O2'_24 
ROOT
ATOM      1  C8  MOL d          37.307  -0.369  23.945  0.00  0.00     0.093 A 
ATOM      2  C9  MOL d          37.592  -1.006  22.720  0.00  0.00     0.147 A 
ATOM      3  N5  MOL d          36.775  -1.377  24.743  0.00  0.00    -0.133 NA
ATOM      4  N6  MOL d          36.712  -2.516  24.070  0.00  0.00    -0.064 NA
ATOM      5  N7  MOL d          37.148  -2.337  22.880  0.00  0.00    -0.229 N 
ENDROOT
BRANCH   1   6
ATOM      6  C7  MOL d          37.616   1.103  24.339  0.00  0.00     0.190 C 
BRANCH   6   7
ATOM      7  N1  MOL d          36.791   2.276  24.157  0.00  0.00    -0.324 N 
ATOM      8  C6  MOL d          37.306   3.271  23.355  0.00  0.00     0.166 A 
ATOM      9  C5  MOL d          36.606   4.439  23.171  0.00  0.00    -0.015 A 
ATOM     10  C4  MOL d          35.404   4.591  23.835  0.00  0.00     0.147 A 
ATOM     11  C5A MOL d          37.110   5.517  22.294  0.00  0.00     0.050 C 
ATOM     12  N3  MOL d          34.946   3.609  24.631  0.00  0.00    -0.289 N 
ATOM     13  C2  MOL d          35.649   2.467  24.802  0.00  0.00     0.324 A 
ATOM     14  H6  MOL d          34.072   3.725  25.104  0.00  0.00     0.172 HD
ATOM     15  O2  MOL d          35.196   1.615  25.516  0.00  0.00    -0.247 OA
BRANCH  10  16
ATOM     16  O4  MOL d          34.681   5.749  23.672  0.00  0.00    -0.346 OA
ATOM     17  H7  MOL d          35.146   6.331  23.082  0.00  0.00     0.219 HD
ENDBRANCH  10  16
ENDBRANCH   6   7
ENDBRANCH   1   6
BRANCH   5  18
ATOM     18  C1' MOL d          37.292  -3.318  21.862  0.00  0.00     0.278 C 
ATOM     19  O4' MOL d          37.170  -4.637  22.337  0.00  0.00    -0.352 OA
ATOM     20  C4' MOL d          38.491  -5.143  22.721  0.00  0.00     0.179 C 
ATOM     21  C3' MOL d          39.453  -3.980  22.455  0.00  0.00     0.182 C 
ATOM     22  C2' MOL d          38.724  -3.165  21.391  0.00  0.00     0.200 C 
BRANCH  20  23
ATOM     23  C5' MOL d          38.792  -6.421  21.978  0.00  0.00     0.198 C 
BRANCH  23  24
ATOM     24  O5' MOL d          40.100  -6.391  21.418  0.00  0.00    -0.398 OA
ATOM     25  H15 MOL d          40.167  -5.663  20.811  0.00  0.00     0.209 HD
ENDBRANCH  23  24
ENDBRANCH  20  23
BRANCH  21  26
ATOM     26  O3' MOL d          39.771  -3.237  23.626  0.00  0.00    -0.390 OA
ATOM     27  H17 MOL d          38.975  -2.873  23.995  0.00  0.00     0.210 HD
ENDBRANCH  21  26
BRANCH  22  28
ATOM     28  O2' MOL d          38.843  -3.774  20.112  0.00  0.00    -0.388 OA
ATOM     29  H19 MOL d          38.465  -4.645  20.141  0.00  0.00     0.210 HD
ENDBRANCH  22  28
ENDBRANCH   5  18
TORSDOF 8
