REMARK  16 active torsions:
REMARK  status: ('A' for Active; 'I' for Inactive)
REMARK    1  A    between atoms: N_1  and  C1_2 
REMARK    2  A    between atoms: C1_2  and  C2_3 
REMARK    3  A    between atoms: C1_2  and  C6_7 
REMARK    4  A    between atoms: C2_3  and  C3_4 
REMARK    5  A    between atoms: C6_7  and  O1_8 
REMARK    6  A    between atoms: C6_7  and  C_9 
REMARK       I    between atoms: C_9  and  N_11 
REMARK    7  A    between atoms: N_11  and  CA_12 
REMARK    8  A    between atoms: CA_12  and  C_13 
REMARK    9  A    between atoms: CA_12  and  CB_15 
REMARK       I    between atoms: C_13  and  N_18 
REMARK   10  A    between atoms: N_18  and  CA_19 
REMARK   11  A    between atoms: CA_19  and  C_20 
REMARK   12  A    between atoms: CA_19  and  CB_22 
REMARK       I    between atoms: C_20  and  N_25 
REMARK   13  A    between atoms: N_25  and  CA_26 
REMARK   14  A    between atoms: CA_26  and  C_27 
REMARK   15  A    between atoms: CA_26  and  CB_29 
REMARK   16  A    between atoms: CB_29  and  CG_30 
ROOT
ATOM      1  CA  L2O d         -13.262  38.281  39.677  0.00  0.00     0.180 C 
ENDROOT
BRANCH   1   2
ATOM      2  N   L2O d         -12.753  37.679  40.867  0.00  0.00    -0.345 N 
ATOM      3  C   L2O d         -11.776  38.540  41.496  0.00  0.00     0.249 C 
ATOM      4  O   L2O d         -10.948  39.260  40.902  0.00  0.00    -0.271 OA
ATOM      5  H16 L2O d         -13.033  36.785  41.217  0.00  0.00     0.163 HD
BRANCH   3   6
ATOM      6  C6  L2O d         -11.359  37.989  42.820  0.00  0.00     0.240 C 
BRANCH   6   7
ATOM      7  C1  L2O d         -11.361  39.171  43.797  0.00  0.00     0.221 C 
BRANCH   7   8
ATOM      8  N   L2O d         -10.276  39.061  44.809  0.00  0.00    -0.072 N 
ATOM      9  H1  L2O d         -10.313  39.855  45.429  0.00  0.00     0.274 HD
ATOM     10  H2  L2O d          -9.383  39.040  44.343  0.00  0.00     0.274 HD
ATOM     11  H3  L2O d         -10.397  38.213  45.341  0.00  0.00     0.274 HD
ENDBRANCH   7   8
BRANCH   7  12
ATOM     12  C2  L2O d         -12.804  39.298  44.378  0.00  0.00     0.039 C 
BRANCH  12  13
ATOM     13  C3  L2O d         -13.054  40.703  44.948  0.00  0.00    -0.021 C 
ATOM     14  C4  L2O d         -13.672  41.606  43.881  0.00  0.00     0.009 C 
ATOM     15  C5  L2O d         -14.021  40.596  46.147  0.00  0.00     0.009 C 
ENDBRANCH  12  13
ENDBRANCH   7  12
ENDBRANCH   6   7
BRANCH   6  16
ATOM     16  O1  L2O d         -10.052  37.467  42.549  0.00  0.00    -0.384 OA
ATOM     17  H15 L2O d          -9.512  38.150  42.169  0.00  0.00     0.210 HD
ENDBRANCH   6  16
ENDBRANCH   3   6
ENDBRANCH   1   2
BRANCH   1  18
ATOM     18  C   L2O d         -14.474  39.057  40.127  0.00  0.00     0.241 C 
ATOM     19  O   L2O d         -15.186  38.639  41.020  0.00  0.00    -0.271 OA
ATOM     20  N   L2O d         -14.657  40.227  39.554  0.00  0.00    -0.346 N 
ATOM     21  H25 L2O d         -14.068  40.488  38.789  0.00  0.00     0.163 HD
BRANCH  20  22
ATOM     22  CA  L2O d         -15.673  41.141  39.989  0.00  0.00     0.180 C 
BRANCH  22  23
ATOM     23  C   L2O d         -17.055  40.746  39.507  0.00  0.00     0.241 C 
ATOM     24  O   L2O d         -18.014  41.280  39.935  0.00  0.00    -0.271 OA
ATOM     25  N   L2O d         -17.110  39.772  38.643  0.00  0.00    -0.344 N 
ATOM     26  H34 L2O d         -16.370  39.100  38.672  0.00  0.00     0.163 HD
BRANCH  25  27
ATOM     27  CA  L2O d         -18.130  39.572  37.655  0.00  0.00     0.195 C 
BRANCH  27  28
ATOM     28  C   L2O d         -18.879  40.706  37.056  0.00  0.00     0.197 C 
ATOM     29  O   L2O d         -18.717  40.739  35.798  0.00  0.00    -0.646 OA
ATOM     30  OXT L2O d         -19.574  41.473  37.772  0.00  0.00    -0.646 OA
ENDBRANCH  27  28
BRANCH  27  31
ATOM     31  CB  L2O d         -19.056  38.456  37.943  0.00  0.00     0.149 C 
BRANCH  31  32
ATOM     32  CG  L2O d         -18.793  37.347  37.064  0.00  0.00     0.175 C 
ATOM     33  OD1 L2O d         -17.630  36.935  37.080  0.00  0.00    -0.648 OA
ATOM     34  OD2 L2O d         -19.682  36.896  36.330  0.00  0.00    -0.648 OA
ENDBRANCH  31  32
ENDBRANCH  27  31
ENDBRANCH  25  27
ENDBRANCH  22  23
BRANCH  22  35
ATOM     35  CB  L2O d         -15.324  42.548  39.483  0.00  0.00     0.009 C 
ATOM     36  CG1 L2O d         -16.455  43.527  39.698  0.00  0.00     0.012 C 
ATOM     37  CG2 L2O d         -14.057  43.046  40.134  0.00  0.00     0.012 C 
ENDBRANCH  22  35
ENDBRANCH  20  22
ENDBRANCH   1  18
BRANCH   1  38
ATOM     38  CB  L2O d         -13.579  37.210  38.646  0.00  0.00     0.009 C 
ATOM     39  CG1 L2O d         -14.215  37.817  37.441  0.00  0.00     0.012 C 
ATOM     40  CG2 L2O d         -12.298  36.542  38.213  0.00  0.00     0.012 C 
ENDBRANCH   1  38
TORSDOF 16
