REMARK  14 active torsions:
REMARK  status: ('A' for Active; 'I' for Inactive)
REMARK    1  A    between atoms: C4_9  and  O4_2 
REMARK    2  A    between atoms: C5_10  and  O5_3 
REMARK    3  A    between atoms: N2_4  and  C2_7 
REMARK    4  A    between atoms: N7_5  and  C7_12 
REMARK    5  A    between atoms: C2_7  and  C20_27 
REMARK    6  A    between atoms: C3_8  and  C31_13 
REMARK    7  A    between atoms: C6_11  and  C61_20 
REMARK    8  A    between atoms: C7_12  and  C70_41 
REMARK    9  A    between atoms: C31_13  and  C32_14 
REMARK   10  A    between atoms: C61_20  and  C62_21 
REMARK   11  A    between atoms: C22_29  and  C26_33 
REMARK       I    between atoms: C26_33  and  N26_35 
REMARK   12  A    between atoms: N26_35  and  C27_37 
REMARK   13  A    between atoms: C72_43  and  C76_47 
REMARK       I    between atoms: C76_47  and  N76_49 
REMARK   14  A    between atoms: N76_49  and  C77_51 
ROOT
ATOM      1  O1  XV6 d          -8.243  14.227  27.865  0.00  0.00    -0.247 OA
ATOM      2  N2  XV6 d          -9.653  15.574  28.900  0.00  0.00    -0.322 N 
ATOM      3  N7  XV6 d          -8.686  16.093  26.792  0.00  0.00    -0.322 N 
ATOM      4  C1  XV6 d          -8.859  15.282  27.852  0.00  0.00     0.322 C 
ATOM      5  C3  XV6 d         -10.812  16.472  28.862  0.00  0.00     0.124 C 
ATOM      6  C4  XV6 d         -10.549  17.940  28.543  0.00  0.00     0.172 C 
ATOM      7  C5  XV6 d         -10.194  18.136  27.084  0.00  0.00     0.172 C 
ATOM      8  C6  XV6 d          -8.813  17.577  26.823  0.00  0.00     0.124 C 
ENDROOT
BRANCH   2   9
ATOM      9  C2  XV6 d          -9.421  14.815  30.135  0.00  0.00     0.166 C 
BRANCH   9  10
ATOM     10  C20 XV6 d          -9.328  15.597  31.419  0.00  0.00    -0.039 A 
ATOM     11  C25 XV6 d          -8.561  16.781  31.519  0.00  0.00     0.009 A 
ATOM     12  C24 XV6 d          -8.451  17.457  32.747  0.00  0.00     0.002 A 
ATOM     13  C23 XV6 d          -9.124  16.969  33.879  0.00  0.00     0.017 A 
ATOM     14  C22 XV6 d          -9.898  15.797  33.778  0.00  0.00     0.033 A 
ATOM     15  C21 XV6 d          -9.995  15.108  32.550  0.00  0.00     0.026 A 
BRANCH  14  16
ATOM     16  C26 XV6 d         -10.652  15.313  34.970  0.00  0.00     0.257 C 
ATOM     17  N26 XV6 d         -10.916  14.001  34.901  0.00  0.00    -0.301 N 
ATOM     18  H29 XV6 d         -10.685  13.525  34.053  0.00  0.00     0.171 HD
ATOM     19  O26 XV6 d         -10.969  16.014  35.920  0.00  0.00    -0.267 OA
BRANCH  17  20
ATOM     20  C27 XV6 d         -11.519  13.215  35.980  0.00  0.00     0.173 A 
ATOM     21  N27 XV6 d         -11.546  11.870  36.035  0.00  0.00    -0.236 NA
ATOM     22  C28 XV6 d         -12.245  11.403  37.121  0.00  0.00     0.126 A 
ATOM     23  C29 XV6 d         -12.790  12.393  37.965  0.00  0.00     0.072 A 
ATOM     24  S29 XV6 d         -12.350  13.874  37.285  0.00  0.00    -0.062 SA
ENDBRANCH  17  20
ENDBRANCH  14  16
ENDBRANCH   9  10
ENDBRANCH   2   9
BRANCH   5  25
ATOM     25  C31 XV6 d         -11.911  15.732  28.064  0.00  0.00     0.066 C 
BRANCH  25  26
ATOM     26  C32 XV6 d         -12.443  14.530  28.838  0.00  0.00    -0.056 A 
ATOM     27  C37 XV6 d         -13.280  14.733  29.969  0.00  0.00     0.007 A 
ATOM     28  C36 XV6 d         -13.730  13.624  30.714  0.00  0.00     0.001 A 
ATOM     29  C35 XV6 d         -13.341  12.317  30.334  0.00  0.00     0.000 A 
ATOM     30  C34 XV6 d         -12.516  12.109  29.213  0.00  0.00     0.001 A 
ATOM     31  C33 XV6 d         -12.072  13.214  28.461  0.00  0.00     0.007 A 
ENDBRANCH  25  26
ENDBRANCH   5  25
BRANCH   3  32
ATOM     32  C7  XV6 d          -8.103  15.468  25.598  0.00  0.00     0.166 C 
BRANCH  32  33
ATOM     33  C70 XV6 d          -8.789  15.754  24.302  0.00  0.00    -0.039 A 
ATOM     34  C75 XV6 d         -10.200  15.714  24.162  0.00  0.00     0.009 A 
ATOM     35  C74 XV6 d         -10.815  16.059  22.941  0.00  0.00     0.002 A 
ATOM     36  C73 XV6 d         -10.014  16.437  21.847  0.00  0.00     0.017 A 
ATOM     37  C72 XV6 d          -8.602  16.455  21.990  0.00  0.00     0.033 A 
ATOM     38  C71 XV6 d          -7.995  16.106  23.216  0.00  0.00     0.026 A 
BRANCH  37  39
ATOM     39  C76 XV6 d          -7.744  16.852  20.840  0.00  0.00     0.257 C 
ATOM     40  N76 XV6 d          -6.518  16.318  20.849  0.00  0.00    -0.301 N 
ATOM     41  H36 XV6 d          -6.252  15.713  21.599  0.00  0.00     0.171 HD
ATOM     42  O76 XV6 d          -8.112  17.614  19.966  0.00  0.00    -0.267 OA
BRANCH  40  43
ATOM     43  C77 XV6 d          -5.561  16.602  19.785  0.00  0.00     0.173 A 
ATOM     44  N77 XV6 d          -4.333  16.073  19.691  0.00  0.00    -0.236 NA
ATOM     45  C78 XV6 d          -3.695  16.454  18.539  0.00  0.00     0.126 A 
ATOM     46  C79 XV6 d          -4.420  17.314  17.689  0.00  0.00     0.072 A 
ATOM     47  S79 XV6 d          -5.900  17.578  18.448  0.00  0.00    -0.062 SA
ENDBRANCH  40  43
ENDBRANCH  37  39
ENDBRANCH  32  33
ENDBRANCH   3  32
BRANCH   6  48
ATOM     48  O4  XV6 d         -11.697  18.691  28.877  0.00  0.00    -0.391 OA
ATOM     49  H1  XV6 d         -11.528  19.613  28.721  0.00  0.00     0.210 HD
ENDBRANCH   6  48
BRANCH   8  50
ATOM     50  C61 XV6 d          -7.691  18.232  27.694  0.00  0.00     0.066 C 
BRANCH  50  51
ATOM     51  C62 XV6 d          -6.256  17.980  27.239  0.00  0.00    -0.056 A 
ATOM     52  C67 XV6 d          -5.740  18.658  26.111  0.00  0.00     0.007 A 
ATOM     53  C66 XV6 d          -4.435  18.370  25.667  0.00  0.00     0.001 A 
ATOM     54  C65 XV6 d          -3.646  17.429  26.349  0.00  0.00     0.000 A 
ATOM     55  C64 XV6 d          -4.151  16.763  27.477  0.00  0.00     0.001 A 
ATOM     56  C63 XV6 d          -5.458  17.040  27.917  0.00  0.00     0.007 A 
ENDBRANCH  50  51
ENDBRANCH   8  50
BRANCH   7  57
ATOM     57  O5  XV6 d         -10.104  19.492  26.750  0.00  0.00    -0.391 OA
ATOM     58  H2  XV6 d         -10.946  19.909  26.892  0.00  0.00     0.210 HD
ENDBRANCH   7  57
TORSDOF 14
