REMARK  0 active torsions:
REMARK  status: ('A' for Active; 'I' for Inactive)
ROOT
ATOM      1  C1  A25 d          -0.722   8.062 -18.409  0.00  0.00     0.041 A 
ATOM      2  C2  A25 d          -2.089   8.499 -18.299  0.00  0.00     0.095 A 
ATOM      3  C3  A25 d          -2.522   9.635 -19.055  0.00  0.00     0.071 A 
ATOM      4  C4  A25 d          -1.584  10.310 -19.900  0.00  0.00     0.056 A 
ATOM      5  C5  A25 d          -0.253   9.853 -19.982  0.00  0.00     0.036 A 
ATOM      6  C6  A25 d           0.191   8.738 -19.249  0.00  0.00     0.026 A 
ATOM      7 CL7  A25 d           0.858  10.687 -21.010  0.00  0.00    -0.084 Cl
ATOM      8  O8  A25 d          -3.067   7.888 -17.489  0.00  0.00    -0.349 OA
ATOM      9  C9  A25 d          -2.623   7.116 -16.381  0.00  0.00     0.175 C 
ATOM     10  N10 A25 d          -3.857  10.063 -18.946  0.00  0.00    -0.306 N 
ATOM     11  C11 A25 d          -4.491  11.021 -19.727  0.00  0.00     0.326 C 
ATOM     12  N12 A25 d          -5.798  11.277 -19.434  0.00  0.00    -0.292 N 
ATOM     13  O13 A25 d          -3.938  11.628 -20.638  0.00  0.00    -0.247 OA
ATOM     14  C14 A25 d          -6.640  10.753 -18.477  0.00  0.00     0.151 A 
ATOM     15  N15 A25 d          -6.313   9.512 -17.996  0.00  0.00    -0.204 NA
ATOM     16  C16 A25 d          -7.122   8.944 -17.044  0.00  0.00     0.184 A 
ATOM     17  C17 A25 d          -8.279   9.639 -16.568  0.00  0.00     0.174 A 
ATOM     18  N18 A25 d          -8.609  10.873 -17.040  0.00  0.00    -0.265 NA
ATOM     19  C19 A25 d          -7.798  11.426 -17.988  0.00  0.00     0.167 A 
ATOM     20  O20 A25 d          -6.712   7.672 -16.614  0.00  0.00    -0.333 OA
ATOM     21  C21 A25 d          -6.732   7.393 -15.207  0.00  0.00     0.177 C 
ATOM     22  C22 A25 d          -5.423   7.865 -14.549  0.00  0.00     0.027 C 
ATOM     23  C23 A25 d          -3.750   6.204 -15.910  0.00  0.00     0.027 C 
ATOM     24  C24 A25 d          -4.377   6.785 -14.637  0.00  0.00     0.004 C 
ATOM     25  H6  A25 d          -4.408   9.633 -18.231  0.00  0.00     0.171 HD
ATOM     26  H7  A25 d          -6.221  11.969 -20.018  0.00  0.00     0.172 HD
ENDROOT
TORSDOF 0
