REMARK  14 active torsions:
REMARK  status: ('A' for Active; 'I' for Inactive)
REMARK    1  A    between atoms: N1_1  and  C31_39 
REMARK    2  A    between atoms: C2_3  and  C3_4 
REMARK       I    between atoms: C3_4  and  N2_6 
REMARK    3  A    between atoms: N2_6  and  C4_7 
REMARK    4  A    between atoms: N3_11  and  C10_14 
REMARK    5  A    between atoms: C10_14  and  C11_15 
REMARK    6  A    between atoms: C11_15  and  O2_16 
REMARK    7  A    between atoms: C11_15  and  C12_17 
REMARK    8  A    between atoms: C12_17  and  C13_18 
REMARK    9  A    between atoms: C13_18  and  C14_19 
REMARK   10  A    between atoms: C13_18  and  C21_26 
REMARK   11  A    between atoms: C14_19  and  C15_20 
REMARK       I    between atoms: C21_26  and  N4_28 
REMARK   12  A    between atoms: N4_28  and  C22_29 
REMARK   13  A    between atoms: C23_30  and  O4_31 
REMARK   14  A    between atoms: C31_39  and  C32_40 
ROOT
ATOM      1  C11 MK1 d          19.960  -0.198  10.523  0.00  0.00     0.145 C 
ENDROOT
BRANCH   1   2
ATOM      2  C10 MK1 d          20.070   0.789  11.670  0.00  0.00     0.267 C 
BRANCH   2   3
ATOM      3  N3  MK1 d          19.007   1.822  11.658  0.00  0.00    -0.053 N 
ATOM      4  C2  MK1 d          18.596   2.235  13.034  0.00  0.00     0.305 C 
ATOM      5  C1  MK1 d          17.532   3.337  12.909  0.00  0.00     0.278 C 
ATOM      6  N1  MK1 d          17.923   4.536  12.115  0.00  0.00    -0.063 N 
ATOM      7  C9  MK1 d          18.267   4.075  10.729  0.00  0.00     0.263 C 
ATOM      8  H1  MK1 d          18.765   4.912  12.523  0.00  0.00     0.280 HD
ATOM      9  C8  MK1 d          19.348   2.958  10.745  0.00  0.00     0.263 C 
ATOM     10  H15 MK1 d          18.195   1.382  11.254  0.00  0.00     0.281 HD
BRANCH   4  11
ATOM     11  C3  MK1 d          17.994   1.105  13.870  0.00  0.00     0.251 C 
ATOM     12  O1  MK1 d          17.277   0.243  13.326  0.00  0.00    -0.271 OA
ATOM     13  N2  MK1 d          18.290   1.099  15.187  0.00  0.00    -0.351 N 
ATOM     14  H5  MK1 d          18.871   1.842  15.520  0.00  0.00     0.163 HD
BRANCH  13  15
ATOM     15  C4  MK1 d          17.819   0.052  16.242  0.00  0.00     0.022 C 
ATOM     16  C5  MK1 d          18.372   0.401  17.657  0.00  0.00     0.037 C 
ATOM     17  C6  MK1 d          18.461  -1.348  16.067  0.00  0.00     0.037 C 
ATOM     18  C7  MK1 d          16.195  -0.029  16.290  0.00  0.00     0.037 C 
ENDBRANCH  13  15
ENDBRANCH   4  11
BRANCH   6  19
ATOM     19  C31 MK1 d          16.904   5.626  12.176  0.00  0.00     0.275 C 
BRANCH  19  20
ATOM     20  C32 MK1 d          16.436   6.282  13.543  0.00  0.00    -0.015 A 
ATOM     21  C33 MK1 d          17.275   7.107  14.303  0.00  0.00     0.125 A 
ATOM     22  N5  MK1 d          16.858   7.729  15.587  0.00  0.00    -0.273 NA
ATOM     23  C34 MK1 d          15.518   7.420  15.995  0.00  0.00     0.116 A 
ATOM     24  C35 MK1 d          14.661   6.601  15.255  0.00  0.00     0.020 A 
ATOM     25  C36 MK1 d          15.122   6.033  14.032  0.00  0.00     0.012 A 
ENDBRANCH  19  20
ENDBRANCH   6  19
ENDBRANCH   2   3
ENDBRANCH   1   2
BRANCH   1  26
ATOM     26  O2  MK1 d          21.271  -0.568  10.081  0.00  0.00    -0.394 OA
ATOM     27  H23 MK1 d          21.199  -1.186   9.363  0.00  0.00     0.210 HD
ENDBRANCH   1  26
BRANCH   1  28
ATOM     28  C12 MK1 d          19.251  -1.527  10.842  0.00  0.00     0.047 C 
BRANCH  28  29
ATOM     29  C13 MK1 d          19.136  -2.523   9.692  0.00  0.00     0.084 C 
BRANCH  29  30
ATOM     30  C14 MK1 d          18.490  -3.773  10.326  0.00  0.00     0.052 C 
BRANCH  30  31
ATOM     31  C15 MK1 d          18.325  -4.913   9.360  0.00  0.00    -0.057 A 
ATOM     32  C16 MK1 d          19.443  -5.565   8.756  0.00  0.00     0.007 A 
ATOM     33  C17 MK1 d          19.226  -6.636   7.842  0.00  0.00     0.001 A 
ATOM     34  C18 MK1 d          17.896  -7.052   7.533  0.00  0.00     0.000 A 
ATOM     35  C19 MK1 d          16.791  -6.403   8.134  0.00  0.00     0.001 A 
ATOM     36  C20 MK1 d          16.998  -5.338   9.044  0.00  0.00     0.007 A 
ENDBRANCH  30  31
ENDBRANCH  29  30
BRANCH  29  37
ATOM     37  C21 MK1 d          18.282  -1.963   8.523  0.00  0.00     0.222 C 
ATOM     38  O3  MK1 d          17.440  -1.084   8.681  0.00  0.00    -0.273 OA
ATOM     39  N4  MK1 d          18.525  -2.517   7.341  0.00  0.00    -0.350 N 
ATOM     40  H34 MK1 d          19.219  -3.237   7.310  0.00  0.00     0.163 HD
BRANCH  39  41
ATOM     41  C22 MK1 d          17.866  -2.168   6.073  0.00  0.00     0.147 C 
ATOM     42  C23 MK1 d          18.383  -3.089   4.937  0.00  0.00     0.149 C 
ATOM     43  C24 MK1 d          18.033  -2.321   3.680  0.00  0.00     0.073 C 
ATOM     44  C25 MK1 d          18.274  -0.861   3.918  0.00  0.00    -0.047 A 
ATOM     45  C26 MK1 d          18.540   0.251   3.105  0.00  0.00     0.008 A 
ATOM     46  C30 MK1 d          18.164  -0.763   5.484  0.00  0.00    -0.027 A 
ATOM     47  C27 MK1 d          18.716   1.509   3.730  0.00  0.00     0.001 A 
ATOM     48  C28 MK1 d          18.629   1.659   5.150  0.00  0.00     0.001 A 
ATOM     49  C29 MK1 d          18.359   0.546   6.002  0.00  0.00     0.010 A 
BRANCH  42  50
ATOM     50  O4  MK1 d          19.747  -3.454   5.154  0.00  0.00    -0.393 OA
ATOM     51  H37 MK1 d          20.040  -4.017   4.447  0.00  0.00     0.210 HD
ENDBRANCH  42  50
ENDBRANCH  39  41
ENDBRANCH  29  37
ENDBRANCH  28  29
ENDBRANCH   1  28
TORSDOF 14
