REMARK  22 active torsions:
REMARK  status: ('A' for Active; 'I' for Inactive)
REMARK    1  A    between atoms: CA_4  and  C_1 
REMARK       I    between atoms: C_1  and  NBJ_37 
REMARK    2  A    between atoms: N_2  and  CA_4 
REMARK       I    between atoms: CBR_43  and  N_2 
REMARK    3  A    between atoms: CA_4  and  CB_5 
REMARK    4  A    between atoms: CCC_52  and  OAM_16 
REMARK    5  A    between atoms: CBB_30  and  CAN_17 
REMARK    6  A    between atoms: CBD_32  and  CAO_18 
REMARK    7  A    between atoms: CAS_22  and  CAQ_20 
REMARK    8  A    between atoms: NCA_50  and  CAS_22 
REMARK    9  A    between atoms: CBA_29  and  CAY_27 
REMARK   10  A    between atoms: NBJ_37  and  CBB_30 
REMARK   11  A    between atoms: CBE_33  and  CBC_31 
REMARK   12  A    between atoms: CBC_31  and  CBF_34 
REMARK   13  A    between atoms: NCA_50  and  CBE_33 
REMARK   14  A    between atoms: CBF_34  and  CCC_52 
REMARK   15  A    between atoms: CBH_36  and  CBU_46 
REMARK   16  A    between atoms: CCC_52  and  CBH_36 
REMARK       I    between atoms: NBK_38  and  CBO_41 
REMARK   17  A    between atoms: CBZ_49  and  NBK_38 
REMARK       I    between atoms: CBQ_42  and  NBM_39 
REMARK   18  A    between atoms: NBM_39  and  NCA_50 
REMARK   19  A    between atoms: CBO_41  and  OBN_40 
REMARK   20  A    between atoms: CBZ_49  and  CBQ_42 
REMARK   21  A    between atoms: CCC_52  and  CBR_43 
REMARK   22  A    between atoms: CBZ_49  and  CCB_51 
ROOT
ATOM      1  CBC 378 d          13.663  24.077   6.297  0.00  0.00     0.033 C 
ENDROOT
BRANCH   1   2
ATOM      2  CBE 378 d          15.085  23.528   6.385  0.00  0.00     0.263 C 
BRANCH   2   3
ATOM      3  NCA 378 d          15.074  22.169   6.946  0.00  0.00     0.015 N 
ATOM      4  H   378 d          14.132  21.810   6.957  0.00  0.00     0.309 HD
BRANCH   3   5
ATOM      5  CAS 378 d          15.542  22.232   8.192  0.00  0.00     0.301 C 
BRANCH   5   6
ATOM      6  CAQ 378 d          15.948  21.031   8.765  0.00  0.00    -0.030 A 
ATOM      7  CAP 378 d          17.289  20.664   8.745  0.00  0.00     0.010 A 
ATOM      8  CAR 378 d          17.697  19.483   9.356  0.00  0.00     0.013 A 
ATOM      9  CBA 378 d          16.772  18.680  10.015  0.00  0.00    -0.019 A 
ATOM     10  CBW 378 d          15.432  19.051  10.037  0.00  0.00     0.013 A 
ATOM     11  CBV 378 d          15.026  20.243   9.445  0.00  0.00     0.010 A 
BRANCH   9  12
ATOM     12  CAY 378 d          17.167  17.534  10.572  0.00  0.00     0.015 C 
ATOM     13  SAI 378 d          16.160  16.244  10.828  0.00  0.00    -0.101 SA
ATOM     14  CBG 378 d          17.387  15.323  11.788  0.00  0.00     0.050 C 
ATOM     15  CBT 378 d          18.475  16.206  11.880  0.00  0.00     0.008 C 
ATOM     16  CAZ 378 d          18.280  17.419  11.315  0.00  0.00     0.020 C 
ENDBRANCH   9  12
ENDBRANCH   5   6
ENDBRANCH   3   5
BRANCH   3  17
ATOM     17  NBM 378 d          15.751  21.469   6.281  0.00  0.00    -0.185 N 
ATOM     18  CBQ 378 d          15.144  20.529   5.529  0.00  0.00     0.265 C 
ATOM     19  OAK 378 d          13.940  20.275   5.578  0.00  0.00    -0.269 OA
ATOM     20  H   378 d          16.746  21.570   6.275  0.00  0.00     0.197 HD
BRANCH  18  21
ATOM     21  CBZ 378 d          16.103  19.683   4.672  0.00  0.00     0.188 C 
BRANCH  21  22
ATOM     22  NBK 378 d          16.733  18.645   5.502  0.00  0.00    -0.323 N 
ATOM     23  CBO 378 d          18.065  18.527   5.538  0.00  0.00     0.360 C 
ATOM     24  OAI 378 d          18.759  19.355   4.948  0.00  0.00    -0.239 OA
ATOM     25  H   378 d          16.163  18.025   6.042  0.00  0.00     0.165 HD
BRANCH  23  26
ATOM     26  OBN 378 d          18.642  17.482   6.200  0.00  0.00    -0.309 OA
ATOM     27  CAC 378 d          19.483  17.960   7.256  0.00  0.00     0.215 C 
ENDBRANCH  23  26
ENDBRANCH  21  22
BRANCH  21  28
ATOM     28  CCB 378 d          15.383  19.010   3.495  0.00  0.00    -0.022 C 
ATOM     29  CAF 378 d          14.432  17.929   4.015  0.00  0.00     0.017 C 
ATOM     30  CAG 378 d          16.429  18.361   2.579  0.00  0.00     0.017 C 
ATOM     31  CAH 378 d          14.588  20.053   2.704  0.00  0.00     0.017 C 
ENDBRANCH  21  28
ENDBRANCH  18  21
ENDBRANCH   3  17
ENDBRANCH   2   3
ENDBRANCH   1   2
BRANCH   1  32
ATOM     32  CBF 378 d          12.970  23.443   5.092  0.00  0.00     0.050 C 
BRANCH  32  33
ATOM     33  CCC 378 d          11.915  24.400   4.538  0.00  0.00     0.142 C 
BRANCH  33  34
ATOM     34  OAM 378 d          12.470  25.716   4.478  0.00  0.00    -0.380 OA
ATOM     35  H   378 d          11.820  26.317   4.134  0.00  0.00     0.211 HD
ENDBRANCH  33  34
BRANCH  33  36
ATOM     36  CBH 378 d          11.544  23.939   3.119  0.00  0.00     0.086 C 
BRANCH  36  37
ATOM     37  CBU 378 d          10.181  24.089   2.898  0.00  0.00    -0.055 A 
ATOM     38  CAV 378 d           9.331  23.003   3.060  0.00  0.00     0.008 A 
ATOM     39  CAT 378 d           7.966  23.156   2.845  0.00  0.00     0.008 A 
ATOM     40  CBS 378 d           7.460  24.359   2.363  0.00  0.00    -0.055 A 
ATOM     41  CAU 378 d           8.319  25.436   2.168  0.00  0.00     0.008 A 
ATOM     42  CBD 378 d           6.082  24.494   2.186  0.00  0.00     0.064 C 
ATOM     43  CAW 378 d           9.684  25.285   2.392  0.00  0.00     0.008 A 
BRANCH  42  44
ATOM     44  CAO 378 d           5.760  25.714   1.321  0.00  0.00    -0.032 C 
ATOM     45  CAB 378 d           4.564  25.774   0.722  0.00  0.00     0.007 C 
ENDBRANCH  42  44
ENDBRANCH  36  37
ENDBRANCH  33  36
BRANCH  33  46
ATOM     46  CBR 378 d          10.681  24.397   5.459  0.00  0.00     0.253 C 
ATOM     47  N   378 d          10.167  25.604   5.750  0.00  0.00    -0.345 N 
ATOM     48  H   378 d          10.636  26.430   5.438  0.00  0.00     0.163 HD
ATOM     49  OAL 378 d          10.290  23.355   5.985  0.00  0.00    -0.270 OA
BRANCH  47  50
ATOM     50  CA  378 d           8.917  25.721   6.526  0.00  0.00     0.180 C 
BRANCH  50  51
ATOM     51  C   378 d           7.944  26.682   5.823  0.00  0.00     0.241 C 
ATOM     52  O   378 d           8.312  27.776   5.394  0.00  0.00    -0.271 OA
ATOM     53  NBJ 378 d           6.739  26.158   5.563  0.00  0.00    -0.356 N 
ATOM     54  H   378 d           6.568  25.198   5.786  0.00  0.00     0.162 HD
BRANCH  53  55
ATOM     55  CBB 378 d           5.661  26.953   4.959  0.00  0.00     0.149 C 
BRANCH  55  56
ATOM     56  CAN 378 d           5.055  27.867   6.025  0.00  0.00    -0.018 C 
ATOM     57  CAA 378 d           5.023  27.449   7.300  0.00  0.00     0.008 C 
ENDBRANCH  55  56
ENDBRANCH  53  55
ENDBRANCH  50  51
BRANCH  50  58
ATOM     58  CB  378 d           9.199  26.187   7.967  0.00  0.00     0.009 C 
ATOM     59  CG1 378 d           9.092  27.715   8.080  0.00  0.00     0.012 C 
ATOM     60  CG2 378 d          10.597  25.734   8.401  0.00  0.00     0.012 C 
ENDBRANCH  50  58
ENDBRANCH  47  50
ENDBRANCH  33  46
ENDBRANCH  32  33
ENDBRANCH   1  32
TORSDOF 22
