REMARK  14 active torsions:
REMARK  status: ('A' for Active; 'I' for Inactive)
REMARK    1  A    between atoms: C21_2  and  O23_3 
REMARK       I    between atoms: C21_2  and  N20_12 
REMARK    2  A    between atoms: O23_3  and  C24_4 
REMARK    3  A    between atoms: N20_12  and  C19_13 
REMARK    4  A    between atoms: C19_13  and  C32_14 
REMARK    5  A    between atoms: C19_13  and  C17_21 
REMARK    6  A    between atoms: C32_14  and  C38_15 
REMARK    7  A    between atoms: C17_21  and  O18_22 
REMARK    8  A    between atoms: C17_21  and  C16_23 
REMARK    9  A    between atoms: C16_23  and  N11_24 
REMARK   10  A    between atoms: N11_24  and  C12_25 
REMARK   11  A    between atoms: N11_24  and  S8_29 
REMARK   12  A    between atoms: C12_25  and  C13_26 
REMARK   13  A    between atoms: S8_29  and  C5_32 
REMARK   14  A    between atoms: C2_37  and  C1_38 
REMARK       I    between atoms: C1_38  and  N1_40 
ROOT
ATOM      1  C17 G08 d         -20.115   0.216  -0.109  0.00  0.00     0.155 C 
ENDROOT
BRANCH   1   2
ATOM      2  C19 G08 d         -19.148   1.243  -0.708  0.00  0.00     0.120 C 
BRANCH   2   3
ATOM      3  N20 G08 d         -19.372   1.232  -2.137  0.00  0.00    -0.329 N 
ATOM      4  C21 G08 d         -18.299   1.055  -2.994  0.00  0.00     0.361 C 
ATOM      5  O22 G08 d         -17.224   0.575  -2.640  0.00  0.00    -0.238 OA
ATOM      6  H10 G08 d         -20.295   1.351  -2.503  0.00  0.00     0.165 HD
BRANCH   4   7
ATOM      7  O23 G08 d         -18.602   1.079  -4.350  0.00  0.00    -0.296 OA
BRANCH   7   8
ATOM      8  C24 G08 d         -17.644   0.974  -5.327  0.00  0.00     0.166 C 
ATOM      9  C31 G08 d         -17.379   2.308  -5.913  0.00  0.00     0.075 C 
ATOM     10  C30 G08 d         -17.408   3.563  -5.109  0.00  0.00     0.038 C 
ATOM     11  C27 G08 d         -18.474   2.459  -6.853  0.00  0.00     0.266 C 
ATOM     12  C29 G08 d         -18.956   3.842  -5.114  0.00  0.00     0.171 C 
ATOM     13  O28 G08 d         -19.276   3.536  -6.477  0.00  0.00    -0.361 OA
ATOM     14  O26 G08 d         -19.089   1.212  -6.997  0.00  0.00    -0.358 OA
ATOM     15  C25 G08 d         -18.223   0.217  -6.488  0.00  0.00     0.204 C 
ENDBRANCH   7   8
ENDBRANCH   4   7
ENDBRANCH   2   3
BRANCH   2  16
ATOM     16  C32 G08 d         -19.446   2.633  -0.155  0.00  0.00     0.066 C 
BRANCH  16  17
ATOM     17  C38 G08 d         -18.473   3.629  -0.785  0.00  0.00    -0.056 A 
ATOM     18  C37 G08 d         -18.905   4.621  -1.699  0.00  0.00     0.007 A 
ATOM     19  C36 G08 d         -17.999   5.512  -2.262  0.00  0.00     0.001 A 
ATOM     20  C35 G08 d         -16.661   5.414  -1.937  0.00  0.00     0.000 A 
ATOM     21  C34 G08 d         -16.208   4.459  -1.034  0.00  0.00     0.001 A 
ATOM     22  C33 G08 d         -17.118   3.564  -0.456  0.00  0.00     0.007 A 
ENDBRANCH  16  17
ENDBRANCH   2  16
ENDBRANCH   1   2
BRANCH   1  23
ATOM     23  O18 G08 d         -21.394   0.642  -0.413  0.00  0.00    -0.392 OA
ATOM     24  H20 G08 d         -22.024   0.027  -0.056  0.00  0.00     0.210 HD
ENDBRANCH   1  23
BRANCH   1  25
ATOM     25  C16 G08 d         -19.895  -0.169   1.360  0.00  0.00     0.141 C 
BRANCH  25  26
ATOM     26  N11 G08 d         -18.571  -0.842   1.439  0.00  0.00    -0.204 NA
BRANCH  26  27
ATOM     27  C12 G08 d         -18.581  -2.298   1.725  0.00  0.00     0.111 C 
BRANCH  27  28
ATOM     28  C13 G08 d         -18.896  -3.090   0.445  0.00  0.00    -0.009 C 
ATOM     29  C15 G08 d         -19.236  -4.513   0.877  0.00  0.00     0.011 C 
ATOM     30  C14 G08 d         -17.662  -3.183  -0.396  0.00  0.00     0.011 C 
ENDBRANCH  27  28
ENDBRANCH  26  27
BRANCH  26  31
ATOM     31  S8  G08 d         -17.406  -0.059   2.370  0.00  0.00     0.243 S 
ATOM     32  O9  G08 d         -17.530   1.379   2.200  0.00  0.00    -0.206 OA
ATOM     33  O10 G08 d         -16.132  -0.519   1.903  0.00  0.00    -0.206 OA
BRANCH  31  34
ATOM     34  C5  G08 d         -17.590  -0.448   4.107  0.00  0.00     0.074 A 
ATOM     35  C4  G08 d         -16.765  -1.460   4.585  0.00  0.00     0.026 A 
ATOM     36  C3  G08 d         -16.846  -1.872   5.909  0.00  0.00     0.018 A 
ATOM     37  C2  G08 d         -17.804  -1.244   6.688  0.00  0.00     0.031 A 
ATOM     38  C7  G08 d         -18.658  -0.224   6.175  0.00  0.00     0.018 A 
ATOM     39  C6  G08 d         -18.597   0.203   4.824  0.00  0.00     0.026 A 
BRANCH  37  40
ATOM     40  C1  G08 d         -17.874  -1.687   8.128  0.00  0.00     0.249 C 
ATOM     41  O1  G08 d         -18.880  -1.464   8.719  0.00  0.00    -0.268 OA
ATOM     42  N1  G08 d         -16.806  -2.363   8.809  0.00  0.00    -0.366 N 
ATOM     43  H36 G08 d         -16.914  -2.631   9.766  0.00  0.00     0.159 HD
ATOM     44  H37 G08 d         -15.954  -2.565   8.326  0.00  0.00     0.159 HD
ENDBRANCH  37  40
ENDBRANCH  31  34
ENDBRANCH  26  31
ENDBRANCH  25  26
ENDBRANCH   1  25
TORSDOF 14
