REMARK  8 active torsions:
REMARK  status: ('A' for Active; 'I' for Inactive)
REMARK    1  A    between atoms: CAV_6  and  OAS_7 
REMARK    2  A    between atoms: OAS_7  and  CAW_8 
REMARK    3  A    between atoms: CAU_13  and  CAP_14 
REMARK    4  A    between atoms: CAP_14  and  CAN_15 
REMARK    5  A    between atoms: CAN_15  and  CAO_16 
REMARK    6  A    between atoms: CAO_16  and  NAR_17 
REMARK       I    between atoms: NAR_17  and  CAT_18 
REMARK    7  A    between atoms: CAT_18  and  CAQ_20 
REMARK    8  A    between atoms: CAQ_20  and  PAX_21 
ROOT
ATOM      1  CAW MOL d          15.187  56.708  38.048  0.00  0.00     0.076 A 
ATOM      2  CAM MOL d          16.044  56.759  36.954  0.00  0.00     0.044 A 
ATOM      3  CAL MOL d          14.853  55.480  38.605  0.00  0.00     0.037 A 
ATOM      4  CAH MOL d          15.385  54.310  38.068  0.00  0.00     0.003 A 
ATOM      5  CAI MOL d          16.245  54.365  36.977  0.00  0.00     0.007 A 
ATOM      6  CAU MOL d          16.580  55.593  36.419  0.00  0.00    -0.055 A 
ENDROOT
BRANCH   6   7
ATOM      7  CAP MOL d          17.564  55.672  35.249  0.00  0.00     0.040 C 
BRANCH   7   8
ATOM      8  CAN MOL d          18.990  56.018  35.693  0.00  0.00     0.024 C 
BRANCH   8   9
ATOM      9  CAO MOL d          19.610  54.921  36.562  0.00  0.00     0.123 C 
BRANCH   9  10
ATOM     10  NAR MOL d          19.385  53.628  35.897  0.00  0.00    -0.361 N 
ATOM     11  CAT MOL d          19.390  52.472  36.552  0.00  0.00     0.230 C 
ATOM     12  OAA MOL d          19.562  52.368  37.768  0.00  0.00    -0.273 OA
ATOM     13  H16 MOL d          19.221  53.619  34.910  0.00  0.00     0.162 HD
BRANCH  11  14
ATOM     14  CAQ MOL d          19.089  51.251  35.682  0.00  0.00     0.248 C 
BRANCH  14  15
ATOM     15  PAX MOL d          20.554  50.272  35.274  0.00  0.00     0.268 P 
ATOM     16  OAC MOL d          21.278  51.053  34.065  0.00  0.00    -0.639 OA
ATOM     17  OAD MOL d          21.488  50.302  36.584  0.00  0.00    -0.639 OA
ATOM     18  OAB MOL d          20.123  48.907  34.885  0.00  0.00    -0.639 OA
ENDBRANCH  14  15
ENDBRANCH  11  14
ENDBRANCH   9  10
ENDBRANCH   8   9
ENDBRANCH   7   8
ENDBRANCH   6   7
BRANCH   1  19
ATOM     19  OAS MOL d          14.773  57.865  38.640  0.00  0.00    -0.311 OA
BRANCH  19  20
ATOM     20  CAV MOL d          13.654  58.440  38.120  0.00  0.00     0.076 A 
ATOM     21  CAJ MOL d          13.025  57.930  36.990  0.00  0.00     0.037 A 
ATOM     22  CAF MOL d          11.972  58.631  36.412  0.00  0.00     0.003 A 
ATOM     23  CAE MOL d          11.546  59.837  36.955  0.00  0.00     0.000 A 
ATOM     24  CAG MOL d          12.169  60.347  38.091  0.00  0.00     0.003 A 
ATOM     25  CAK MOL d          13.217  59.644  38.668  0.00  0.00     0.037 A 
ENDBRANCH  19  20
ENDBRANCH   1  19
TORSDOF 8
