REMARK  14 active torsions:
REMARK  status: ('A' for Active; 'I' for Inactive)
REMARK    1  A    between atoms: N1_1  and  C7_6 
REMARK    2  A    between atoms: N2_18  and  C4_3 
REMARK    3  A    between atoms: C4_3  and  C32_19 
REMARK    4  A    between atoms: C5_4  and  C27_25 
REMARK    5  A    between atoms: C12_23  and  C6_5 
REMARK    6  A    between atoms: C7_6  and  C8_7 
REMARK    7  A    between atoms: C8_7  and  C9_29 
REMARK    8  A    between atoms: C9_29  and  C10_8 
REMARK    9  A    between atoms: C10_8  and  C11_31 
REMARK       I    between atoms: C3_17  and  N2_18 
REMARK   10  A    between atoms: C3_17  and  C2_22 
REMARK   11  A    between atoms: C9_29  and  O4_30 
REMARK   12  A    between atoms: C11_31  and  O3_32 
REMARK   13  A    between atoms: C11_31  and  C35_33 
REMARK   14  A    between atoms: C35_33  and  C36_34 
ROOT
ATOM      1  N1  MOL d         -14.213   7.477  45.550  0.00  0.00    -0.332 N 
ATOM      2  N3  MOL d         -15.760   8.548  46.700  0.00  0.00    -0.223 NA
ATOM      3  C5  MOL d         -14.549   8.650  46.140  0.00  0.00     0.141 A 
ATOM      4  C2  MOL d         -16.199   7.314  46.461  0.00  0.00     0.149 A 
ATOM      5  C12 MOL d         -15.246   6.621  45.720  0.00  0.00     0.051 A 
ENDROOT
BRANCH   1   6
ATOM      6  C7  MOL d         -12.965   7.221  44.815  0.00  0.00     0.133 C 
BRANCH   6   7
ATOM      7  C8  MOL d         -13.167   7.795  43.407  0.00  0.00     0.052 C 
BRANCH   7   8
ATOM      8  C9  MOL d         -12.080   7.503  42.361  0.00  0.00     0.122 C 
BRANCH   8   9
ATOM      9  C10 MOL d         -12.556   7.995  40.997  0.00  0.00     0.064 C 
BRANCH   9  10
ATOM     10  C11 MOL d         -12.668   9.514  40.889  0.00  0.00     0.130 C 
BRANCH  10  11
ATOM     11  O3  MOL d         -11.408  10.099  41.123  0.00  0.00    -0.395 OA
ATOM     12  H29 MOL d         -11.481  11.044  41.055  0.00  0.00     0.210 HD
ENDBRANCH  10  11
BRANCH  10  13
ATOM     13  C35 MOL d         -13.125   9.891  39.484  0.00  0.00     0.144 C 
BRANCH  13  14
ATOM     14  C36 MOL d         -13.593  11.330  39.442  0.00  0.00     0.175 C 
ATOM     15  O6  MOL d         -12.854  12.187  38.891  0.00  0.00    -0.648 OA
ATOM     16  O7  MOL d         -14.700  11.599  39.971  0.00  0.00    -0.648 OA
ENDBRANCH  13  14
ENDBRANCH  10  13
ENDBRANCH   9  10
ENDBRANCH   8   9
BRANCH   8  17
ATOM     17  O4  MOL d         -11.815   6.113  42.214  0.00  0.00    -0.395 OA
ATOM     18  H27 MOL d         -11.514   5.760  43.043  0.00  0.00     0.210 HD
ENDBRANCH   8  17
ENDBRANCH   7   8
ENDBRANCH   6   7
ENDBRANCH   1   6
BRANCH   3  19
ATOM     19  C27 MOL d         -13.773   9.908  46.213  0.00  0.00     0.010 A 
ATOM     20  C21 MOL d         -14.310  11.067  45.657  0.00  0.00     0.018 A 
ATOM     21  C24 MOL d         -13.591  12.259  45.727  0.00  0.00     0.043 A 
ATOM     22  C30 MOL d         -12.350  12.296  46.367  0.00  0.00     0.116 A 
ATOM     23  C15 MOL d         -11.825  11.137  46.935  0.00  0.00     0.043 A 
ATOM     24  F1  MOL d         -11.655  13.449  46.429  0.00  0.00    -0.206 F 
ATOM     25  C18 MOL d         -12.542   9.945  46.870  0.00  0.00     0.018 A 
ENDBRANCH   3  19
BRANCH   5  26
ATOM     26  C6  MOL d         -15.362   5.200  45.294  0.00  0.00     0.030 C 
ATOM     27  C13 MOL d         -14.307   4.385  46.042  0.00  0.00     0.016 C 
ATOM     28  C14 MOL d         -15.297   5.009  43.782  0.00  0.00     0.016 C 
ENDBRANCH   5  26
BRANCH   4  29
ATOM     29  C3  MOL d         -17.498   6.743  46.886  0.00  0.00     0.272 C 
ATOM     30  O2  MOL d         -18.190   6.120  46.085  0.00  0.00    -0.266 OA
ATOM     31  N2  MOL d         -17.975   7.173  48.049  0.00  0.00    -0.351 N 
ATOM     32  H19 MOL d         -17.348   7.701  48.622  0.00  0.00     0.163 HD
BRANCH  31  33
ATOM     33  C4  MOL d         -19.311   6.957  48.576  0.00  0.00     0.161 C 
BRANCH  33  34
ATOM     34  C32 MOL d         -19.387   5.616  49.271  0.00  0.00    -0.041 A 
ATOM     35  C17 MOL d         -20.609   4.965  49.315  0.00  0.00     0.009 A 
ATOM     36  C20 MOL d         -20.730   3.731  49.948  0.00  0.00     0.001 A 
ATOM     37  C29 MOL d         -19.617   3.151  50.548  0.00  0.00     0.000 A 
ATOM     38  C23 MOL d         -18.390   3.807  50.513  0.00  0.00     0.001 A 
ATOM     39  C26 MOL d         -18.271   5.040  49.876  0.00  0.00     0.009 A 
ENDBRANCH  33  34
ENDBRANCH  31  33
ENDBRANCH   4  29
TORSDOF 14
