REMARK  12 active torsions:
REMARK  status: ('A' for Active; 'I' for Inactive)
REMARK    1  A    between atoms: O2_20  and  C1_1 
REMARK    2  A    between atoms: C2_2  and  O2_7 
REMARK    3  A    between atoms: C3_3  and  O3_8 
REMARK    4  A    between atoms: C4_4  and  O4_9 
REMARK    5  A    between atoms: C5_5  and  C6_6 
REMARK    6  A    between atoms: C6_6  and  O6_11 
REMARK    7  A    between atoms: C1_12  and  O1_19 
REMARK    8  A    between atoms: C2_13  and  O2_20 
REMARK    9  A    between atoms: C3_14  and  O3_21 
REMARK   10  A    between atoms: C4_15  and  O4_22 
REMARK   11  A    between atoms: C5_16  and  C6_17 
REMARK   12  A    between atoms: C6_17  and  O6_24 
ROOT
ATOM      1  O2  GLA d          12.805  17.739  77.333  0.00  0.00    -0.346 OA
ENDROOT
BRANCH   1   2
ATOM      2  C1  GLA d          13.633  18.110  76.182  0.00  0.00     0.292 C 
ATOM      3  C2  GLA d          13.000  19.373  75.630  0.00  0.00     0.204 C 
ATOM      4  C3  GLA d          11.717  19.037  74.880  0.00  0.00     0.183 C 
ATOM      5  C4  GLA d          12.030  18.027  73.782  0.00  0.00     0.180 C 
ATOM      6  C5  GLA d          12.706  16.773  74.350  0.00  0.00     0.179 C 
ATOM      7  O5  GLA d          13.793  17.074  75.218  0.00  0.00    -0.348 OA
BRANCH   3   8
ATOM      8  O2  GLA d          12.745  20.252  76.699  0.00  0.00    -0.388 OA
ATOM      9  H8  GLA d          12.136  19.845  77.304  0.00  0.00     0.210 HD
ENDBRANCH   3   8
BRANCH   4  10
ATOM     10  O3  GLA d          11.180  20.217  74.300  0.00  0.00    -0.390 OA
ATOM     11  H9  GLA d          11.814  20.589  73.698  0.00  0.00     0.210 HD
ENDBRANCH   4  10
BRANCH   5  12
ATOM     12  O4  GLA d          12.847  18.684  72.831  0.00  0.00    -0.390 OA
ATOM     13  H10 GLA d          12.395  19.453  72.504  0.00  0.00     0.210 HD
ENDBRANCH   5  12
BRANCH   6  14
ATOM     14  C6  GLA d          13.273  15.892  73.257  0.00  0.00     0.198 C 
BRANCH  14  15
ATOM     15  O6  GLA d          13.587  14.645  73.824  0.00  0.00    -0.398 OA
ATOM     16  H11 GLA d          14.228  14.765  74.515  0.00  0.00     0.209 HD
ENDBRANCH  14  15
ENDBRANCH   6  14
ENDBRANCH   1   2
BRANCH   1  17
ATOM     17  C2  GLA d          13.361  16.700  78.135  0.00  0.00     0.211 C 
ATOM     18  C1  GLA d          14.358  17.260  79.175  0.00  0.00     0.291 C 
ATOM     19  O5  GLA d          14.641  16.237  80.144  0.00  0.00    -0.349 OA
ATOM     20  C5  GLA d          13.479  15.863  80.897  0.00  0.00     0.179 C 
ATOM     21  C4  GLA d          12.520  15.122  79.963  0.00  0.00     0.180 C 
ATOM     22  C3  GLA d          12.157  15.991  78.760  0.00  0.00     0.183 C 
BRANCH  18  23
ATOM     23  O1  GLA d          15.559  17.773  78.552  0.00  0.00    -0.363 OA
ATOM     24  C7  GLA d          16.756  17.015  78.772  0.00  0.00     0.204 C 
ENDBRANCH  18  23
BRANCH  20  25
ATOM     25  C6  GLA d          13.907  15.027  82.105  0.00  0.00     0.198 C 
BRANCH  25  26
ATOM     26  O6  GLA d          13.959  15.854  83.271  0.00  0.00    -0.398 OA
ATOM     27  H24 GLA d          14.225  15.330  84.018  0.00  0.00     0.209 HD
ENDBRANCH  25  26
ENDBRANCH  20  25
BRANCH  21  28
ATOM     28  O4  GLA d          13.126  13.917  79.478  0.00  0.00    -0.390 OA
ATOM     29  H23 GLA d          12.519  13.469  78.900  0.00  0.00     0.210 HD
ENDBRANCH  21  28
BRANCH  22  30
ATOM     30  O3  GLA d          11.525  15.196  77.741  0.00  0.00    -0.390 OA
ATOM     31  H22 GLA d          12.120  14.511  77.461  0.00  0.00     0.210 HD
ENDBRANCH  22  30
ENDBRANCH   1  17
TORSDOF 12
