REMARK  21 active torsions:
REMARK  status: ('A' for Active; 'I' for Inactive)
REMARK    1  A    between atoms: C48_2  and  C40_4 
REMARK       I    between atoms: C48_2  and  N50_3 
REMARK    2  A    between atoms: C40_4  and  N39_12 
REMARK    3  A    between atoms: C40_4  and  C41_5 
REMARK    4  A    between atoms: C41_5  and  C42_6 
REMARK       I    between atoms: N39_12  and  C37_13 
REMARK    5  A    between atoms: C37_13  and  C31_15 
REMARK    6  A    between atoms: C31_15  and  N30_21 
REMARK    7  A    between atoms: C31_15  and  C32_16 
REMARK    8  A    between atoms: C32_16  and  C33_17 
REMARK    9  A    between atoms: C33_17  and  C34_18 
REMARK       I    between atoms: C34_18  and  N36_20 
REMARK       I    between atoms: N30_21  and  C28_22 
REMARK   10  A    between atoms: C28_22  and  C20_24 
REMARK   11  A    between atoms: C20_24  and  C19_32 
REMARK   12  A    between atoms: C20_24  and  C21_25 
REMARK   13  A    between atoms: C21_25  and  C22_26 
REMARK   14  A    between atoms: C19_32  and  C17_33 
REMARK   15  A    between atoms: C17_33  and  C9_35 
REMARK   16  A    between atoms: C17_33  and  O18_34 
REMARK   17  A    between atoms: C9_35  and  C10_44 
REMARK   18  A    between atoms: C9_35  and  N8_36 
REMARK       I    between atoms: N8_36  and  C6_37 
REMARK   19  A    between atoms: C6_37  and  O5_39 
REMARK   20  A    between atoms: O5_39  and  C1_40 
REMARK   21  A    between atoms: C10_44  and  C11_45 
ROOT
ATOM      1  N30 Q50 d          16.185  20.872   5.694  0.00  0.00    -0.347 N 
ATOM      2  C28 Q50 d          15.046  21.394   6.127  0.00  0.00     0.223 C 
ATOM      3  O29 Q50 d          14.012  20.717   6.218  0.00  0.00    -0.273 OA
ATOM      4  H19 Q50 d          16.991  21.458   5.616  0.00  0.00     0.163 HD
ENDROOT
BRANCH   2   5
ATOM      5  C20 Q50 d          15.084  22.880   6.419  0.00  0.00     0.084 C 
BRANCH   5   6
ATOM      6  C19 Q50 d          13.680  23.438   6.334  0.00  0.00     0.048 C 
BRANCH   6   7
ATOM      7  C17 Q50 d          13.423  23.717   4.857  0.00  0.00     0.142 C 
BRANCH   7   8
ATOM      8  C9  Q50 d          11.907  23.698   4.577  0.00  0.00     0.119 C 
BRANCH   8   9
ATOM      9  C10 Q50 d          11.576  23.906   3.103  0.00  0.00     0.066 C 
BRANCH   9  10
ATOM     10  C11 Q50 d          10.066  23.898   2.866  0.00  0.00    -0.056 A 
ATOM     11  C16 Q50 d           9.311  22.729   2.978  0.00  0.00     0.007 A 
ATOM     12  C15 Q50 d           7.934  22.786   2.765  0.00  0.00     0.001 A 
ATOM     13  C14 Q50 d           7.293  23.969   2.479  0.00  0.00     0.000 A 
ATOM     14  C13 Q50 d           8.052  25.134   2.373  0.00  0.00     0.001 A 
ATOM     15  C12 Q50 d           9.431  25.074   2.561  0.00  0.00     0.007 A 
ENDBRANCH   9  10
ENDBRANCH   8   9
BRANCH   8  16
ATOM     16  N8  Q50 d          11.236  24.803   5.276  0.00  0.00    -0.329 N 
ATOM     17  C6  Q50 d          10.719  24.679   6.473  0.00  0.00     0.361 C 
ATOM     18  O7  Q50 d          10.792  23.613   7.074  0.00  0.00    -0.238 OA
ATOM     19  H33 Q50 d          11.171  25.689   4.817  0.00  0.00     0.165 HD
BRANCH  17  20
ATOM     20  O5  Q50 d          10.065  25.883   7.010  0.00  0.00    -0.294 OA
BRANCH  20  21
ATOM     21  C1  Q50 d           9.590  26.117   8.326  0.00  0.00     0.061 C 
ATOM     22  C2  Q50 d           9.205  27.596   8.410  0.00  0.00     0.046 C 
ATOM     23  C3  Q50 d           8.344  25.276   8.585  0.00  0.00     0.046 C 
ATOM     24  C4  Q50 d          10.705  25.817   9.302  0.00  0.00     0.046 C 
ENDBRANCH  20  21
ENDBRANCH  17  20
ENDBRANCH   8  16
ENDBRANCH   7   8
BRANCH   7  25
ATOM     25  O18 Q50 d          14.078  24.953   4.537  0.00  0.00    -0.393 OA
ATOM     26  H31 Q50 d          15.004  24.881   4.738  0.00  0.00     0.210 HD
ENDBRANCH   7  25
ENDBRANCH   6   7
ENDBRANCH   5   6
BRANCH   5  27
ATOM     27  C21 Q50 d          15.651  23.328   7.735  0.00  0.00     0.052 C 
BRANCH  27  28
ATOM     28  C22 Q50 d          15.526  22.203   8.668  0.00  0.00    -0.057 A 
ATOM     29  C27 Q50 d          16.644  21.423   8.861  0.00  0.00     0.007 A 
ATOM     30  C26 Q50 d          16.589  20.338   9.717  0.00  0.00     0.001 A 
ATOM     31  C25 Q50 d          15.418  20.066  10.366  0.00  0.00     0.000 A 
ATOM     32  C24 Q50 d          14.270  20.836  10.151  0.00  0.00     0.001 A 
ATOM     33  C23 Q50 d          14.309  21.937   9.291  0.00  0.00     0.007 A 
ENDBRANCH  27  28
ENDBRANCH   5  27
ENDBRANCH   2   5
BRANCH   1  34
ATOM     34  C31 Q50 d          16.290  19.480   5.332  0.00  0.00     0.177 C 
BRANCH  34  35
ATOM     35  C37 Q50 d          17.705  18.964   5.451  0.00  0.00     0.241 C 
ATOM     36  N39 Q50 d          17.763  17.672   5.833  0.00  0.00    -0.346 N 
ATOM     37  H11 Q50 d          16.912  17.217   6.096  0.00  0.00     0.163 HD
ATOM     38  O38 Q50 d          18.696  19.690   5.278  0.00  0.00    -0.271 OA
BRANCH  36  39
ATOM     39  C40 Q50 d          19.020  16.893   5.883  0.00  0.00     0.180 C 
BRANCH  39  40
ATOM     40  C48 Q50 d          18.731  15.496   5.387  0.00  0.00     0.238 C 
ATOM     41  O49 Q50 d          17.739  14.976   5.816  0.00  0.00    -0.271 OA
ATOM     42  N50 Q50 d          19.542  14.916   4.473  0.00  0.00    -0.368 N 
ATOM     43  H1  Q50 d          20.357  15.397   4.151  0.00  0.00     0.159 HD
ATOM     44  H2  Q50 d          19.326  14.006   4.119  0.00  0.00     0.159 HD
ENDBRANCH  39  40
BRANCH  39  45
ATOM     45  C41 Q50 d          19.664  16.849   7.262  0.00  0.00     0.073 C 
BRANCH  45  46
ATOM     46  C42 Q50 d          18.846  16.208   8.331  0.00  0.00    -0.056 A 
ATOM     47  C47 Q50 d          18.960  14.835   8.601  0.00  0.00     0.007 A 
ATOM     48  C46 Q50 d          18.174  14.307   9.604  0.00  0.00     0.001 A 
ATOM     49  C45 Q50 d          17.302  15.116  10.324  0.00  0.00     0.000 A 
ATOM     50  C44 Q50 d          17.194  16.461  10.044  0.00  0.00     0.001 A 
ATOM     51  C43 Q50 d          17.998  17.011   9.063  0.00  0.00     0.007 A 
ENDBRANCH  45  46
ENDBRANCH  39  45
ENDBRANCH  36  39
ENDBRANCH  34  35
BRANCH  34  52
ATOM     52  C32 Q50 d          15.794  19.559   3.884  0.00  0.00     0.044 C 
BRANCH  52  53
ATOM     53  C33 Q50 d          15.697  18.230   3.114  0.00  0.00     0.105 C 
BRANCH  53  54
ATOM     54  C34 Q50 d          17.049  17.828   2.583  0.00  0.00     0.215 C 
ATOM     55  N36 Q50 d          17.361  16.542   2.691  0.00  0.00    -0.370 N 
ATOM     56  H17 Q50 d          18.244  16.212   2.357  0.00  0.00     0.159 HD
ATOM     57  H18 Q50 d          16.713  15.903   3.106  0.00  0.00     0.159 HD
ATOM     58  O35 Q50 d          17.796  18.655   2.074  0.00  0.00    -0.274 OA
ENDBRANCH  53  54
ENDBRANCH  52  53
ENDBRANCH  34  52
ENDBRANCH   1  34
TORSDOF 21
