REMARK  9 active torsions:
REMARK  status: ('A' for Active; 'I' for Inactive)
REMARK    1  A    between atoms: C4_4  and  N1_28 
REMARK    2  A    between atoms: N2_35  and  C7_7 
REMARK    3  A    between atoms: C11_11  and  C10_10 
REMARK    4  A    between atoms: C10_10  and  N2_35 
REMARK    5  A    between atoms: C13_13  and  C24_25 
REMARK    6  A    between atoms: C19_19  and  O2_30 
REMARK    7  A    between atoms: C20_20  and  O1_29 
REMARK    8  A    between atoms: O2_30  and  C27_31 
REMARK    9  A    between atoms: N3_40  and  C31_37 
ROOT
ATOM      1  C4  MOL d          -9.002 -10.994  -2.712  0.00  0.00     0.038 A 
ATOM      2  C5  MOL d          -9.318 -12.315  -3.085  0.00  0.00     0.032 A 
ATOM      3  C6  MOL d         -10.576 -12.801  -2.732  0.00  0.00     0.031 A 
ATOM      4  C7  MOL d         -11.526 -12.012  -2.049  0.00  0.00     0.029 A 
ATOM      5  C8  MOL d         -11.187 -10.692  -1.679  0.00  0.00     0.031 A 
ATOM      6  C9  MOL d          -9.931 -10.196  -2.023  0.00  0.00     0.032 A 
ENDROOT
BRANCH   1   7
ATOM      7  N1  MOL d          -7.735 -10.450  -3.009  0.00  0.00    -0.304 N 
ATOM      8  C13 MOL d          -6.816 -10.559  -1.848  0.00  0.00     0.159 C 
ATOM      9  C17 MOL d          -5.638  -9.591  -1.917  0.00  0.00    -0.021 A 
ATOM     10  C16 MOL d          -5.259  -8.998  -3.136  0.00  0.00    -0.038 A 
ATOM     11  C18 MOL d          -4.968  -9.308  -0.719  0.00  0.00     0.049 A 
ATOM     12  C15 MOL d          -6.008  -9.330  -4.445  0.00  0.00     0.142 C 
ATOM     13  C21 MOL d          -4.157  -8.102  -3.144  0.00  0.00     0.047 A 
ATOM     14  C14 MOL d          -7.381  -9.900  -4.201  0.00  0.00     0.229 C 
ATOM     15  O3  MOL d          -8.181  -9.849  -5.118  0.00  0.00    -0.273 OA
ATOM     16  C20 MOL d          -3.473  -7.818  -1.918  0.00  0.00     0.102 A 
ATOM     17  C19 MOL d          -3.871  -8.416  -0.716  0.00  0.00     0.103 A 
BRANCH   8  18
ATOM     18  C24 MOL d          -6.261 -12.002  -1.694  0.00  0.00    -0.030 A 
ATOM     19  C23 MOL d          -6.735 -12.890  -0.684  0.00  0.00     0.011 A 
ATOM     20  C3  MOL d          -6.203 -14.209  -0.590  0.00  0.00     0.024 A 
ATOM     21  C2  MOL d          -5.211 -14.616  -1.505  0.00  0.00     0.034 A 
ATOM     22 CL1  MOL d          -4.487 -16.225  -1.477  0.00  0.00    -0.084 Cl
ATOM     23  C26 MOL d          -4.742 -13.748  -2.510  0.00  0.00     0.024 A 
ATOM     24  C25 MOL d          -5.272 -12.448  -2.602  0.00  0.00     0.011 A 
ENDBRANCH   8  18
BRANCH  16  25
ATOM     25  O1  MOL d          -2.384  -6.955  -1.789  0.00  0.00    -0.353 OA
ATOM     26  C22 MOL d          -1.824  -6.257  -2.922  0.00  0.00     0.210 C 
ENDBRANCH  16  25
BRANCH  17  27
ATOM     27  O2  MOL d          -3.159  -8.096   0.455  0.00  0.00    -0.344 OA
BRANCH  27  28
ATOM     28  C27 MOL d          -3.487  -8.675   1.742  0.00  0.00     0.121 C 
ATOM     29  C28 MOL d          -2.908  -7.723   2.821  0.00  0.00     0.040 C 
ATOM     30  C29 MOL d          -2.891 -10.091   1.959  0.00  0.00     0.040 C 
ENDBRANCH  27  28
ENDBRANCH  17  27
ENDBRANCH   1   7
BRANCH   4  31
ATOM     31  N2  MOL d         -12.708 -12.581  -1.727  0.00  0.00    -0.385 N 
ATOM     32  C38 MOL d         -12.938 -14.012  -2.039  0.00  0.00     0.149 C 
BRANCH  31  33
ATOM     33  C10 MOL d         -13.778 -11.861  -1.025  0.00  0.00     0.127 C 
BRANCH  33  34
ATOM     34  C11 MOL d         -14.730 -11.047  -1.917  0.00  0.00     0.004 C 
ATOM     35  C12 MOL d         -15.755 -10.312  -0.986  0.00  0.00     0.008 C 
ATOM     36  C30 MOL d         -16.805  -9.521  -1.842  0.00  0.00     0.034 C 
ATOM     37  C31 MOL d         -17.527 -10.410  -2.930  0.00  0.00     0.189 C 
ATOM     38  C32 MOL d         -16.438 -11.054  -3.847  0.00  0.00     0.034 C 
ATOM     39  C33 MOL d         -15.479 -11.922  -2.971  0.00  0.00     0.008 C 
BRANCH  37  40
ATOM     40  N3  MOL d         -18.622  -9.697  -3.694  0.00  0.00    -0.057 N 
ATOM     41  C34 MOL d         -19.864  -9.241  -2.980  0.00  0.00     0.255 C 
ATOM     42  C35 MOL d         -21.034  -9.166  -4.003  0.00  0.00     0.153 C 
ATOM     43  N4  MOL d         -20.640  -8.399  -5.193  0.00  0.00    -0.353 N 
ATOM     44  C1  MOL d         -21.704  -7.880  -6.002  0.00  0.00     0.152 C 
ATOM     45  C36 MOL d         -19.333  -8.156  -5.551  0.00  0.00     0.245 C 
ATOM     46  C37 MOL d         -18.193  -8.693  -4.713  0.00  0.00     0.337 C 
ATOM     47  O4  MOL d         -18.994  -7.508  -6.542  0.00  0.00    -0.272 OA
ATOM     48  H39 MOL d         -18.975 -10.450  -4.264  0.00  0.00     0.281 HD
ENDBRANCH  37  40
ENDBRANCH  33  34
ENDBRANCH  31  33
ENDBRANCH   4  31
TORSDOF 9
