REMARK  4 active torsions:
REMARK  status: ('A' for Active; 'I' for Inactive)
REMARK       I    between atoms: C2_12  and  N1_1 
REMARK    1  A    between atoms: C4_2  and  O3_16 
REMARK    2  A    between atoms: C1_9  and  C2_12 
REMARK    3  A    between atoms: C9_10  and  O4_14 
REMARK    4  A    between atoms: C3_11  and  O2_15 
ROOT
ATOM      1  C4  PYU d          15.075  -1.489  50.669  0.00  0.00     0.086 A 
ATOM      2  C5  PYU d          16.586   0.605  49.479  0.00  0.00     0.074 A 
ATOM      3  C6  PYU d          14.547  -0.170  50.647  0.00  0.00     0.074 A 
ATOM      4  C1  PYU d          16.358  -1.764  50.099  0.00  0.00     0.099 A 
ATOM      5  C9  PYU d          15.309   0.869  50.051  0.00  0.00     0.071 A 
ATOM      6  C3  PYU d          17.103  -0.716  49.508  0.00  0.00     0.086 A 
ENDROOT
BRANCH   4   7
ATOM      7  C2  PYU d          16.918  -3.133  50.125  0.00  0.00     0.267 C 
ATOM      8  N1  PYU d          17.330  -3.792  51.311  0.00  0.00    -0.299 N 
ATOM      9  C7  PYU d          17.858  -5.067  51.387  0.00  0.00     0.099 A 
ATOM     10  C8  PYU d          17.288  -3.289  52.611  0.00  0.00     0.099 A 
ATOM     11  C10 PYU d          18.138  -5.355  52.703  0.00  0.00     0.019 A 
ATOM     12  C11 PYU d          17.779  -4.234  53.471  0.00  0.00     0.019 A 
ATOM     13  O1  PYU d          17.040  -3.731  49.050  0.00  0.00    -0.267 OA
ENDBRANCH   4   7
BRANCH   1  14
ATOM     14  O3  PYU d          14.352  -2.501  51.245  0.00  0.00    -0.359 OA
ATOM     15  H9  PYU d          13.530  -2.155  51.573  0.00  0.00     0.217 HD
ENDBRANCH   1  14
BRANCH   6  16
ATOM     16  O2  PYU d          18.332  -0.927  48.950  0.00  0.00    -0.359 OA
ATOM     17  H8  PYU d          18.669  -0.107  48.608  0.00  0.00     0.217 HD
ENDBRANCH   6  16
BRANCH   5  18
ATOM     18  O4  PYU d          14.786   2.129  50.047  0.00  0.00    -0.361 OA
ATOM     19  H7  PYU d          15.394   2.722  49.621  0.00  0.00     0.217 HD
ENDBRANCH   5  18
TORSDOF 4
