REMARK  4 active torsions:
REMARK  status: ('A' for Active; 'I' for Inactive)
REMARK    1  A    between atoms: C1_1  and  O1_6 
REMARK    2  A    between atoms: C2_2  and  O2_7 
REMARK    3  A    between atoms: C3_3  and  O3_8 
REMARK    4  A    between atoms: C4_4  and  O4_9 
ROOT
ATOM      1  C1  RIP d          51.097  36.402  26.176  0.00  0.00     0.288 C 
ATOM      2  C2  RIP d          51.554  37.774  25.748  0.00  0.00     0.204 C 
ATOM      3  C3  RIP d          50.634  38.828  26.339  0.00  0.00     0.182 C 
ATOM      4  C4  RIP d          50.481  38.733  27.850  0.00  0.00     0.173 C 
ATOM      5  C5  RIP d          50.023  37.315  28.183  0.00  0.00     0.205 C 
ATOM      6  O5  RIP d          50.879  36.305  27.608  0.00  0.00    -0.356 OA
ENDROOT
BRANCH   1   7
ATOM      7  O1  RIP d          49.876  36.055  25.555  0.00  0.00    -0.369 OA
ATOM      8  H7  RIP d          49.197  36.657  25.836  0.00  0.00     0.212 HD
ENDBRANCH   1   7
BRANCH   2   9
ATOM      9  O2  RIP d          52.878  37.942  26.199  0.00  0.00    -0.388 OA
ATOM     10  H8  RIP d          52.901  37.868  27.146  0.00  0.00     0.210 HD
ENDBRANCH   2   9
BRANCH   3  11
ATOM     11  O3  RIP d          51.059  40.115  25.970  0.00  0.00    -0.390 OA
ATOM     12  H9  RIP d          51.897  40.300  26.379  0.00  0.00     0.210 HD
ENDBRANCH   3  11
BRANCH   4  13
ATOM     13  O4  RIP d          51.711  38.973  28.500  0.00  0.00    -0.391 OA
ATOM     14  H10 RIP d          52.356  38.345  28.197  0.00  0.00     0.210 HD
ENDBRANCH   4  13
TORSDOF 4
