REMARK  4 active torsions:
REMARK  status: ('A' for Active; 'I' for Inactive)
REMARK    1  A    between atoms: CAI_12  and  OAL_13 
REMARK    2  A    between atoms: CAI_12  and  CAM_14 
REMARK    3  A    between atoms: CAM_14  and  CAO_15 
REMARK    4  A    between atoms: CAO_15  and  CAQ_17 
ROOT
ATOM      1  OAN 9VU d          -8.235  35.493   7.434  0.00  0.00    -0.269 OA
ATOM      2  CAH 9VU d          -9.263  36.149   7.692  0.00  0.00     0.262 A 
ATOM      3  NAG 9VU d         -10.492  35.627   7.723  0.00  0.00    -0.324 N 
ATOM      4  CAC 9VU d         -11.382  36.619   7.999  0.00  0.00     0.046 A 
ATOM      5  CAB 9VU d         -12.713  36.543   8.100  0.00  0.00     0.031 A 
ATOM      6  CAA 9VU d         -13.521  37.661   8.361  0.00  0.00     0.010 A 
ATOM      7  CAF 9VU d         -12.886  38.901   8.502  0.00  0.00    -0.044 A 
ATOM      8  CAJ 9VU d         -13.669  40.076   8.765  0.00  0.00     0.049 C 
ATOM      9  CAE 9VU d         -11.478  38.930   8.385  0.00  0.00     0.029 A 
ATOM     10 BRA  9VU d         -10.650  40.619   8.649  0.00  0.00    -0.050 Br
ATOM     11  CAD 9VU d         -10.739  37.812   8.140  0.00  0.00     0.030 A 
ATOM     12  CAI 9VU d          -9.337  37.547   7.944  0.00  0.00     0.176 A 
ATOM     13  H1  9VU d         -10.721  34.666   7.569  0.00  0.00     0.169 HD
ENDROOT
BRANCH  12  14
ATOM     14  OAL 9VU d          -8.884  38.187   6.748  0.00  0.00    -0.375 OA
ATOM     15  H7  9VU d          -7.959  38.008   6.625  0.00  0.00     0.211 HD
ENDBRANCH  12  14
BRANCH  12  16
ATOM     16  CAM 9VU d          -8.386  38.076   9.051  0.00  0.00     0.137 C 
BRANCH  16  17
ATOM     17  CAO 9VU d          -8.554  37.360  10.407  0.00  0.00     0.163 C 
ATOM     18  OAP 9VU d          -9.270  36.348  10.445  0.00  0.00    -0.292 OA
BRANCH  17  19
ATOM     19  CAQ 9VU d          -7.835  37.869  11.529  0.00  0.00     0.013 A 
ATOM     20  CAV 9VU d          -7.250  39.137  11.541  0.00  0.00     0.054 A 
ATOM     21  CAU 9VU d          -6.567  39.591  12.607  0.00  0.00     0.105 A 
ATOM     22  OAY 9VU d          -5.954  40.799  12.778  0.00  0.00    -0.323 OA
ATOM     23  CAT 9VU d          -6.440  38.861  13.715  0.00  0.00     0.105 A 
ATOM     24  CAX 9VU d          -5.059  40.575  13.902  0.00  0.00     0.352 C 
ATOM     25  OAW 9VU d          -5.723  39.552  14.654  0.00  0.00    -0.323 OA
ATOM     26  CAS 9VU d          -6.989  37.637  13.786  0.00  0.00     0.040 A 
ATOM     27  CAR 9VU d          -7.704  37.121  12.706  0.00  0.00     0.018 A 
ENDBRANCH  17  19
ENDBRANCH  16  17
ENDBRANCH  12  16
TORSDOF 4
