REMARK  6 active torsions:
REMARK  status: ('A' for Active; 'I' for Inactive)
REMARK    1  A    between atoms: C3_3  and  O6_21 
REMARK    2  A    between atoms: C6_6  and  C7_7 
REMARK    3  A    between atoms: C9_9  and  O3_15 
REMARK    4  A    between atoms: C10_10  and  C11_12 
REMARK    5  A    between atoms: O3_15  and  C12_16 
REMARK    6  A    between atoms: C12_16  and  C13_17 
ROOT
ATOM      1  C7  MOL d          45.661  12.969   1.183  0.00  0.00     0.036 A 
ATOM      2  C8  MOL d          46.105  13.588   2.358  0.00  0.00     0.064 A 
ATOM      3  C9  MOL d          45.602  14.931   2.531  0.00  0.00     0.112 A 
ATOM      4  C10 MOL d          44.793  15.307   1.460  0.00  0.00     0.117 A 
ATOM      5  S1  MOL d          44.634  14.046   0.310  0.00  0.00    -0.078 SA
ATOM      6 BR1  MOL d          47.254  12.792   3.639  0.00  0.00    -0.047 Br
ENDROOT
BRANCH   1   7
ATOM      7  C6  MOL d          45.929  11.607   0.623  0.00  0.00    -0.018 A 
ATOM      8  C1  MOL d          47.273  11.089   0.506  0.00  0.00     0.015 A 
ATOM      9  C2  MOL d          47.521   9.795  -0.023  0.00  0.00     0.037 A 
ATOM     10  C3  MOL d          46.432   9.000  -0.450  0.00  0.00     0.065 A 
ATOM     11  C4  MOL d          45.096   9.483  -0.350  0.00  0.00     0.037 A 
ATOM     12  C5  MOL d          44.847  10.781   0.184  0.00  0.00     0.015 A 
BRANCH  10  13
ATOM     13  O6  MOL d          46.642   7.749  -0.968  0.00  0.00    -0.361 OA
ATOM     14  H7  MOL d          47.573   7.562  -0.974  0.00  0.00     0.217 HD
ENDBRANCH  10  13
ENDBRANCH   1   7
BRANCH   3  15
ATOM     15  O3  MOL d          45.882  15.765   3.604  0.00  0.00    -0.338 OA
BRANCH  15  16
ATOM     16  C12 MOL d          47.113  16.526   3.436  0.00  0.00     0.288 C 
BRANCH  16  17
ATOM     17  C13 MOL d          47.482  17.165   4.787  0.00  0.00     0.198 C 
ATOM     18  O4  MOL d          46.548  17.254   5.634  0.00  0.00    -0.646 OA
ATOM     19  O5  MOL d          48.683  17.532   4.886  0.00  0.00    -0.646 OA
ENDBRANCH  16  17
ENDBRANCH  15  16
ENDBRANCH   3  15
BRANCH   4  20
ATOM     20  C11 MOL d          44.104  16.708   1.251  0.00  0.00     0.219 C 
ATOM     21  O1  MOL d          43.930  17.441   2.280  0.00  0.00    -0.643 OA
ATOM     22  O2  MOL d          43.779  16.991   0.060  0.00  0.00    -0.643 OA
ENDBRANCH   4  20
TORSDOF 6
