REMARK  7 active torsions:
REMARK  status: ('A' for Active; 'I' for Inactive)
REMARK    1  A    between atoms: CAT_6  and  CAU_7 
REMARK    2  A    between atoms: CAS_12  and  CAQ_13 
REMARK    3  A    between atoms: CAQ_13  and  CAP_14 
REMARK    4  A    between atoms: CAP_14  and  CAR_15 
REMARK    5  A    between atoms: CAR_15  and  CAV_16 
REMARK    6  A    between atoms: CAV_16  and  PAW_17 
REMARK    7  A    between atoms: CAV_16  and  SAX_21 
ROOT
ATOM      1  CAU B70 d          57.068  17.459  52.922  0.00  0.00    -0.026 A 
ATOM      2  CAO B70 d          56.210  17.151  51.872  0.00  0.00     0.013 A 
ATOM      3  CAM B70 d          55.865  15.829  51.610  0.00  0.00     0.008 A 
ATOM      4  CAN B70 d          57.574  16.436  53.715  0.00  0.00     0.013 A 
ATOM      5  CAL B70 d          57.230  15.114  53.451  0.00  0.00     0.008 A 
ATOM      6  CAS B70 d          56.377  14.805  52.396  0.00  0.00    -0.058 A 
ENDROOT
BRANCH   6   7
ATOM      7  CAQ B70 d          56.030  13.350  52.071  0.00  0.00     0.038 C 
BRANCH   7   8
ATOM      8  CAP B70 d          57.291  12.521  51.807  0.00  0.00     0.007 C 
BRANCH   8   9
ATOM      9  CAR B70 d          56.953  11.084  51.400  0.00  0.00     0.037 C 
BRANCH   9  10
ATOM     10  CAV B70 d          56.198  10.324  52.494  0.00  0.00     0.259 C 
BRANCH  10  11
ATOM     11  PAW B70 d          57.218  10.169  54.014  0.00  0.00     0.281 P 
ATOM     12  OAB B70 d          57.028   8.674  54.582  0.00  0.00    -0.639 OA
ATOM     13  OAC B70 d          58.746  10.262  53.516  0.00  0.00    -0.639 OA
ATOM     14  OAA B70 d          56.865  11.197  55.019  0.00  0.00    -0.639 OA
ENDBRANCH  10  11
BRANCH  10  15
ATOM     15  SAX B70 d          55.657   8.669  51.924  0.00  0.00     0.119 S 
ATOM     16  OAF B70 d          54.628   8.825  50.941  0.00  0.00    -0.594 OA
ATOM     17  OAE B70 d          55.113   7.869  53.072  0.00  0.00    -0.594 OA
ATOM     18  OAD B70 d          56.819   7.934  51.324  0.00  0.00    -0.594 OA
ENDBRANCH  10  15
ENDBRANCH   9  10
ENDBRANCH   8   9
ENDBRANCH   7   8
ENDBRANCH   6   7
BRANCH   1  19
ATOM     19  CAT B70 d          57.405  18.785  53.167  0.00  0.00    -0.026 A 
ATOM     20  CAJ B70 d          57.921  19.169  54.400  0.00  0.00     0.012 A 
ATOM     21  CAH B70 d          58.190  20.508  54.662  0.00  0.00     0.001 A 
ATOM     22  CAG B70 d          57.948  21.474  53.691  0.00  0.00     0.000 A 
ATOM     23  CAI B70 d          57.442  21.090  52.455  0.00  0.00     0.001 A 
ATOM     24  CAK B70 d          57.174  19.750  52.193  0.00  0.00     0.012 A 
ENDBRANCH   1  19
TORSDOF 7
