REMARK  6 active torsions:
REMARK  status: ('A' for Active; 'I' for Inactive)
REMARK    1  A    between atoms: C1_1  and  O1_8 
REMARK    2  A    between atoms: C2_2  and  O2_9 
REMARK    3  A    between atoms: C3_3  and  O3_10 
REMARK    4  A    between atoms: C4_4  and  O4_11 
REMARK    5  A    between atoms: C5_5  and  C6_6 
REMARK    6  A    between atoms: C6_6  and  O6_13 
ROOT
ATOM      1  C1  MBG d           3.311  14.614   7.826  0.00  0.00     0.290 C 
ATOM      2  C2  MBG d           2.690  14.445   9.229  0.00  0.00     0.204 C 
ATOM      3  C3  MBG d           3.677  13.703  10.120  0.00  0.00     0.183 C 
ATOM      4  C4  MBG d           4.087  12.372   9.475  0.00  0.00     0.180 C 
ATOM      5  C5  MBG d           4.574  12.639   8.042  0.00  0.00     0.179 C 
ATOM      6  O5  MBG d           3.561  13.290   7.269  0.00  0.00    -0.349 OA
ENDROOT
BRANCH   5   7
ATOM      7  C6  MBG d           4.942  11.341   7.335  0.00  0.00     0.198 C 
BRANCH   7   8
ATOM      8  O6  MBG d           5.663  11.648   6.132  0.00  0.00    -0.398 OA
ATOM      9  H14 MBG d           5.117  12.178   5.563  0.00  0.00     0.209 HD
ENDBRANCH   7   8
ENDBRANCH   5   7
BRANCH   4  10
ATOM     10  O4  MBG d           2.964  11.473   9.459  0.00  0.00    -0.390 OA
ATOM     11  H13 MBG d           2.673  11.316  10.350  0.00  0.00     0.210 HD
ENDBRANCH   4  10
BRANCH   3  12
ATOM     12  O3  MBG d           3.109  13.536  11.429  0.00  0.00    -0.390 OA
ATOM     13  H12 MBG d           2.874  14.386  11.782  0.00  0.00     0.210 HD
ENDBRANCH   3  12
BRANCH   1  14
ATOM     14  O1  MBG d           2.508  15.400   6.917  0.00  0.00    -0.363 OA
ATOM     15  C7  MBG d           1.098  15.395   7.286  0.00  0.00     0.204 C 
ENDBRANCH   1  14
BRANCH   2  16
ATOM     16  O2  MBG d           2.366  15.682   9.874  0.00  0.00    -0.388 OA
ATOM     17  H11 MBG d           1.977  15.503  10.722  0.00  0.00     0.210 HD
ENDBRANCH   2  16
TORSDOF 6
