REMARK  11 active torsions:
REMARK  status: ('A' for Active; 'I' for Inactive)
REMARK    1  A    between atoms: N_1  and  CA_2 
REMARK    2  A    between atoms: CA_2  and  CB_3 
REMARK    3  A    between atoms: CA_2  and  C_6 
REMARK    4  A    between atoms: CB_3  and  CG_4 
REMARK    5  A    between atoms: CG_4  and  SD_5 
REMARK    6  A    between atoms: SD_5  and  C5'_9 
REMARK    7  A    between atoms: C5'_9  and  C4'_10 
REMARK    8  A    between atoms: C3'_12  and  O3'_13 
REMARK    9  A    between atoms: C2'_14  and  O2'_15 
REMARK   10  A    between atoms: C1'_16  and  N9_17 
REMARK   11  A    between atoms: C6_21  and  N6_22 
ROOT
ATOM      1  C4' SAH d          22.303  44.379   8.035  0.00  0.00     0.165 C 
ATOM      2  O4' SAH d          22.028  45.760   7.824  0.00  0.00    -0.355 OA
ATOM      3  C3' SAH d          23.662  44.104   7.373  0.00  0.00     0.180 C 
ATOM      4  C2' SAH d          24.072  45.450   6.781  0.00  0.00     0.198 C 
ATOM      5  C1' SAH d          22.697  46.097   6.624  0.00  0.00     0.262 C 
ENDROOT
BRANCH   1   6
ATOM      6  C5' SAH d          22.251  44.115   9.537  0.00  0.00     0.108 C 
BRANCH   6   7
ATOM      7  SD  SAH d          22.472  42.373  10.002  0.00  0.00    -0.166 SA
BRANCH   7   8
ATOM      8  CG  SAH d          20.866  41.672   9.529  0.00  0.00     0.076 C 
BRANCH   8   9
ATOM      9  CB  SAH d          21.047  40.620   8.420  0.00  0.00     0.054 C 
BRANCH   9  10
ATOM     10  CA  SAH d          19.860  39.685   8.123  0.00  0.00     0.284 C 
BRANCH  10  11
ATOM     11  N   SAH d          18.665  40.408   7.585  0.00  0.00    -0.065 N 
ATOM     12  H1  SAH d          18.946  40.995   6.815  0.00  0.00     0.275 HD
ATOM     13  H2  SAH d          18.262  40.978   8.312  0.00  0.00     0.275 HD
ATOM     14  H3  SAH d          17.983  39.738   7.266  0.00  0.00     0.275 HD
ENDBRANCH  10  11
BRANCH  10  15
ATOM     15  C   SAH d          19.458  38.781   9.302  0.00  0.00     0.204 C 
ATOM     16  O   SAH d          18.258  38.500   9.455  0.00  0.00    -0.646 OA
ATOM     17  OXT SAH d          20.301  38.309  10.077  0.00  0.00    -0.646 OA
ENDBRANCH  10  15
ENDBRANCH   9  10
ENDBRANCH   8   9
ENDBRANCH   7   8
ENDBRANCH   6   7
ENDBRANCH   1   6
BRANCH   3  18
ATOM     18  O3' SAH d          23.490  43.118   6.371  0.00  0.00    -0.390 OA
ATOM     19  H13 SAH d          24.326  42.941   5.956  0.00  0.00     0.210 HD
ENDBRANCH   3  18
BRANCH   5  20
ATOM     20  N9  SAH d          22.721  47.547   6.422  0.00  0.00    -0.294 N 
ATOM     21  C8  SAH d          23.511  48.494   7.018  0.00  0.00     0.214 A 
ATOM     22  N7  SAH d          23.179  49.703   6.512  0.00  0.00    -0.236 NA
ATOM     23  C5  SAH d          22.177  49.552   5.615  0.00  0.00     0.149 A 
ATOM     24  C6  SAH d          21.463  50.450   4.818  0.00  0.00     0.155 A 
ATOM     25  C4  SAH d          21.877  48.191   5.554  0.00  0.00     0.167 A 
ATOM     26  N1  SAH d          20.474  49.956   4.002  0.00  0.00    -0.222 NA
ATOM     27  C2  SAH d          20.193  48.600   3.946  0.00  0.00     0.237 A 
ATOM     28  N3  SAH d          20.905  47.719   4.735  0.00  0.00    -0.222 NA
BRANCH  24  29
ATOM     29  N6  SAH d          21.714  51.771   4.846  0.00  0.00    -0.382 N 
ATOM     30  H18 SAH d          21.172  52.411   4.248  0.00  0.00     0.157 HD
ATOM     31  H19 SAH d          22.448  52.143   5.466  0.00  0.00     0.157 HD
ENDBRANCH  24  29
ENDBRANCH   5  20
BRANCH   4  32
ATOM     32  O2' SAH d          24.776  45.398   5.551  0.00  0.00    -0.388 OA
ATOM     33  H15 SAH d          24.235  44.974   4.895  0.00  0.00     0.210 HD
ENDBRANCH   4  32
TORSDOF 11
