REMARK  3 active torsions:
REMARK  status: ('A' for Active; 'I' for Inactive)
REMARK    1  A    between atoms: CZ_1  and  CH1_2 
REMARK    2  A    between atoms: CZ_1  and  CH2_6 
REMARK    3  A    between atoms: CH1_2  and  CF1_3 
ROOT
ATOM      1  CZ  HRI d          -8.735 -31.040  14.683  0.00  0.00     0.183 C 
ATOM      2 CL   HRI d          -8.185 -29.409  14.878  0.00  0.00    -0.114 Cl
ENDROOT
BRANCH   1   3
ATOM      3  CH1 HRI d          -8.347 -31.895  15.875  0.00  0.00     0.035 C 
BRANCH   3   4
ATOM      4  CF1 HRI d          -9.364 -32.138  16.977  0.00  0.00    -0.021 C 
ATOM      5  CI1 HRI d         -10.720 -31.500  16.780  0.00  0.00     0.009 C 
ATOM      6  CI2 HRI d          -8.845 -32.103  18.399  0.00  0.00     0.009 C 
ENDBRANCH   3   4
ENDBRANCH   1   3
BRANCH   1   7
ATOM      7  CH2 HRI d          -8.147 -31.613  13.423  0.00  0.00     0.192 C 
ATOM      8  OF2 HRI d          -8.611 -31.319  12.273  0.00  0.00    -0.647 OA
ATOM      9  OF3 HRI d          -7.186 -32.414  13.538  0.00  0.00    -0.647 OA
ENDBRANCH   1   7
TORSDOF 3
