REMARK  4 active torsions:
REMARK  status: ('A' for Active; 'I' for Inactive)
REMARK    1  A    between atoms: C5B_2  and  O5G_3 
REMARK    2  A    between atoms: O5G_3  and  P1_4 
REMARK    3  A    between atoms: P1_4  and  O11_5 
REMARK    4  A    between atoms: O11_5  and  P2_8 
ROOT
ATOM      1  P1  TDP d          16.162 -63.967   2.055  0.00  0.00     0.418 P 
ATOM      2  O12 TDP d          15.439 -64.603   3.180  0.00  0.00    -0.624 OA
ATOM      3  O13 TDP d          16.349 -62.499   2.087  0.00  0.00    -0.624 OA
ENDROOT
BRANCH   1   4
ATOM      4  O5G TDP d          17.610 -64.667   1.941  0.00  0.00    -0.290 OA
BRANCH   4   5
ATOM      5  C5B TDP d          18.521 -64.229   0.926  0.00  0.00     0.177 C 
ATOM      6  C5A TDP d          19.783 -65.093   0.884  0.00  0.00     0.034 C 
ENDBRANCH   4   5
ENDBRANCH   1   4
BRANCH   1   7
ATOM      7  O11 TDP d          15.501 -64.353   0.633  0.00  0.00    -0.173 OA
BRANCH   7   8
ATOM      8  P2  TDP d          14.750 -65.749   0.342  0.00  0.00     0.431 P 
ATOM      9  O21 TDP d          13.413 -65.522  -0.255  0.00  0.00    -0.616 OA
ATOM     10  O22 TDP d          15.701 -66.610  -0.630  0.00  0.00    -0.616 OA
ATOM     11  O23 TDP d          14.681 -66.545   1.742  0.00  0.00    -0.616 OA
ENDBRANCH   7   8
ENDBRANCH   1   7
TORSDOF 4
