REMARK  7 active torsions:
REMARK  status: ('A' for Active; 'I' for Inactive)
REMARK    1  A    between atoms: C1_1  and  C20_16 
REMARK       I    between atoms: C20_16  and  N6_4 
REMARK    2  A    between atoms: N3_28  and  C8_6 
REMARK    3  A    between atoms: C11_9  and  C5_24 
REMARK    4  A    between atoms: C17_30  and  C14_12 
REMARK    5  A    between atoms: C27_20  and  N8_39 
REMARK    6  A    between atoms: N2_22  and  C23_34 
REMARK    7  A    between atoms: C17_30  and  N5_31 
ROOT
ATOM      1  C1  JNJ d          43.907  51.284  24.433  0.00  0.00     0.157 A 
ATOM      2  C2  JNJ d          43.357  50.529  23.349  0.00  0.00     0.032 A 
ATOM      3  C3  JNJ d          42.353  50.749  22.334  0.00  0.00     0.017 A 
ATOM      4  C7  JNJ d          44.037  49.288  23.387  0.00  0.00     0.111 A 
ATOM      5  N1  JNJ d          44.860  50.569  25.091  0.00  0.00    -0.160 NA
ATOM      6  N2  JNJ d          44.926  49.358  24.454  0.00  0.00    -0.229 N 
ATOM      7  C4  JNJ d          42.054  49.714  21.390  0.00  0.00     0.016 A 
ATOM      8  C5  JNJ d          42.741  48.458  21.435  0.00  0.00     0.018 A 
ATOM      9  C6  JNJ d          43.735  48.262  22.442  0.00  0.00     0.157 A 
ATOM     10  F1  JNJ d          44.379  47.083  22.489  0.00  0.00    -0.203 F 
ENDROOT
BRANCH   8  11
ATOM     11  C11 JNJ d          42.438  47.358  20.488  0.00  0.00     0.016 A 
ATOM     12  C10 JNJ d          43.308  46.963  19.414  0.00  0.00     0.129 A 
ATOM     13  C9  JNJ d          42.975  45.885  18.539  0.00  0.00     0.073 A 
ATOM     14  F2  JNJ d          44.474  47.602  19.205  0.00  0.00    -0.205 F 
ATOM     15  C8  JNJ d          41.755  45.173  18.726  0.00  0.00     0.043 A 
ATOM     16  C13 JNJ d          40.884  45.559  19.789  0.00  0.00     0.031 A 
ATOM     17  C12 JNJ d          41.219  46.627  20.650  0.00  0.00     0.018 A 
BRANCH  15  18
ATOM     18  N3  JNJ d          41.370  44.085  17.891  0.00  0.00    -0.307 N 
ATOM     19  C14 JNJ d          40.451  44.018  16.820  0.00  0.00     0.136 A 
ATOM     20  N4  JNJ d          40.406  42.785  16.331  0.00  0.00    -0.244 NA
ATOM     21  C15 JNJ d          41.278  42.046  17.063  0.00  0.00     0.136 A 
ATOM     22  C16 JNJ d          41.879  42.811  18.018  0.00  0.00     0.118 A 
BRANCH  19  23
ATOM     23  C17 JNJ d          39.625  45.190  16.298  0.00  0.00     0.312 C 
BRANCH  23  24
ATOM     24  N5  JNJ d          40.415  46.421  15.992  0.00  0.00    -0.072 N 
ATOM     25  C19 JNJ d          40.870  46.396  14.590  0.00  0.00     0.269 C 
ATOM     26  C18 JNJ d          39.607  47.630  16.205  0.00  0.00     0.269 C 
ATOM     27  H17 JNJ d          41.218  46.451  16.601  0.00  0.00     0.279 HD
ENDBRANCH  23  24
ENDBRANCH  19  23
ENDBRANCH  15  18
ENDBRANCH   8  11
BRANCH   6  28
ATOM     28  C23 JNJ d          45.753  48.308  24.997  0.00  0.00     0.060 A 
ATOM     29  C22 JNJ d          45.226  47.427  25.996  0.00  0.00     0.050 A 
ATOM     30  C21 JNJ d          46.041  46.377  26.515  0.00  0.00     0.050 A 
ATOM     31  C27 JNJ d          45.917  45.332  27.468  0.00  0.00     0.162 A 
ATOM     32  C26 JNJ d          47.348  46.234  26.027  0.00  0.00     0.115 A 
ATOM     33  N7  JNJ d          47.043  44.611  27.558  0.00  0.00    -0.109 NA
ATOM     34  O2  JNJ d          47.937  45.179  26.653  0.00  0.00    -0.211 OA
ATOM     35  C25 JNJ d          47.931  47.074  25.038  0.00  0.00     0.043 A 
ATOM     36  C24 JNJ d          47.100  48.123  24.526  0.00  0.00     0.034 A 
BRANCH  31  37
ATOM     37  N8  JNJ d          44.812  45.106  28.182  0.00  0.00    -0.381 N 
ATOM     38  H22 JNJ d          44.786  44.330  28.859  0.00  0.00     0.157 HD
ATOM     39  H23 JNJ d          43.986  45.708  28.056  0.00  0.00     0.157 HD
ENDBRANCH  31  37
ENDBRANCH   6  28
BRANCH   1  40
ATOM     40  C20 JNJ d          43.549  52.661  24.859  0.00  0.00     0.270 C 
ATOM     41  N6  JNJ d          44.249  53.118  25.943  0.00  0.00    -0.365 N 
ATOM     42  H2  JNJ d          44.074  54.035  26.300  0.00  0.00     0.159 HD
ATOM     43  H3  JNJ d          44.935  52.534  26.378  0.00  0.00     0.159 HD
ATOM     44  O1  JNJ d          42.696  53.365  24.313  0.00  0.00    -0.266 OA
ENDBRANCH   1  40
TORSDOF 7
