REMARK  5 active torsions:
REMARK  status: ('A' for Active; 'I' for Inactive)
REMARK    1  A    between atoms: C1_1  and  C7_7 
REMARK    2  A    between atoms: C7_7  and  N1_8 
REMARK    3  A    between atoms: C8_12  and  C1'_13 
REMARK    4  A    between atoms: C5'_17  and  C1''_20 
REMARK    5  A    between atoms: C6'_18  and  O6'_19 
ROOT
ATOM      1  C1  MOL d          44.257  -3.090  26.623  0.00  0.00     0.008 A 
ATOM      2  C2  MOL d          44.616  -1.699  26.614  0.00  0.00     0.017 A 
ATOM      3  C3  MOL d          44.597  -0.910  27.763  0.00  0.00     0.031 A 
ATOM      4  C4  MOL d          44.219  -1.522  28.912  0.00  0.00     0.043 A 
ATOM      5  C5  MOL d          43.876  -2.811  28.995  0.00  0.00    -0.006 A 
ATOM      6  C6  MOL d          43.874  -3.649  27.875  0.00  0.00     0.029 A 
ATOM      7  N3  MOL d          44.138  -1.027  30.093  0.00  0.00    -0.355 N 
ATOM      8  CN4 MOL d          43.563  -3.165  30.236  0.00  0.00     0.044 A 
ATOM      9  C8  MOL d          43.752  -2.010  30.846  0.00  0.00     0.046 A 
ATOM     10  H8  MOL d          44.337  -0.058  30.381  0.00  0.00     0.166 HD
ENDROOT
BRANCH   9  11
ATOM     11  C1' MOL d          43.493  -1.860  32.210  0.00  0.00     0.025 A 
ATOM     12  C2' MOL d          43.246  -2.961  33.023  0.00  0.00     0.016 A 
ATOM     13  C3' MOL d          42.984  -2.826  34.367  0.00  0.00     0.002 A 
ATOM     14  C4' MOL d          42.959  -1.575  34.936  0.00  0.00     0.015 A 
ATOM     15  C5' MOL d          43.198  -0.406  34.179  0.00  0.00     0.008 A 
ATOM     16  C6' MOL d          43.464  -0.589  32.821  0.00  0.00     0.089 A 
BRANCH  15  17
ATOM     17  C1' MOL d          43.138   0.868  34.792  0.00  0.00    -0.023 A 
ATOM     18  C2' MOL d          44.127   1.828  34.631  0.00  0.00     0.012 A 
ATOM     19  C3' MOL d          44.073   3.055  35.257  0.00  0.00     0.001 A 
ATOM     20  C4' MOL d          43.017   3.377  36.072  0.00  0.00     0.000 A 
ATOM     21  C5' MOL d          41.994   2.458  36.269  0.00  0.00     0.001 A 
ATOM     22  C6' MOL d          42.062   1.222  35.631  0.00  0.00     0.012 A 
ENDBRANCH  15  17
BRANCH  16  23
ATOM     23  O6' MOL d          43.727   0.521  32.046  0.00  0.00    -0.359 OA
ATOM     24  H13 MOL d          43.889   0.249  31.150  0.00  0.00     0.217 HD
ENDBRANCH  16  23
ENDBRANCH   9  11
BRANCH   1  25
ATOM     25  C7  MOL d          44.309  -3.833  25.428  0.00  0.00     0.102 C 
ATOM     26  N2  MOL d          44.639  -3.235  24.300  0.00  0.00    -0.385 N 
ATOM     27  H6  MOL d          44.859  -2.229  24.296  0.00  0.00     0.157 HD
ATOM     28  H7  MOL d          44.676  -3.774  23.423  0.00  0.00     0.157 HD
BRANCH  25  29
ATOM     29  N1  MOL d          44.029  -5.116  25.428  0.00  0.00    -0.385 N 
ATOM     30  H4  MOL d          44.069  -5.652  24.549  0.00  0.00     0.157 HD
ATOM     31  H5  MOL d          43.769  -5.586  26.307  0.00  0.00     0.157 HD
ENDBRANCH  25  29
ENDBRANCH   1  25
TORSDOF 5
