REMARK  22 active torsions:
REMARK  status: ('A' for Active; 'I' for Inactive)
REMARK    1  A    between atoms: C02_2  and  O03_3 
REMARK       I    between atoms: N01_11  and  C02_2 
REMARK    2  A    between atoms: O03_3  and  C04_4 
REMARK    3  A    between atoms: C04_4  and  C05_5 
REMARK    4  A    between atoms: C12_12  and  N01_11 
REMARK    5  A    between atoms: C12_12  and  C13_13 
REMARK    6  A    between atoms: C20_15  and  C12_12 
REMARK    7  A    between atoms: C13_13  and  C14_14 
REMARK    8  A    between atoms: C14_14  and  O15_16 
REMARK       I    between atoms: N22_22  and  C20_15 
REMARK    9  A    between atoms: O15_16  and  N16_17 
REMARK       I    between atoms: N16_17  and  C17_18 
REMARK       I    between atoms: C17_18  and  N18_19 
REMARK   10  A    between atoms: C23_23  and  N22_22 
REMARK   11  A    between atoms: C27_24  and  C23_23 
REMARK   12  A    between atoms: C23_23  and  C24_26 
REMARK       I    between atoms: N29_29  and  C27_24 
REMARK   13  A    between atoms: C30_30  and  N29_29 
REMARK   14  A    between atoms: C30_30  and  C31_31 
REMARK   15  A    between atoms: C35_35  and  C30_30 
REMARK   16  A    between atoms: C31_31  and  C32_32 
REMARK   17  A    between atoms: C35_35  and  O36_36 
REMARK   18  A    between atoms: C37_37  and  C35_35 
REMARK   19  A    between atoms: C38_38  and  C37_37 
REMARK       I    between atoms: N40_48  and  C38_38 
REMARK   20  A    between atoms: C42_46  and  C43_40 
REMARK   21  A    between atoms: C41_47  and  C42_46 
REMARK   22  A    between atoms: C41_47  and  N40_48 
ROOT
ATOM      1  C20 MOL d          -1.747 101.084  42.223  0.00  0.00     0.241 C 
ATOM      2  O21 MOL d          -0.972 101.329  43.148  0.00  0.00    -0.271 OA
ATOM      3  N22 MOL d          -2.764 100.187  42.437  0.00  0.00    -0.346 N 
ATOM      4  H19 MOL d          -3.414 100.009  41.699  0.00  0.00     0.163 HD
ENDROOT
BRANCH   3   5
ATOM      5  C23 MOL d          -2.928  99.485  43.704  0.00  0.00     0.180 C 
BRANCH   5   6
ATOM      6  C27 MOL d          -3.431  98.088  43.235  0.00  0.00     0.241 C 
ATOM      7  O28 MOL d          -4.625  97.880  42.990  0.00  0.00    -0.271 OA
ATOM      8  N29 MOL d          -2.512  97.082  43.055  0.00  0.00    -0.352 N 
ATOM      9  H28 MOL d          -1.547  97.247  43.259  0.00  0.00     0.163 HD
BRANCH   8  10
ATOM     10  C30 MOL d          -2.940  95.766  42.564  0.00  0.00     0.114 C 
BRANCH  10  11
ATOM     11  C31 MOL d          -2.222  95.495  41.221  0.00  0.00     0.031 C 
BRANCH  11  12
ATOM     12  C32 MOL d          -2.461  96.604  40.177  0.00  0.00    -0.021 C 
ATOM     13  C33 MOL d          -1.546  96.372  38.960  0.00  0.00     0.009 C 
ATOM     14  C34 MOL d          -3.929  96.623  39.706  0.00  0.00     0.009 C 
ENDBRANCH  11  12
ENDBRANCH  10  11
BRANCH  10  15
ATOM     15  C35 MOL d          -2.529  94.674  43.563  0.00  0.00     0.149 C 
BRANCH  15  16
ATOM     16  O36 MOL d          -1.160  94.882  43.910  0.00  0.00    -0.393 OA
ATOM     17  H40 MOL d          -0.886  94.215  44.529  0.00  0.00     0.210 HD
ENDBRANCH  15  16
BRANCH  15  18
ATOM     18  C37 MOL d          -3.425  94.712  44.814  0.00  0.00     0.136 C 
BRANCH  18  19
ATOM     19  C38 MOL d          -4.793  94.041  44.508  0.00  0.00     0.220 C 
ATOM     20  O39 MOL d          -5.797  94.728  44.307  0.00  0.00    -0.274 OA
ATOM     21  N40 MOL d          -4.874  92.661  44.475  0.00  0.00    -0.361 N 
ATOM     22  H52 MOL d          -4.048  92.120  44.635  0.00  0.00     0.162 HD
BRANCH  21  23
ATOM     23  C41 MOL d          -6.143  91.971  44.211  0.00  0.00     0.127 C 
BRANCH  23  24
ATOM     24  C42 MOL d          -6.287  90.841  45.246  0.00  0.00     0.058 C 
BRANCH  24  25
ATOM     25  C43 MOL d          -6.232  91.542  46.601  0.00  0.00    -0.057 A 
ATOM     26  C44 MOL d          -7.376  92.186  47.082  0.00  0.00     0.007 A 
ATOM     27  C45 MOL d          -7.323  92.851  48.315  0.00  0.00     0.001 A 
ATOM     28  C46 MOL d          -6.128  92.873  49.052  0.00  0.00     0.000 A 
ATOM     29  C47 MOL d          -4.982  92.234  48.562  0.00  0.00     0.001 A 
ATOM     30  C48 MOL d          -5.037  91.568  47.332  0.00  0.00     0.007 A 
ENDBRANCH  24  25
ENDBRANCH  23  24
ENDBRANCH  21  23
ENDBRANCH  18  19
ENDBRANCH  15  18
ENDBRANCH  10  15
ENDBRANCH   8  10
ENDBRANCH   5   6
BRANCH   5  31
ATOM     31  C24 MOL d          -3.945 100.149  44.634  0.00  0.00     0.009 C 
ATOM     32  C26 MOL d          -3.750  99.434  45.992  0.00  0.00     0.012 C 
ATOM     33  C25 MOL d          -3.652 101.662  44.774  0.00  0.00     0.012 C 
ENDBRANCH   5  31
ENDBRANCH   3   5
BRANCH   1  34
ATOM     34  C12 MOL d          -1.635 101.724  40.813  0.00  0.00     0.181 C 
BRANCH  34  35
ATOM     35  N01 MOL d          -0.896 102.990  40.863  0.00  0.00    -0.324 N 
ATOM     36  C02 MOL d          -1.594 104.168  40.969  0.00  0.00     0.361 C 
ATOM     37  O11 MOL d          -2.824 104.147  40.998  0.00  0.00    -0.238 OA
ATOM     38  H8  MOL d           0.103 102.995  40.821  0.00  0.00     0.165 HD
BRANCH  36  39
ATOM     39  O03 MOL d          -0.918 105.333  41.034  0.00  0.00    -0.299 OA
BRANCH  39  40
ATOM     40  C04 MOL d          -1.556 106.350  40.250  0.00  0.00     0.219 C 
BRANCH  40  41
ATOM     41  C05 MOL d          -0.700 106.694  39.048  0.00  0.00    -0.034 A 
ATOM     42  C10 MOL d           0.502 107.397  39.223  0.00  0.00     0.009 A 
ATOM     43  C09 MOL d           1.296 107.718  38.111  0.00  0.00     0.001 A 
ATOM     44  C08 MOL d           0.885 107.333  36.824  0.00  0.00     0.000 A 
ATOM     45  C07 MOL d          -0.316 106.628  36.644  0.00  0.00     0.001 A 
ATOM     46  C06 MOL d          -1.108 106.307  37.757  0.00  0.00     0.009 A 
ENDBRANCH  40  41
ENDBRANCH  39  40
ENDBRANCH  36  39
ENDBRANCH  34  35
BRANCH  34  47
ATOM     47  C13 MOL d          -0.857 100.674  40.013  0.00  0.00     0.064 C 
BRANCH  47  48
ATOM     48  C14 MOL d          -0.390 101.204  38.659  0.00  0.00     0.204 C 
BRANCH  48  49
ATOM     49  O15 MOL d          -1.547 101.532  37.905  0.00  0.00    -0.266 OA
BRANCH  49  50
ATOM     50  N16 MOL d          -2.475 100.488  37.870  0.00  0.00    -0.097 N 
ATOM     51  C17 MOL d          -2.666  99.871  36.686  0.00  0.00     0.689 C 
ATOM     52  N18 MOL d          -1.966 100.250  35.604  0.00  0.00    -0.233 N 
ATOM     53  N19 MOL d          -3.559  98.876  36.576  0.00  0.00    -0.233 N 
ATOM     54  H15 MOL d          -2.115  99.776  34.702  0.00  0.00     0.174 HD
ATOM     55  H16 MOL d          -1.280 101.015  35.676  0.00  0.00     0.174 HD
ATOM     56  H17 MOL d          -4.101  98.577  37.399  0.00  0.00     0.174 HD
ATOM     57  H18 MOL d          -3.702  98.411  35.668  0.00  0.00     0.174 HD
ATOM     58  H14 MOL d          -2.992 100.201  38.714  0.00  0.00     0.213 HD
ENDBRANCH  49  50
ENDBRANCH  48  49
ENDBRANCH  47  48
ENDBRANCH  34  47
ENDBRANCH   1  34
TORSDOF 22
