REMARK  4 active torsions:
REMARK  status: ('A' for Active; 'I' for Inactive)
REMARK    1  A    between atoms: S1_1  and  N1_4 
REMARK    2  A    between atoms: C1_9  and  S1_1 
REMARK    3  A    between atoms: S2_5  and  N2_8 
REMARK    4  A    between atoms: C3_11  and  S2_5 
ROOT
ATOM      1  C1  I7A d          -4.590   2.653  13.435  0.00  0.00     0.082 A 
ATOM      2  C2  I7A d          -4.929   1.671  14.382  0.00  0.00     0.052 A 
ATOM      3  C3  I7A d          -5.526   2.058  15.595  0.00  0.00     0.104 A 
ATOM      4  C4  I7A d          -5.782   3.421  15.860  0.00  0.00     0.079 A 
ATOM      5  C5  I7A d          -5.431   4.387  14.907  0.00  0.00     0.058 A 
ATOM      6  C6  I7A d          -4.837   4.024  13.691  0.00  0.00     0.050 A 
ATOM      7 CL1  I7A d          -6.514   3.904  17.314  0.00  0.00    -0.081 Cl
ATOM      8 CL2  I7A d          -5.734   6.046  15.232  0.00  0.00    -0.082 Cl
ENDROOT
BRANCH   1   9
ATOM      9  S1  I7A d          -3.852   2.169  11.907  0.00  0.00     0.256 S 
ATOM     10  O1  I7A d          -4.504   2.930  10.888  0.00  0.00    -0.201 OA
ATOM     11  O2  I7A d          -3.888   0.743  11.855  0.00  0.00    -0.201 OA
BRANCH   9  12
ATOM     12  N1  I7A d          -2.341   2.620  11.969  0.00  0.00    -0.324 N 
ATOM     13  H1  I7A d          -2.111   3.592  12.011  0.00  0.00     0.169 HD
ATOM     14  H2  I7A d          -1.614   1.934  11.967  0.00  0.00     0.169 HD
ENDBRANCH   9  12
ENDBRANCH   1   9
BRANCH   3  15
ATOM     15  S2  I7A d          -5.944   0.790  16.762  0.00  0.00     0.258 S 
ATOM     16  O3  I7A d          -5.242   1.114  17.971  0.00  0.00    -0.201 OA
ATOM     17  O4  I7A d          -7.369   0.769  16.772  0.00  0.00    -0.201 OA
BRANCH  15  18
ATOM     18  N2  I7A d          -5.409  -0.595  16.252  0.00  0.00    -0.324 N 
ATOM     19  H3  I7A d          -4.425  -0.755  16.181  0.00  0.00     0.169 HD
ATOM     20  H4  I7A d          -6.053  -1.317  15.998  0.00  0.00     0.169 HD
ENDBRANCH  15  18
ENDBRANCH   3  15
TORSDOF 4
