REMARK  10 active torsions:
REMARK  status: ('A' for Active; 'I' for Inactive)
REMARK    1  A    between atoms: N1_1  and  C1'_12 
REMARK    2  A    between atoms: C5_7  and  C7_9 
REMARK    3  A    between atoms: C7_9  and  C8_10 
REMARK    4  A    between atoms: C8_10  and  C9_11 
REMARK    5  A    between atoms: C9_11  and  C10_13 
REMARK    6  A    between atoms: C2'_15  and  O2'_16 
REMARK    7  A    between atoms: C3'_17  and  O3'_18 
REMARK    8  A    between atoms: C4'_19  and  O4'_20 
REMARK    9  A    between atoms: C5'_21  and  C6'_23 
REMARK   10  A    between atoms: C6'_23  and  O6'_24 
ROOT
ATOM      1  C1' D1J d          33.318  22.799  27.838  0.00  0.00     0.264 C 
ATOM      2  C2' D1J d          33.773  23.084  26.354  0.00  0.00     0.198 C 
ATOM      3  C3' D1J d          32.709  22.452  25.368  0.00  0.00     0.182 C 
ATOM      4  C4' D1J d          32.377  21.013  25.807  0.00  0.00     0.180 C 
ATOM      5  C5' D1J d          32.151  20.863  27.363  0.00  0.00     0.179 C 
ATOM      6  O5' D1J d          33.272  21.392  28.056  0.00  0.00    -0.353 OA
ENDROOT
BRANCH   1   7
ATOM      7  N1  D1J d          34.070  23.555  28.879  0.00  0.00    -0.278 N 
ATOM      8  C2  D1J d          33.347  24.425  29.775  0.00  0.00     0.331 A 
ATOM      9  O2  D1J d          32.106  24.528  29.721  0.00  0.00    -0.246 OA
ATOM     10  N3  D1J d          34.094  25.171  30.754  0.00  0.00    -0.274 N 
ATOM     11  C4  D1J d          35.507  25.042  30.835  0.00  0.00     0.269 A 
ATOM     12  H1  D1J d          33.615  25.785  31.382  0.00  0.00     0.173 HD
ATOM     13  O4  D1J d          36.111  25.682  31.698  0.00  0.00    -0.266 OA
ATOM     14  C5  D1J d          36.206  24.188  29.942  0.00  0.00     0.101 A 
ATOM     15  C6  D1J d          35.496  23.467  28.962  0.00  0.00     0.124 A 
BRANCH  14  16
ATOM     16  C7  D1J d          37.514  24.031  30.006  0.00  0.00    -0.060 C 
BRANCH  16  17
ATOM     17  C8  D1J d          38.832  23.861  30.036  0.00  0.00    -0.101 C 
BRANCH  17  18
ATOM     18  C9  D1J d          40.206  23.684  30.067  0.00  0.00     0.094 C 
BRANCH  18  19
ATOM     19  C10 D1J d          40.881  22.964  31.053  0.00  0.00     0.007 C 
ATOM     20  C11 D1J d          41.014  23.540  32.325  0.00  0.00     0.006 C 
ENDBRANCH  18  19
ENDBRANCH  17  18
ENDBRANCH  16  17
ENDBRANCH  14  16
ENDBRANCH   1   7
BRANCH   2  21
ATOM     21  O2' D1J d          33.998  24.505  26.166  0.00  0.00    -0.388 OA
ATOM     22  H12 D1J d          34.271  24.666  25.270  0.00  0.00     0.210 HD
ENDBRANCH   2  21
BRANCH   3  23
ATOM     23  O3' D1J d          33.069  22.501  23.991  0.00  0.00    -0.390 OA
ATOM     24  H14 D1J d          32.381  22.104  23.471  0.00  0.00     0.210 HD
ENDBRANCH   3  23
BRANCH   5  25
ATOM     25  C6' D1J d          32.125  19.374  27.854  0.00  0.00     0.198 C 
BRANCH  25  26
ATOM     26  O6' D1J d          33.197  18.601  27.246  0.00  0.00    -0.398 OA
ATOM     27  H20 D1J d          34.034  18.984  27.481  0.00  0.00     0.209 HD
ENDBRANCH  25  26
ENDBRANCH   5  25
BRANCH   4  28
ATOM     28  O4' D1J d          31.233  20.527  25.080  0.00  0.00    -0.390 OA
ATOM     29  H16 D1J d          31.424  20.534  24.149  0.00  0.00     0.210 HD
ENDBRANCH   4  28
TORSDOF 10
