REMARK  4 active torsions:
REMARK  status: ('A' for Active; 'I' for Inactive)
REMARK    1  A    between atoms: C03_3  and  S11_11 
REMARK    2  A    between atoms: C06_6  and  C07_7 
REMARK       I    between atoms: C07_7  and  N09_9 
REMARK    3  A    between atoms: N09_9  and  C10_10 
REMARK    4  A    between atoms: S11_11  and  NP2_12 
ROOT
ATOM      1  C07 INW d          -4.408   5.003  13.489  0.00  0.00     0.251 C 
ATOM      2  O08 INW d          -5.254   5.900  13.188  0.00  0.00    -0.268 OA
ATOM      3  N09 INW d          -3.002   5.092  13.013  0.00  0.00    -0.353 N 
ATOM      4  H5  INW d          -2.395   4.303  13.114  0.00  0.00     0.163 HD
ENDROOT
BRANCH   1   5
ATOM      5  C06 INW d          -4.905   3.816  14.350  0.00  0.00     0.032 A 
ATOM      6  C01 INW d          -3.968   2.804  14.674  0.00  0.00     0.018 A 
ATOM      7  C02 INW d          -4.327   1.672  15.436  0.00  0.00     0.026 A 
ATOM      8  C03 INW d          -5.706   1.544  15.894  0.00  0.00     0.079 A 
ATOM      9  C04 INW d          -6.627   2.537  15.588  0.00  0.00     0.026 A 
ATOM     10  C05 INW d          -6.227   3.678  14.815  0.00  0.00     0.018 A 
BRANCH   8  11
ATOM     11  S11 INW d          -6.079   0.092  16.813  0.00  0.00     0.256 S 
ATOM     12  O13 INW d          -7.459   0.368  16.998  0.00  0.00    -0.201 OA
ATOM     13  O14 INW d          -5.351   0.432  18.072  0.00  0.00    -0.201 OA
BRANCH  11  14
ATOM     14  NP2 INW d          -5.626  -1.367  16.073  0.00  0.00    -0.324 N 
ATOM     15  H8  INW d          -5.804  -2.237  16.532  0.00  0.00     0.169 HD
ATOM     16  H9  INW d          -5.181  -1.356  15.178  0.00  0.00     0.169 HD
ENDBRANCH  11  14
ENDBRANCH   8  11
ENDBRANCH   1   5
BRANCH   3  17
ATOM     17  C10 INW d          -2.506   6.293  12.411  0.00  0.00     0.164 C 
ATOM     18  C15 INW d          -1.755   7.197  13.167  0.00  0.00    -0.002 A 
ATOM     19  C16 INW d          -1.952   7.298  14.677  0.00  0.00     0.127 A 
ATOM     20  C20 INW d          -0.753   8.062  12.442  0.00  0.00     0.015 A 
ATOM     21  C17 INW d          -1.109   8.291  15.401  0.00  0.00     0.085 A 
ATOM     22  F22 INW d          -2.760   6.611  15.296  0.00  0.00    -0.205 F 
ATOM     23  C18 INW d          -0.117   9.145  14.679  0.00  0.00     0.119 A 
ATOM     24  C19 INW d           0.051   9.021  13.201  0.00  0.00     0.043 A 
ATOM     25  F21 INW d           0.568   9.959  15.307  0.00  0.00    -0.206 F 
ENDBRANCH   3  17
TORSDOF 4
