REMARK  30 active torsions:
REMARK  status: ('A' for Active; 'I' for Inactive)
REMARK       I    between atoms: C_1  and  N_4 
REMARK    1  A    between atoms: N_4  and  CA_5 
REMARK    2  A    between atoms: CA_5  and  C_6 
REMARK    3  A    between atoms: CA_5  and  CB_8 
REMARK       I    between atoms: C_6  and  N_11 
REMARK    4  A    between atoms: CB_8  and  OG1_9 
REMARK    5  A    between atoms: N_11  and  CA_12 
REMARK    6  A    between atoms: CA_12  and  C_13 
REMARK    7  A    between atoms: CA_12  and  CB_15 
REMARK       I    between atoms: C_13  and  N_19 
REMARK    8  A    between atoms: CB_15  and  CG1_16 
REMARK    9  A    between atoms: N_19  and  CA_20 
REMARK   10  A    between atoms: CA_20  and  C_21 
REMARK   11  A    between atoms: CA_20  and  CB_22 
REMARK   12  A    between atoms: C_21  and  N_26 
REMARK   13  A    between atoms: CB_22  and  CG_23 
REMARK   14  A    between atoms: CG_23  and  CD_24 
REMARK   15  A    between atoms: N_26  and  CA_27 
REMARK   16  A    between atoms: CA_27  and  C_28 
REMARK   17  A    between atoms: CA_27  and  CB_30 
REMARK       I    between atoms: C_28  and  N_34 
REMARK   18  A    between atoms: CB_30  and  CG_31 
REMARK   19  A    between atoms: CG_31  and  CD_32 
REMARK   20  A    between atoms: N_34  and  CA_35 
REMARK   21  A    between atoms: CA_35  and  C_36 
REMARK   22  A    between atoms: CA_35  and  CB_38 
REMARK       I    between atoms: C_36  and  N_43 
REMARK   23  A    between atoms: CB_38  and  CG_39 
REMARK   24  A    between atoms: CG_39  and  CD_40 
REMARK       I    between atoms: CD_40  and  NE2_42 
REMARK   25  A    between atoms: N_43  and  CA_44 
REMARK   26  A    between atoms: CA_44  and  C_45 
REMARK   27  A    between atoms: CA_44  and  CB_47 
REMARK       I    between atoms: C_45  and  N_54 
REMARK   28  A    between atoms: CB_47  and  CG_48 
REMARK   29  A    between atoms: CG_48  and  CD_49 
REMARK   30  A    between atoms: CD_49  and  NE_50 
REMARK       I    between atoms: NE_50  and  CZ_51 
REMARK       I    between atoms: CZ_51  and  NH1_52 
ROOT
ATOM      1  CA  MOL d          14.257  23.018  17.103  0.00  0.00     0.277 C 
ENDROOT
BRANCH   1   2
ATOM      2  N   MOL d          15.474  23.752  17.508  0.00  0.00    -0.060 N 
ATOM      3  H35 MOL d          16.254  23.272  17.088  0.00  0.00     0.278 HD
ATOM      4  H36 MOL d          15.398  24.677  17.115  0.00  0.00     0.278 HD
BRANCH   2   5
ATOM      5  C   MOL d          15.793  23.920  18.892  0.00  0.00     0.258 C 
BRANCH   5   6
ATOM      6  CA  MOL d          17.290  23.812  19.168  0.00  0.00     0.110 C 
BRANCH   6   7
ATOM      7  N   MOL d          18.093  24.763  18.410  0.00  0.00    -0.353 N 
ATOM      8  C   MOL d          18.762  24.461  17.358  0.00  0.00     0.241 C 
ATOM      9  O   MOL d          18.727  23.302  16.893  0.00  0.00    -0.271 OA
ATOM     10  H22 MOL d          18.124  25.710  18.730  0.00  0.00     0.163 HD
BRANCH   8  11
ATOM     11  CA  MOL d          19.629  25.518  16.732  0.00  0.00     0.180 C 
BRANCH  11  12
ATOM     12  N   MOL d          20.916  25.482  17.412  0.00  0.00    -0.346 N 
ATOM     13  C   MOL d          21.394  26.521  18.060  0.00  0.00     0.243 C 
ATOM     14  O   MOL d          20.773  27.599  18.171  0.00  0.00    -0.271 OA
ATOM     15  H11 MOL d          21.454  24.639  17.385  0.00  0.00     0.163 HD
BRANCH  13  16
ATOM     16  CA  MOL d          22.782  26.417  18.728  0.00  0.00     0.205 C 
BRANCH  16  17
ATOM     17  N   MOL d          23.334  25.101  18.741  0.00  0.00    -0.346 N 
ATOM     18  C   MOL d          23.409  24.338  19.837  0.00  0.00     0.214 C 
ATOM     19  O   MOL d          22.958  24.750  20.910  0.00  0.00    -0.274 OA
ATOM     20  CH3 MOL d          24.073  23.018  19.686  0.00  0.00     0.117 C 
ATOM     21  H4  MOL d          23.685  24.728  17.882  0.00  0.00     0.163 HD
ENDBRANCH  16  17
BRANCH  16  22
ATOM     22  CB  MOL d          23.718  27.406  18.015  0.00  0.00     0.146 C 
ATOM     23  CG2 MOL d          25.084  27.494  18.717  0.00  0.00     0.042 C 
BRANCH  22  24
ATOM     24  OG1 MOL d          23.899  26.976  16.659  0.00  0.00    -0.393 OA
ATOM     25  H7  MOL d          24.477  27.582  16.210  0.00  0.00     0.210 HD
ENDBRANCH  22  24
ENDBRANCH  16  22
ENDBRANCH  13  16
ENDBRANCH  11  12
BRANCH  11  26
ATOM     26  CB  MOL d          19.776  25.316  15.216  0.00  0.00     0.013 C 
ATOM     27  CG2 MOL d          18.471  25.501  14.511  0.00  0.00     0.012 C 
BRANCH  26  28
ATOM     28  CG1 MOL d          20.893  26.179  14.601  0.00  0.00     0.002 C 
ATOM     29  CD1 MOL d          20.656  27.673  14.674  0.00  0.00     0.005 C 
ENDBRANCH  26  28
ENDBRANCH  11  26
ENDBRANCH   8  11
ENDBRANCH   6   7
BRANCH   6  30
ATOM     30  CB  MOL d          17.591  23.984  20.661  0.00  0.00     0.027 C 
BRANCH  30  31
ATOM     31  CG  MOL d          19.051  24.006  21.053  0.00  0.00     0.002 C 
BRANCH  31  32
ATOM     32  CD  MOL d          19.775  22.731  20.708  0.00  0.00    -0.004 C 
ATOM     33  CE  MOL d          19.180  21.492  21.335  0.00  0.00     0.005 C 
ENDBRANCH  31  32
ENDBRANCH  30  31
ENDBRANCH   6  30
ENDBRANCH   5   6
ENDBRANCH   2   5
ENDBRANCH   1   2
BRANCH   1  34
ATOM     34  C   MOL d          14.274  21.600  17.598  0.00  0.00     0.249 C 
ATOM     35  O   MOL d          15.296  20.892  17.524  0.00  0.00    -0.271 OA
ATOM     36  N   MOL d          13.140  21.109  18.052  0.00  0.00    -0.346 N 
ATOM     37  H47 MOL d          12.336  21.702  18.092  0.00  0.00     0.163 HD
BRANCH  36  38
ATOM     38  CA  MOL d          13.022  19.723  18.499  0.00  0.00     0.177 C 
BRANCH  38  39
ATOM     39  C   MOL d          11.615  19.245  18.149  0.00  0.00     0.241 C 
ATOM     40  O   MOL d          10.617  19.911  18.443  0.00  0.00    -0.271 OA
ATOM     41  N   MOL d          11.537  18.024  17.661  0.00  0.00    -0.346 N 
ATOM     42  H55 MOL d          12.381  17.499  17.552  0.00  0.00     0.163 HD
BRANCH  41  43
ATOM     43  CA  MOL d          10.299  17.413  17.279  0.00  0.00     0.176 C 
BRANCH  43  44
ATOM     44  C   MOL d          10.198  16.041  17.947  0.00  0.00     0.238 C 
ATOM     45  O   MOL d          11.137  15.249  17.986  0.00  0.00    -0.271 OA
ATOM     46  N   MOL d           8.943  15.737  18.471  0.00  0.00    -0.368 N 
ATOM     47  H68 MOL d           8.790  14.859  18.925  0.00  0.00     0.159 HD
ATOM     48  H69 MOL d           8.195  16.396  18.393  0.00  0.00     0.159 HD
ENDBRANCH  43  44
BRANCH  43  49
ATOM     49  CB  MOL d          10.239  17.185  15.779  0.00  0.00     0.036 C 
BRANCH  49  50
ATOM     50  CG  MOL d          10.170  18.462  14.997  0.00  0.00     0.023 C 
BRANCH  50  51
ATOM     51  CD  MOL d          10.335  18.212  13.521  0.00  0.00     0.138 C 
BRANCH  51  52
ATOM     52  NE  MOL d           9.786  19.360  12.780  0.00  0.00    -0.227 N 
ATOM     53  CZ  MOL d           9.598  19.384  11.491  0.00  0.00     0.665 C 
ATOM     54  NH1 MOL d           9.997  18.323  10.780  0.00  0.00    -0.235 N 
ATOM     55  NH2 MOL d           9.052  20.444  10.890  0.00  0.00    -0.235 N 
ATOM     56  H64 MOL d           9.864  18.308   9.759  0.00  0.00     0.174 HD
ATOM     57  H65 MOL d          10.437  17.521  11.254  0.00  0.00     0.174 HD
ATOM     58  H66 MOL d           8.749  21.254  11.450  0.00  0.00     0.174 HD
ATOM     59  H67 MOL d           8.934  20.452   9.867  0.00  0.00     0.174 HD
ATOM     60  H63 MOL d           9.533  20.201  13.318  0.00  0.00     0.177 HD
ENDBRANCH  51  52
ENDBRANCH  50  51
ENDBRANCH  49  50
ENDBRANCH  43  49
ENDBRANCH  41  43
ENDBRANCH  38  39
BRANCH  38  61
ATOM     61  CB  MOL d          13.386  19.564  19.951  0.00  0.00     0.044 C 
BRANCH  61  62
ATOM     62  CG  MOL d          13.193  18.175  20.510  0.00  0.00     0.105 C 
BRANCH  62  63
ATOM     63  CD  MOL d          11.785  17.893  20.998  0.00  0.00     0.215 C 
ATOM     64  OE1 MOL d          11.095  18.794  21.386  0.00  0.00    -0.274 OA
ATOM     65  NE2 MOL d          11.356  16.649  20.950  0.00  0.00    -0.370 N 
ATOM     66  H53 MOL d          10.433  16.426  21.263  0.00  0.00     0.159 HD
ATOM     67  H54 MOL d          11.953  15.927  20.600  0.00  0.00     0.159 HD
ENDBRANCH  62  63
ENDBRANCH  61  62
ENDBRANCH  38  61
ENDBRANCH  36  38
ENDBRANCH   1  34
BRANCH   1  68
ATOM     68  CB  MOL d          14.196  22.942  15.596  0.00  0.00     0.043 C 
BRANCH  68  69
ATOM     69  CG  MOL d          12.943  22.434  14.947  0.00  0.00     0.002 C 
BRANCH  69  70
ATOM     70  CD  MOL d          13.102  21.010  14.443  0.00  0.00    -0.004 C 
ATOM     71  CE  MOL d          14.202  20.832  13.425  0.00  0.00     0.005 C 
ENDBRANCH  69  70
ENDBRANCH  68  69
ENDBRANCH   1  68
TORSDOF 30
