REMARK  10 active torsions:
REMARK  status: ('A' for Active; 'I' for Inactive)
REMARK    1  A    between atoms: C2_2  and  C11_11 
REMARK    2  A    between atoms: C8_8  and  C13_13 
REMARK       I    between atoms: C13_13  and  N14_14 
REMARK    3  A    between atoms: N14_14  and  C15_15 
REMARK    4  A    between atoms: C15_15  and  C17_17 
REMARK    5  A    between atoms: C17_17  and  C20_20 
REMARK    6  A    between atoms: C17_17  and  C18_18 
REMARK    7  A    between atoms: C18_18  and  O19_19 
REMARK    8  A    between atoms: C20_20  and  C28_26 
REMARK    9  A    between atoms: C24_22  and  C29_27 
REMARK   10  A    between atoms: C29_27  and  N30_28 
ROOT
ATOM      1  C15 FXV d           4.484   6.899  23.392  0.00  0.00     0.094 C 
ATOM      2  C16 FXV d           3.806   7.874  22.405  0.00  0.00     0.033 C 
ENDROOT
BRANCH   1   3
ATOM      3  N14 FXV d           5.099   5.852  22.616  0.00  0.00    -0.352 N 
ATOM      4  C13 FXV d           4.622   4.593  22.566  0.00  0.00     0.252 C 
ATOM      5  O33 FXV d           3.616   4.231  23.205  0.00  0.00    -0.268 OA
ATOM      6  H9  FXV d           5.920   6.071  22.089  0.00  0.00     0.163 HD
BRANCH   4   7
ATOM      7  C8  FXV d           5.363   3.697  21.685  0.00  0.00     0.032 A 
ATOM      8  C9  FXV d           4.693   2.519  21.194  0.00  0.00     0.018 A 
ATOM      9  C10 FXV d           5.345   1.604  20.314  0.00  0.00     0.013 A 
ATOM     10  C11 FXV d           6.695   1.825  19.882  0.00  0.00    -0.026 A 
ATOM     11  C12 FXV d           7.370   2.997  20.370  0.00  0.00     0.013 A 
ATOM     12  C7  FXV d           6.740   3.933  21.257  0.00  0.00     0.018 A 
BRANCH  10  13
ATOM     13  C2  FXV d           7.375   0.876  18.942  0.00  0.00    -0.023 A 
ATOM     14  C1  FXV d           6.643   0.247  17.881  0.00  0.00     0.032 A 
ATOM     15  C6  FXV d           7.337  -0.642  17.007  0.00  0.00     0.126 A 
ATOM     16  N1  FXV d           8.694  -0.928  17.134  0.00  0.00    -0.211 N 
ATOM     17  C4  FXV d           9.406  -0.331  18.145  0.00  0.00     0.126 A 
ATOM     18  O1  FXV d           9.287  -1.789  16.260  0.00  0.00    -0.082 OA
ATOM     19  C3  FXV d           8.780   0.574  19.064  0.00  0.00     0.032 A 
ENDBRANCH  10  13
ENDBRANCH   4   7
ENDBRANCH   1   3
BRANCH   1  20
ATOM     20  C17 FXV d           5.589   7.556  24.301  0.00  0.00     0.112 C 
BRANCH  20  21
ATOM     21  C20 FXV d           6.861   8.077  23.491  0.00  0.00     0.055 C 
BRANCH  21  22
ATOM     22  C28 FXV d           8.148   8.281  24.306  0.00  0.00    -0.056 A 
ATOM     23  C27 FXV d           9.069   9.322  23.913  0.00  0.00     0.007 A 
ATOM     24  C26 FXV d          10.287   9.557  24.645  0.00  0.00     0.002 A 
ATOM     25  C25 FXV d          10.609   8.759  25.789  0.00  0.00     0.015 A 
ATOM     26  C24 FXV d           9.717   7.699  26.228  0.00  0.00     0.007 A 
ATOM     27  C23 FXV d           8.484   7.469  25.477  0.00  0.00     0.022 A 
BRANCH  26  28
ATOM     28  C29 FXV d          10.058   6.889  27.400  0.00  0.00     0.102 C 
ATOM     29  N31 FXV d           9.074   6.275  28.081  0.00  0.00    -0.385 N 
ATOM     30  H23 FXV d           8.096   6.374  27.774  0.00  0.00     0.157 HD
ATOM     31  H24 FXV d           9.299   5.706  28.910  0.00  0.00     0.157 HD
BRANCH  28  32
ATOM     32  N30 FXV d          11.321   6.749  27.813  0.00  0.00    -0.385 N 
ATOM     33  H21 FXV d          11.531   6.173  28.641  0.00  0.00     0.157 HD
ATOM     34  H22 FXV d          12.084   7.217  27.304  0.00  0.00     0.157 HD
ENDBRANCH  28  32
ENDBRANCH  26  28
ENDBRANCH  21  22
ENDBRANCH  20  21
BRANCH  20  35
ATOM     35  C18 FXV d           4.964   8.689  25.136  0.00  0.00     0.265 C 
ATOM     36  O32 FXV d           5.390   9.791  25.172  0.00  0.00    -0.265 OA
BRANCH  35  37
ATOM     37  O19 FXV d           3.860   8.264  25.808  0.00  0.00    -0.326 OA
ATOM     38  C34 FXV d           3.095   9.132  26.648  0.00  0.00     0.213 C 
ENDBRANCH  35  37
ENDBRANCH  20  35
ENDBRANCH   1  20
TORSDOF 10
