REMARK  9 active torsions:
REMARK  status: ('A' for Active; 'I' for Inactive)
REMARK    1  A    between atoms: C1_1  and  C2_3 
REMARK    2  A    between atoms: C14_13  and  C1_1 
REMARK       I    between atoms: C2_3  and  N1_2 
REMARK    3  A    between atoms: N1_2  and  C35_26 
REMARK    4  A    between atoms: C3_5  and  C4_7 
REMARK    5  A    between atoms: C35_26  and  C3_5 
REMARK       I    between atoms: C13_12  and  N3_6 
REMARK    6  A    between atoms: C4_7  and  C5_8 
REMARK    7  A    between atoms: C35_26  and  C13_12 
REMARK    8  A    between atoms: C15_14  and  C14_13 
REMARK    9  A    between atoms: C19_18  and  C30_24 
ROOT
ATOM      1  N1  E1S d          -4.128   9.125 -15.549  0.00  0.00    -0.348 N 
ATOM      2  C2  E1S d          -4.781   9.196 -14.237  0.00  0.00     0.218 C 
ATOM      3  O2  E1S d          -5.236   8.193 -13.743  0.00  0.00    -0.274 OA
ATOM      4  H3  E1S d          -3.793   9.973 -15.959  0.00  0.00     0.163 HD
ENDROOT
BRANCH   2   5
ATOM      5  C1  E1S d          -4.963  10.539 -13.563  0.00  0.00     0.107 C 
BRANCH   5   6
ATOM      6  C14 E1S d          -6.428  10.979 -13.775  0.00  0.00     0.047 C 
BRANCH   6   7
ATOM      7  C15 E1S d          -6.682  12.359 -13.212  0.00  0.00    -0.058 A 
ATOM      8  C16 E1S d          -7.583  12.512 -12.172  0.00  0.00     0.008 A 
ATOM      9  C17 E1S d          -7.788  13.887 -11.595  0.00  0.00     0.013 A 
ATOM     10  C30 E1S d          -7.104  14.965 -12.141  0.00  0.00    -0.019 A 
ATOM     11  C31 E1S d          -6.128  14.769 -13.210  0.00  0.00     0.013 A 
ATOM     12  C18 E1S d          -5.929  13.526 -13.752  0.00  0.00     0.008 A 
BRANCH  10  13
ATOM     13  C19 E1S d          -7.326  16.349 -11.567  0.00  0.00     0.015 A 
ATOM     14  C20 E1S d          -6.995  17.608 -12.155  0.00  0.00     0.021 A 
ATOM     15  C21 E1S d          -7.389  18.711 -11.301  0.00  0.00     0.015 A 
ATOM     16  C27 E1S d          -8.007  18.260 -10.139  0.00  0.00    -0.021 A 
ATOM     17  S23 E1S d          -8.123  16.542 -10.018  0.00  0.00    -0.095 SA
ATOM     18  C24 E1S d          -8.515  19.111  -8.991  0.00  0.00     0.056 C 
ENDBRANCH  10  13
ENDBRANCH   6   7
ENDBRANCH   5   6
ENDBRANCH   2   5
BRANCH   1  19
ATOM     19  C35 E1S d          -3.942   7.876 -16.289  0.00  0.00     0.176 C 
BRANCH  19  20
ATOM     20  C3  E1S d          -4.524   8.024 -17.702  0.00  0.00     0.045 C 
BRANCH  20  21
ATOM     21  C4  E1S d          -6.028   8.153 -17.578  0.00  0.00     0.116 C 
BRANCH  21  22
ATOM     22  C5  E1S d          -6.577   9.534 -17.666  0.00  0.00     0.172 C 
ATOM     23  O6  E1S d          -7.741   9.786 -17.219  0.00  0.00    -0.648 OA
ATOM     24  O7  E1S d          -5.898  10.481 -18.177  0.00  0.00    -0.648 OA
ENDBRANCH  21  22
ENDBRANCH  20  21
ENDBRANCH  19  20
BRANCH  19  25
ATOM     25  C13 E1S d          -2.451   7.570 -16.299  0.00  0.00     0.238 C 
ATOM     26  N3  E1S d          -1.697   7.781 -15.252  0.00  0.00    -0.368 N 
ATOM     27  H6  E1S d          -2.099   8.142 -14.411  0.00  0.00     0.159 HD
ATOM     28  H7  E1S d          -0.718   7.582 -15.293  0.00  0.00     0.159 HD
ATOM     29  O5  E1S d          -1.921   7.133 -17.295  0.00  0.00    -0.271 OA
ENDBRANCH  19  25
ENDBRANCH   1  19
TORSDOF 9
