REMARK  11 active torsions:
REMARK  status: ('A' for Active; 'I' for Inactive)
REMARK    1  A    between atoms: C1_1  and  C2_5 
REMARK    2  A    between atoms: O3_8  and  C1_1 
REMARK    3  A    between atoms: S1_4  and  N1_2 
REMARK    4  A    between atoms: S1_4  and  O3_8 
REMARK    5  A    between atoms: C2_5  and  C3_7 
REMARK    6  A    between atoms: C3_7  and  C4_9 
REMARK    7  A    between atoms: C4_9  and  C5_10 
REMARK    8  A    between atoms: C5_10  and  C6_11 
REMARK    9  A    between atoms: C6_11  and  C7_12 
REMARK   10  A    between atoms: C7_12  and  C8_13 
REMARK   11  A    between atoms: C8_13  and  C9_14 
ROOT
ATOM      1  C2  O48 d          -5.478   2.997  13.915  0.00  0.00     0.028 C 
ENDROOT
BRANCH   1   2
ATOM      2  C1  O48 d          -4.668   1.902  14.586  0.00  0.00     0.192 C 
BRANCH   2   3
ATOM      3  O3  O48 d          -4.887   1.995  16.029  0.00  0.00    -0.260 OA
BRANCH   3   4
ATOM      4  S1  O48 d          -5.802   0.937  16.763  0.00  0.00     0.355 S 
ATOM      5  O1  O48 d          -7.144   1.223  16.402  0.00  0.00    -0.176 OA
ATOM      6  O2  O48 d          -5.429   1.041  18.129  0.00  0.00    -0.176 OA
BRANCH   4   7
ATOM      7  N1  O48 d          -5.398  -0.497  16.245  0.00  0.00    -0.306 N 
ATOM      8  H3  O48 d          -5.869  -1.306  16.596  0.00  0.00     0.171 HD
ATOM      9  H4  O48 d          -4.671  -0.597  15.566  0.00  0.00     0.171 HD
ENDBRANCH   4   7
ENDBRANCH   3   4
ENDBRANCH   2   3
ENDBRANCH   1   2
BRANCH   1  10
ATOM     10  C3  O48 d          -5.130   4.416  14.347  0.00  0.00     0.002 C 
BRANCH  10  11
ATOM     11  C4  O48 d          -3.839   4.964  13.783  0.00  0.00     0.000 C 
BRANCH  11  12
ATOM     12  C5  O48 d          -3.537   6.360  14.265  0.00  0.00     0.000 C 
BRANCH  12  13
ATOM     13  C6  O48 d          -2.224   6.906  13.789  0.00  0.00     0.000 C 
BRANCH  13  14
ATOM     14  C7  O48 d          -1.907   8.276  14.335  0.00  0.00     0.000 C 
BRANCH  14  15
ATOM     15  C8  O48 d          -0.501   8.721  14.040  0.00  0.00    -0.000 C 
BRANCH  15  16
ATOM     16  C9  O48 d          -0.268  10.204  14.197  0.00  0.00    -0.005 C 
ATOM     17  C10 O48 d           0.165  10.627  15.567  0.00  0.00     0.005 C 
ENDBRANCH  15  16
ENDBRANCH  14  15
ENDBRANCH  13  14
ENDBRANCH  12  13
ENDBRANCH  11  12
ENDBRANCH  10  11
ENDBRANCH   1  10
TORSDOF 11
