REMARK  9 active torsions:
REMARK  status: ('A' for Active; 'I' for Inactive)
REMARK    1  A    between atoms: C3'_6  and  O3'_5 
REMARK    2  A    between atoms: C4'_7  and  C5'_8 
REMARK    3  A    between atoms: C5'_8  and  S5'_9 
REMARK    4  A    between atoms: S5'_9  and  C20_10 
REMARK    5  A    between atoms: C20_10  and  C21_11 
REMARK    6  A    between atoms: C21_11  and  C22_12 
REMARK    7  A    between atoms: C10_17  and  N1'_15 
REMARK    8  A    between atoms: C10_17  and  C9_22 
REMARK    9  A    between atoms: C6_19  and  N6_20 
ROOT
ATOM      1  C3' BIG d          -1.219   1.114   7.158  0.00  0.00     0.150 C 
ATOM      2  C4' BIG d          -2.117   1.510   5.992  0.00  0.00     0.051 C 
ATOM      3  C1' BIG d          -3.459   0.879   6.322  0.00  0.00     0.243 C 
ATOM      4  N1' BIG d          -3.255   0.114   7.571  0.00  0.00    -0.064 N 
ATOM      5  C2' BIG d          -1.825  -0.155   7.709  0.00  0.00     0.267 C 
ATOM      6  H19 BIG d          -3.564   0.688   8.340  0.00  0.00     0.280 HD
ENDROOT
BRANCH   4   7
ATOM      7  C10 BIG d          -3.975  -1.176   7.647  0.00  0.00     0.277 C 
BRANCH   7   8
ATOM      8  C9  BIG d          -4.176  -1.981   6.396  0.00  0.00     0.014 A 
ATOM      9  C4  BIG d          -3.235  -2.914   5.756  0.00  0.00     0.098 A 
ATOM     10  C5  BIG d          -3.934  -3.464   4.593  0.00  0.00     0.107 A 
ATOM     11  N3  BIG d          -1.962  -3.258   6.082  0.00  0.00    -0.239 NA
ATOM     12  N7  BIG d          -5.158  -2.903   4.555  0.00  0.00    -0.360 N 
ATOM     13  C6  BIG d          -3.159  -4.431   3.790  0.00  0.00     0.151 A 
ATOM     14  C8  BIG d          -5.326  -2.046   5.613  0.00  0.00     0.099 A 
ATOM     15  H24 BIG d          -5.868  -3.091   3.833  0.00  0.00     0.165 HD
ATOM     16  N1  BIG d          -1.892  -4.695   4.204  0.00  0.00    -0.223 NA
ATOM     17  C2  BIG d          -1.321  -4.128   5.295  0.00  0.00     0.236 A 
BRANCH  13  18
ATOM     18  N6  BIG d          -3.684  -5.023   2.689  0.00  0.00    -0.382 N 
ATOM     19  H25 BIG d          -3.121  -5.694   2.147  0.00  0.00     0.157 HD
ATOM     20  H26 BIG d          -4.646  -4.802   2.394  0.00  0.00     0.157 HD
ENDBRANCH  13  18
ENDBRANCH   7   8
ENDBRANCH   4   7
BRANCH   2  21
ATOM     21  C5' BIG d          -1.644   0.896   4.676  0.00  0.00     0.082 C 
BRANCH  21  22
ATOM     22  S5' BIG d          -0.393   1.862   3.883  0.00  0.00    -0.169 SA
BRANCH  22  23
ATOM     23  C20 BIG d          -1.338   3.108   3.054  0.00  0.00     0.073 C 
BRANCH  23  24
ATOM     24  C21 BIG d          -0.402   4.151   2.453  0.00  0.00     0.010 C 
BRANCH  24  25
ATOM     25  C22 BIG d          -1.135   5.457   2.161  0.00  0.00    -0.004 C 
ATOM     26  C23 BIG d          -0.977   5.826   0.704  0.00  0.00     0.005 C 
ENDBRANCH  24  25
ENDBRANCH  23  24
ENDBRANCH  22  23
ENDBRANCH  21  22
ENDBRANCH   2  21
BRANCH   1  27
ATOM     27  O3' BIG d          -1.263   2.082   8.214  0.00  0.00    -0.393 OA
ATOM     28  H3  BIG d          -0.693   1.803   8.921  0.00  0.00     0.210 HD
ENDBRANCH   1  27
TORSDOF 9
