REMARK  2 active torsions:
REMARK  status: ('A' for Active; 'I' for Inactive)
REMARK    1  A    between atoms: C15_17  and  O3_22 
REMARK    2  A    between atoms: C18_21  and  O4_23 
ROOT
ATOM      1  C1  BER d           2.615  14.504 -34.361  0.00  0.00     0.026 A 
ATOM      2  C2  BER d           2.637  13.185 -34.919  0.00  0.00     0.000 A 
ATOM      3  N1  BER d           1.543  15.262 -34.503  0.00  0.00    -0.358 N 
ATOM      4  C3  BER d           3.878  14.857 -33.697  0.00  0.00     0.092 C 
ATOM      5  C4  BER d           1.427  12.734 -35.594  0.00  0.00    -0.020 A 
ATOM      6  C5  BER d           3.767  12.433 -34.797  0.00  0.00     0.054 A 
ATOM      7  C6  BER d           1.479  16.481 -33.978  0.00  0.00     0.140 C 
ATOM      8  C7  BER d           0.445  14.842 -35.122  0.00  0.00     0.092 A 
ATOM      9  C8  BER d           3.756  16.143 -33.008  0.00  0.00    -0.066 C 
ATOM     10  C9  BER d           1.370  11.491 -36.143  0.00  0.00     0.052 A 
ATOM     11  C10 BER d           0.360  13.593 -35.676  0.00  0.00     0.029 A 
ATOM     12  C11 BER d           3.667  11.210 -35.358  0.00  0.00     0.105 A 
ATOM     13  C12 BER d           2.666  17.092 -33.326  0.00  0.00     0.069 C 
ATOM     14  C13 BER d           4.686  16.483 -32.148  0.00  0.00     0.006 C 
ATOM     15  C14 BER d           2.493  10.741 -36.026  0.00  0.00     0.105 A 
ATOM     16  O1  BER d           4.559  10.243 -35.390  0.00  0.00    -0.323 OA
ATOM     17  C15 BER d           2.203  17.842 -32.120  0.00  0.00     0.187 C 
ATOM     18  C16 BER d           4.568  17.761 -31.482  0.00  0.00     0.035 C 
ATOM     19  O2  BER d           2.708   9.502 -36.467  0.00  0.00    -0.323 OA
ATOM     20  C17 BER d           3.993   9.113 -36.033  0.00  0.00     0.352 A 
ATOM     21  C18 BER d           3.411  18.409 -31.488  0.00  0.00     0.075 C 
ENDROOT
BRANCH  17  22
ATOM     22  O3  BER d           1.447  18.904 -32.650  0.00  0.00    -0.383 OA
ATOM     23  C19 BER d           1.257  19.972 -31.765  0.00  0.00     0.202 C 
ENDBRANCH  17  22
BRANCH  21  24
ATOM     24  O4  BER d           3.350  19.689 -30.863  0.00  0.00    -0.358 OA
ATOM     25  C20 BER d           4.490  19.996 -30.120  0.00  0.00     0.209 C 
ENDBRANCH  21  24
TORSDOF 2
