REMARK  5 active torsions:
REMARK  status: ('A' for Active; 'I' for Inactive)
REMARK    1  A    between atoms: P_1  and  O1_5 
REMARK    2  A    between atoms: O1_5  and  C1_6 
REMARK    3  A    between atoms: C1_6  and  C2_7 
REMARK    4  A    between atoms: C2_7  and  C3_9 
REMARK    5  A    between atoms: C3_9  and  O3_10 
ROOT
ATOM      1  C1  MOL d         -43.060   1.888   5.578  0.00  0.00     0.263 C 
ENDROOT
BRANCH   1   2
ATOM      2  O1  MOL d         -42.899   2.819   4.480  0.00  0.00    -0.275 OA
BRANCH   2   3
ATOM      3  P   MOL d         -43.044   4.402   4.776  0.00  0.00     0.422 P 
ATOM      4  O1P MOL d         -44.453   4.563   5.316  0.00  0.00    -0.617 OA
ATOM      5  O2P MOL d         -41.909   4.688   5.758  0.00  0.00    -0.617 OA
ATOM      6  O3P MOL d         -42.864   5.066   3.420  0.00  0.00    -0.617 OA
ENDBRANCH   2   3
ENDBRANCH   1   2
BRANCH   1   7
ATOM      7  C2  MOL d         -42.332   0.584   5.360  0.00  0.00     0.174 C 
ATOM      8  O2  MOL d         -41.534   0.455   4.439  0.00  0.00    -0.293 OA
BRANCH   7   9
ATOM      9  C3  MOL d         -42.600  -0.574   6.297  0.00  0.00     0.244 C 
BRANCH   9  10
ATOM     10  O3  MOL d         -42.042  -1.795   5.766  0.00  0.00    -0.394 OA
ATOM     11  H5  MOL d         -41.103  -1.694   5.661  0.00  0.00     0.209 HD
ENDBRANCH   9  10
ENDBRANCH   7   9
ENDBRANCH   1   7
TORSDOF 5
