REMARK  14 active torsions:
REMARK  status: ('A' for Active; 'I' for Inactive)
REMARK    1  A    between atoms: C2_2  and  N1_1 
REMARK    2  A    between atoms: S8_8  and  C5_5 
REMARK    3  A    between atoms: N11_11  and  S8_8 
REMARK    4  A    between atoms: N11_11  and  C12_12 
REMARK    5  A    between atoms: C16_16  and  N11_11 
REMARK    6  A    between atoms: C12_12  and  C13_13 
REMARK    7  A    between atoms: C17_17  and  C16_16 
REMARK    8  A    between atoms: C17_17  and  O18_18 
REMARK    9  A    between atoms: C19_19  and  C17_17 
REMARK   10  A    between atoms: C19_19  and  N20_20 
REMARK   11  A    between atoms: C32_32  and  C19_19 
REMARK       I    between atoms: N20_20  and  C21_21 
REMARK   12  A    between atoms: C21_21  and  O23_23 
REMARK   13  A    between atoms: O23_23  and  C24_24 
REMARK   14  A    between atoms: C38_38  and  C32_32 
ROOT
ATOM      1  C17 MOL d          15.688  23.974  18.397  0.00  0.00     0.160 C 
ENDROOT
BRANCH   1   2
ATOM      2  C16 MOL d          14.733  22.800  18.847  0.00  0.00     0.169 C 
BRANCH   2   3
ATOM      3  N11 MOL d          14.973  21.662  17.878  0.00  0.00    -0.304 N 
BRANCH   3   4
ATOM      4  S8  MOL d          15.749  20.265  18.624  0.00  0.00     0.260 S 
ATOM      5  O9  MOL d          16.786  20.757  19.627  0.00  0.00    -0.200 OA
ATOM      6  O10 MOL d          16.263  19.417  17.436  0.00  0.00    -0.200 OA
BRANCH   4   7
ATOM      7  C5  MOL d          14.540  19.225  19.517  0.00  0.00     0.079 C 
ATOM      8  C4  MOL d          14.342  19.498  20.877  0.00  0.00     0.027 C 
ATOM      9  C3  MOL d          13.316  18.832  21.543  0.00  0.00     0.030 C 
ATOM     10  C2  MOL d          12.443  18.007  20.838  0.00  0.00     0.025 C 
ATOM     11  C7  MOL d          12.582  17.836  19.438  0.00  0.00     0.030 C 
ATOM     12  C6  MOL d          13.635  18.483  18.740  0.00  0.00     0.027 C 
BRANCH  10  13
ATOM     13  N1  MOL d          11.393  17.408  21.482  0.00  0.00    -0.399 N 
ATOM     14  H1  MOL d          11.279  17.523  22.499  0.00  0.00     0.156 HD
ATOM     15  H2  MOL d          10.717  16.842  20.949  0.00  0.00     0.156 HD
ENDBRANCH  10  13
ENDBRANCH   4   7
ENDBRANCH   3   4
BRANCH   3  16
ATOM     16  C12 MOL d          13.933  21.362  16.846  0.00  0.00     0.139 C 
BRANCH  16  17
ATOM     17  C13 MOL d          13.956  22.427  15.736  0.00  0.00    -0.004 C 
ATOM     18  C14 MOL d          15.294  22.462  15.041  0.00  0.00     0.011 C 
ATOM     19  C15 MOL d          12.808  22.216  14.776  0.00  0.00     0.011 C 
ENDBRANCH  16  17
ENDBRANCH   3  16
ENDBRANCH   2   3
ENDBRANCH   1   2
BRANCH   1  20
ATOM     20  O18 MOL d          15.177  25.108  19.074  0.00  0.00    -0.392 OA
ATOM     21  H19 MOL d          15.702  25.869  18.855  0.00  0.00     0.210 HD
ENDBRANCH   1  20
BRANCH   1  22
ATOM     22  C19 MOL d          17.202  23.805  18.700  0.00  0.00     0.121 C 
BRANCH  22  23
ATOM     23  N20 MOL d          17.917  24.921  18.112  0.00  0.00    -0.329 N 
ATOM     24  C21 MOL d          18.657  24.706  16.998  0.00  0.00     0.361 C 
ATOM     25  O22 MOL d          18.876  23.618  16.379  0.00  0.00    -0.238 OA
ATOM     26  H21 MOL d          17.865  25.832  18.521  0.00  0.00     0.165 HD
BRANCH  24  27
ATOM     27  O23 MOL d          19.182  25.929  16.551  0.00  0.00    -0.296 OA
BRANCH  27  28
ATOM     28  C24 MOL d          20.289  25.887  15.589  0.00  0.00     0.166 C 
ATOM     29  C25 MOL d          20.199  27.173  14.764  0.00  0.00     0.204 C 
ATOM     30  O26 MOL d          20.712  28.225  15.615  0.00  0.00    -0.358 OA
ATOM     31  C27 MOL d          21.662  27.563  16.455  0.00  0.00     0.266 C 
ATOM     32  O28 MOL d          21.509  27.989  17.805  0.00  0.00    -0.361 OA
ATOM     33  C31 MOL d          21.613  26.103  16.341  0.00  0.00     0.075 C 
ATOM     34  C29 MOL d          21.225  26.788  18.554  0.00  0.00     0.171 C 
ATOM     35  C30 MOL d          21.809  25.606  17.737  0.00  0.00     0.038 C 
ENDBRANCH  27  28
ENDBRANCH  24  27
ENDBRANCH  22  23
BRANCH  22  36
ATOM     36  C32 MOL d          17.585  23.737  20.208  0.00  0.00     0.066 C 
BRANCH  36  37
ATOM     37  C38 MOL d          19.081  23.535  20.425  0.00  0.00    -0.056 A 
ATOM     38  C33 MOL d          19.857  24.586  20.911  0.00  0.00     0.007 A 
ATOM     39  C34 MOL d          21.234  24.373  21.057  0.00  0.00     0.001 A 
ATOM     40  C35 MOL d          21.830  23.171  20.682  0.00  0.00     0.000 A 
ATOM     41  C36 MOL d          21.034  22.142  20.167  0.00  0.00     0.001 A 
ATOM     42  C37 MOL d          19.668  22.330  19.999  0.00  0.00     0.007 A 
ENDBRANCH  36  37
ENDBRANCH  22  36
ENDBRANCH   1  22
TORSDOF 14
