REMARK  2 active torsions:
REMARK  status: ('A' for Active; 'I' for Inactive)
REMARK    1  A    between atoms: C2_2  and  CAE_8 
REMARK    2  A    between atoms: C4_4  and  NAQ_17 
ROOT
ATOM      1  N1  36I d           7.410  -3.050  33.822  0.00  0.00    -0.227 NA
ATOM      2  C2  36I d           8.442  -2.167  33.706  0.00  0.00     0.162 A 
ATOM      3  N3  36I d           8.267  -0.946  34.141  0.00  0.00    -0.210 NA
ATOM      4  C4  36I d           7.073  -0.603  34.655  0.00  0.00     0.147 A 
ATOM      5  C5  36I d           6.057  -1.410  34.773  0.00  0.00     0.079 A 
ATOM      6  C6  36I d           6.191  -2.680  34.365  0.00  0.00     0.080 A 
ATOM      7  CAA 36I d           5.037  -3.387  34.552  0.00  0.00     0.040 A 
ATOM      8  CAH 36I d           4.002  -2.706  35.093  0.00  0.00     0.053 A 
ATOM      9  SAI 36I d           4.519  -1.058  35.420  0.00  0.00    -0.096 SA
ENDROOT
BRANCH   2  10
ATOM     10  CAE 36I d           9.723  -2.448  33.194  0.00  0.00     0.012 A 
ATOM     11  CAF 36I d          10.769  -1.521  33.274  0.00  0.00     0.015 A 
ATOM     12  CAG 36I d          12.060  -1.881  32.825  0.00  0.00     0.001 A 
ATOM     13  CAO 36I d          12.225  -3.159  32.284  0.00  0.00     0.000 A 
ATOM     14  CAN 36I d          11.191  -4.071  32.285  0.00  0.00     0.001 A 
ATOM     15  CAM 36I d           9.961  -3.700  32.736  0.00  0.00     0.015 A 
ENDBRANCH   2  10
BRANCH   4  16
ATOM     16  NAQ 36I d           6.871   0.615  35.057  0.00  0.00    -0.361 N 
ATOM     17  CAP 36I d           5.490   1.112  35.186  0.00  0.00     0.151 C 
ATOM     18  CAS 36I d           5.427   2.230  36.087  0.00  0.00     0.187 C 
ATOM     19  OAT 36I d           6.423   3.085  35.601  0.00  0.00    -0.388 OA
ATOM     20  CAU 36I d           7.594   2.463  36.044  0.00  0.00     0.187 C 
ATOM     21  CAR 36I d           8.026   1.468  35.140  0.00  0.00     0.151 C 
ENDBRANCH   4  16
TORSDOF 2
