REMARK  10 active torsions:
REMARK  status: ('A' for Active; 'I' for Inactive)
REMARK    1  A    between atoms: C6_6  and  N6_7 
REMARK    2  A    between atoms: CBB_29  and  N9_10 
REMARK    3  A    between atoms: CAY_26  and  OAC_12 
REMARK    4  A    between atoms: CAZ_27  and  OAD_13 
REMARK    5  A    between atoms: SAR_22  and  CAL_19 
REMARK    6  A    between atoms: CAL_19  and  CAT_24 
REMARK    7  A    between atoms: CAM_20  and  SAS_23 
REMARK    8  A    between atoms: CBA_28  and  CAM_20 
REMARK    9  A    between atoms: SAS_23  and  SAR_22 
REMARK   10  A    between atoms: CAV_25  and  NBD_30 
ROOT
ATOM      1  OAQ A6D d          13.552  10.867   0.693  0.00  0.00    -0.355 OA
ATOM      2  CAY A6D d          13.698   8.813   1.937  0.00  0.00     0.180 C 
ATOM      3  CAZ A6D d          14.423   8.694   0.606  0.00  0.00     0.198 C 
ATOM      4  CBA A6D d          13.623  10.344   2.075  0.00  0.00     0.165 C 
ATOM      5  CBB A6D d          13.616   9.718  -0.205  0.00  0.00     0.262 C 
ENDROOT
BRANCH   4   6
ATOM      6  CAM A6D d          14.904  10.897   2.767  0.00  0.00     0.120 C 
BRANCH   6   7
ATOM      7  SAS A6D d          14.752  11.028   4.588  0.00  0.00    -0.095 SA
BRANCH   7   8
ATOM      8  SAR A6D d          13.293   9.678   5.076  0.00  0.00    -0.093 SA
BRANCH   8   9
ATOM      9  CAL A6D d          14.127   8.269   5.843  0.00  0.00     0.124 C 
BRANCH   9  10
ATOM     10  CAT A6D d          14.618   8.721   7.191  0.00  0.00    -0.046 A 
ATOM     11  CAG A6D d          15.798   8.181   7.662  0.00  0.00     0.008 A 
ATOM     12  CAF A6D d          16.232   8.621   8.900  0.00  0.00     0.003 A 
ATOM     13  CAH A6D d          15.543   9.572   9.653  0.00  0.00     0.036 A 
ATOM     14  CAV A6D d          14.371  10.108   9.164  0.00  0.00     0.103 A 
ATOM     15  CAK A6D d          13.908   9.681   7.921  0.00  0.00     0.043 A 
BRANCH  14  16
ATOM     16  NBD A6D d          13.714  11.011   9.896  0.00  0.00    -0.116 N 
ATOM     17  OAB A6D d          12.366  11.307   9.593  0.00  0.00    -0.532 OA
ATOM     18  OAE A6D d          14.348  11.669  10.975  0.00  0.00    -0.532 OA
ENDBRANCH  14  16
ENDBRANCH   9  10
ENDBRANCH   8   9
ENDBRANCH   7   8
ENDBRANCH   6   7
ENDBRANCH   4   6
BRANCH   2  19
ATOM     19  OAC A6D d          12.378   8.268   1.809  0.00  0.00    -0.390 OA
ATOM     20  H5  A6D d          12.437   7.353   1.559  0.00  0.00     0.210 HD
ENDBRANCH   2  19
BRANCH   5  21
ATOM     21  N9  A6D d          14.369  10.006  -1.426  0.00  0.00    -0.294 N 
ATOM     22  C4  A6D d          13.950   9.810  -2.676  0.00  0.00     0.167 A 
ATOM     23  N3  A6D d          12.801   9.345  -3.212  0.00  0.00    -0.222 NA
ATOM     24  C5  A6D d          14.989  10.195  -3.511  0.00  0.00     0.149 A 
ATOM     25  C2  A6D d          12.652   9.261  -4.534  0.00  0.00     0.237 A 
ATOM     26  N1  A6D d          13.631   9.627  -5.363  0.00  0.00    -0.222 NA
ATOM     27  C6  A6D d          14.811  10.089  -4.888  0.00  0.00     0.155 A 
ATOM     28  N7  A6D d          15.990  10.601  -2.738  0.00  0.00    -0.236 NA
ATOM     29  C8  A6D d          15.604  10.484  -1.469  0.00  0.00     0.214 A 
BRANCH  27  30
ATOM     30  N6  A6D d          15.793  10.442  -5.717  0.00  0.00    -0.382 N 
ATOM     31  H2  A6D d          16.685  10.792  -5.339  0.00  0.00     0.157 HD
ATOM     32  H3  A6D d          15.660  10.365  -6.736  0.00  0.00     0.157 HD
ENDBRANCH  27  30
ENDBRANCH   5  21
BRANCH   3  33
ATOM     33  OAD A6D d          14.336   7.364   0.059  0.00  0.00    -0.388 OA
ATOM     34  H6  A6D d          13.424   7.139  -0.079  0.00  0.00     0.210 HD
ENDBRANCH   3  33
TORSDOF 10
