REMARK  6 active torsions:
REMARK  status: ('A' for Active; 'I' for Inactive)
REMARK    1  A    between atoms: C17_5  and  O2_38 
REMARK    2  A    between atoms: C13_7  and  O9_29 
REMARK    3  A    between atoms: C8_12  and  C1_16 
REMARK    4  A    between atoms: C5_18  and  O5_26 
REMARK    5  A    between atoms: C4_19  and  O4_24 
REMARK    6  A    between atoms: C3_20  and  O3_22 
ROOT
ATOM      1  C26 1YK d         -13.801 -46.080  29.229  0.00  0.00     0.050 C 
ATOM      2  C14 1YK d         -13.506 -44.654  29.666  0.00  0.00     0.097 C 
ATOM      3  C15 1YK d         -13.285 -44.588  31.197  0.00  0.00     0.044 C 
ATOM      4  C16 1YK d         -11.873 -45.080  31.505  0.00  0.00     0.043 C 
ATOM      5  C17 1YK d         -10.819 -44.229  30.848  0.00  0.00     0.086 C 
ATOM      6  C18 1YK d         -10.942 -44.338  29.332  0.00  0.00     0.087 C 
ATOM      7  C13 1YK d         -12.372 -43.931  28.907  0.00  0.00     0.110 C 
ATOM      8  C12 1YK d         -12.593 -44.129  27.412  0.00  0.00     0.090 C 
ATOM      9  C11 1YK d         -14.022 -43.729  27.107  0.00  0.00     0.054 A 
ATOM     10  C10 1YK d         -14.939 -43.700  28.064  0.00  0.00     0.085 A 
ATOM     11  C9  1YK d         -16.370 -43.301  27.775  0.00  0.00     0.075 A 
ATOM     12  C8  1YK d         -16.706 -43.017  26.486  0.00  0.00     0.092 A 
ATOM     13  O6  1YK d         -15.750 -43.087  25.460  0.00  0.00    -0.274 OA
ATOM     14  C7  1YK d         -14.429 -43.415  25.724  0.00  0.00     0.297 A 
ATOM     15  O7  1YK d         -13.641 -43.436  24.804  0.00  0.00    -0.259 OA
ATOM     16  O8  1YK d         -14.685 -43.979  29.408  0.00  0.00    -0.337 OA
ATOM     17  C19 1YK d          -9.886 -43.418  28.762  0.00  0.00     0.163 C 
ATOM     18  O1  1YK d         -10.092 -42.668  27.830  0.00  0.00    -0.292 OA
ATOM     19  C20 1YK d          -8.526 -43.408  29.344  0.00  0.00     0.048 C 
ATOM     20  C21 1YK d          -8.296 -43.945  30.566  0.00  0.00    -0.011 C 
ATOM     21  C22 1YK d          -9.410 -44.590  31.426  0.00  0.00     0.003 C 
ATOM     22  C24 1YK d          -9.292 -44.023  32.826  0.00  0.00     0.022 C 
ATOM     23  C23 1YK d          -9.132 -46.081  31.606  0.00  0.00     0.022 C 
ATOM     24  C25 1YK d         -10.595 -45.696  28.746  0.00  0.00     0.030 C 
ENDROOT
BRANCH  12  25
ATOM     25  C1  1YK d         -18.065 -42.603  26.012  0.00  0.00     0.003 A 
ATOM     26  C6  1YK d         -19.307 -42.440  26.776  0.00  0.00     0.054 A 
ATOM     27  C5  1YK d         -20.445 -42.040  26.100  0.00  0.00     0.105 A 
ATOM     28  C4  1YK d         -20.505 -41.780  24.836  0.00  0.00     0.135 A 
ATOM     29  C3  1YK d         -19.459 -41.910  24.067  0.00  0.00     0.105 A 
ATOM     30  C2  1YK d         -18.244 -42.305  24.594  0.00  0.00     0.054 A 
BRANCH  27  31
ATOM     31  O5  1YK d         -21.631 -41.880  26.817  0.00  0.00    -0.353 OA
ATOM     32  C29 1YK d         -21.784 -42.839  27.837  0.00  0.00     0.210 C 
ENDBRANCH  27  31
BRANCH  28  33
ATOM     33  O4  1YK d         -21.786 -41.402  24.369  0.00  0.00    -0.351 OA
ATOM     34  C28 1YK d         -21.919 -40.303  23.486  0.00  0.00     0.210 C 
ENDBRANCH  28  33
BRANCH  29  35
ATOM     35  O3  1YK d         -19.460 -41.652  22.678  0.00  0.00    -0.353 OA
ATOM     36  C27 1YK d         -19.323 -42.814  21.874  0.00  0.00     0.210 C 
ENDBRANCH  29  35
ENDBRANCH  12  25
BRANCH   7  37
ATOM     37  O9  1YK d         -12.520 -42.553  29.189  0.00  0.00    -0.385 OA
ATOM     38  H22 1YK d         -12.394 -42.406  30.119  0.00  0.00     0.210 HD
ENDBRANCH   7  37
BRANCH   5  39
ATOM     39  O2  1YK d         -11.078 -42.893  31.216  0.00  0.00    -0.387 OA
ATOM     40  H34 1YK d         -11.956 -42.654  30.941  0.00  0.00     0.210 HD
ENDBRANCH   5  39
TORSDOF 6
