REMARK  5 active torsions:
REMARK  status: ('A' for Active; 'I' for Inactive)
REMARK    1  A    between atoms: C11_1  and  C10_4 
REMARK    2  A    between atoms: C10_4  and  C9_5 
REMARK    3  A    between atoms: C9_5  and  C8_6 
REMARK    4  A    between atoms: C8_6  and  C7_7 
REMARK    5  A    between atoms: C7_7  and  C2_8 
ROOT
ATOM      1  C2  BTN d         -27.590 -18.040  10.128  0.00  0.00     0.072 C 
ATOM      2  S1  BTN d         -26.639 -17.976   8.698  0.00  0.00    -0.160 SA
ATOM      3  C6  BTN d         -28.078 -18.503   7.725  0.00  0.00     0.101 C 
ATOM      4  C5  BTN d         -29.264 -17.740   8.309  0.00  0.00     0.118 A 
ATOM      5  N1  BTN d         -29.429 -16.438   7.714  0.00  0.00    -0.347 N 
ATOM      6  C3  BTN d         -29.193 -15.496   8.597  0.00  0.00     0.248 A 
ATOM      7  O3  BTN d         -29.206 -14.163   8.280  0.00  0.00    -0.152 OA
ATOM      8  N2  BTN d         -28.966 -15.971   9.816  0.00  0.00    -0.347 N 
ATOM      9  C4  BTN d         -28.956 -17.430   9.777  0.00  0.00     0.122 A 
ATOM     10  H13 BTN d         -29.687 -16.275   6.762  0.00  0.00     0.163 HD
ATOM     11  H14 BTN d         -28.824 -15.415  10.635  0.00  0.00     0.163 HD
ENDROOT
BRANCH   1  12
ATOM     12  C7  BTN d         -26.973 -17.436  11.413  0.00  0.00     0.017 C 
BRANCH  12  13
ATOM     13  C8  BTN d         -25.830 -18.289  11.964  0.00  0.00     0.002 C 
BRANCH  13  14
ATOM     14  C9  BTN d         -25.166 -17.586  13.157  0.00  0.00     0.010 C 
BRANCH  14  15
ATOM     15  C10 BTN d         -23.989 -18.402  13.694  0.00  0.00     0.113 C 
BRANCH  15  16
ATOM     16  C11 BTN d         -24.441 -19.675  14.364  0.00  0.00     0.172 C 
ATOM     17  O11 BTN d         -23.812 -20.743  14.198  0.00  0.00    -0.648 OA
ATOM     18  O12 BTN d         -25.426 -19.663  15.146  0.00  0.00    -0.648 OA
ENDBRANCH  15  16
ENDBRANCH  14  15
ENDBRANCH  13  14
ENDBRANCH  12  13
ENDBRANCH   1  12
TORSDOF 5
