REMARK  23 active torsions:
REMARK  status: ('A' for Active; 'I' for Inactive)
REMARK    1  A    between atoms: N_1  and  CA_2 
REMARK    2  A    between atoms: CA_2  and  C_3 
REMARK    3  A    between atoms: CA_2  and  CB_5 
REMARK       I    between atoms: C_3  and  N_9 
REMARK    4  A    between atoms: CB_5  and  CG_6 
REMARK    5  A    between atoms: N_9  and  CA_10 
REMARK    6  A    between atoms: CA_10  and  C_11 
REMARK    7  A    between atoms: CA_10  and  CB_13 
REMARK       I    between atoms: C_11  and  N_20 
REMARK    8  A    between atoms: CB_13  and  CG_14 
REMARK    9  A    between atoms: N_20  and  CA_21 
REMARK   10  A    between atoms: CA_21  and  CB_22 
REMARK   11  A    between atoms: CA_21  and  C_27 
REMARK   12  A    between atoms: CB_22  and  CG_23 
REMARK   13  A    between atoms: CG_23  and  CD_24 
REMARK   14  A    between atoms: CD_24  and  CE_25 
REMARK   15  A    between atoms: CE_25  and  NZ_26 
REMARK       I    between atoms: C_27  and  N_32 
REMARK   16  A    between atoms: N_32  and  CA_33 
REMARK   17  A    between atoms: CA_33  and  C_34 
REMARK   18  A    between atoms: CA_33  and  CB_36 
REMARK       I    between atoms: C_34  and  N_39 
REMARK   19  A    between atoms: CB_36  and  OG1_37 
REMARK   20  A    between atoms: N_39  and  CA_40 
REMARK   21  A    between atoms: CA_40  and  C_41 
REMARK   22  A    between atoms: CA_40  and  CB_43 
REMARK   23  A    between atoms: CB_43  and  CG_44 
ROOT
ATOM      1  CA  ASP d          17.330  13.057 -27.381  0.00  0.00     0.176 C 
ENDROOT
BRANCH   1   2
ATOM      2  N   ASP d          18.374  12.113 -27.884  0.00  0.00    -0.346 N 
ATOM      3  C   ASP d          18.143  10.805 -28.082  0.00  0.00     0.241 C 
ATOM      4  O   ASP d          17.052  10.301 -27.827  0.00  0.00    -0.271 OA
ATOM      5  H16 ASP d          19.286  12.472 -28.082  0.00  0.00     0.163 HD
BRANCH   3   6
ATOM      6  CA  ASP d          19.296   9.901 -28.666  0.00  0.00     0.180 C 
BRANCH   6   7
ATOM      7  N   ASP d          19.427   8.647 -27.861  0.00  0.00    -0.346 N 
ATOM      8  C   ASP d          20.164   8.439 -26.760  0.00  0.00     0.249 C 
ATOM      9  O   ASP d          20.676   9.343 -26.125  0.00  0.00    -0.271 OA
ATOM     10  H7  ASP d          18.897   7.863 -28.185  0.00  0.00     0.163 HD
BRANCH   8  11
ATOM     11  CA  ASP d          20.271   6.964 -26.252  0.00  0.00     0.284 C 
BRANCH  11  12
ATOM     12  N   ASP d          21.606   6.319 -26.299  0.00  0.00    -0.066 N 
ATOM     13  H1  ASP d          21.537   5.377 -25.946  0.00  0.00     0.275 HD
ATOM     14  H2  ASP d          22.253   6.844 -25.732  0.00  0.00     0.275 HD
ATOM     15  H3  ASP d          21.935   6.297 -27.251  0.00  0.00     0.275 HD
ENDBRANCH  11  12
BRANCH  11  16
ATOM     16  CB  ASP d          19.788   6.880 -24.820  0.00  0.00     0.155 C 
BRANCH  16  17
ATOM     17  CG  ASP d          18.364   7.280 -24.687  0.00  0.00     0.175 C 
ATOM     18  OD1 ASP d          17.642   7.215 -25.732  0.00  0.00    -0.648 OA
ATOM     19  OD2 ASP d          17.949   7.670 -23.555  0.00  0.00    -0.648 OA
ENDBRANCH  16  17
ENDBRANCH  11  16
ENDBRANCH   8  11
ENDBRANCH   6   7
BRANCH   6  20
ATOM     20  CB  ASP d          18.884   9.470 -30.109  0.00  0.00     0.073 C 
BRANCH  20  21
ATOM     21  CG  ASP d          19.929   9.690 -31.247  0.00  0.00    -0.056 A 
ATOM     22  CD1 ASP d          21.343   9.741 -31.015  0.00  0.00     0.007 A 
ATOM     23  CE1 ASP d          22.278   9.932 -32.133  0.00  0.00     0.001 A 
ATOM     24  CZ  ASP d          21.766  10.058 -33.493  0.00  0.00     0.000 A 
ATOM     25  CE2 ASP d          20.366   9.994 -33.729  0.00  0.00     0.001 A 
ATOM     26  CD2 ASP d          19.461   9.793 -32.607  0.00  0.00     0.007 A 
ENDBRANCH  20  21
ENDBRANCH   6  20
ENDBRANCH   3   6
ENDBRANCH   1   2
BRANCH   1  27
ATOM     27  CB  ASP d          17.875  14.336 -26.688  0.00  0.00     0.035 C 
BRANCH  27  28
ATOM     28  CG  ASP d          16.798  15.174 -25.972  0.00  0.00     0.004 C 
BRANCH  28  29
ATOM     29  CD  ASP d          17.247  16.526 -25.395  0.00  0.00     0.028 C 
BRANCH  29  30
ATOM     30  CE  ASP d          16.134  17.278 -24.619  0.00  0.00     0.236 C 
BRANCH  30  31
ATOM     31  NZ  ASP d          16.573  18.519 -23.908  0.00  0.00    -0.079 N 
ATOM     32  CM1 ASP d          17.293  18.280 -22.627  0.00  0.00     0.271 C 
ATOM     33  CM2 ASP d          15.341  19.222 -23.527  0.00  0.00     0.271 C 
ATOM     34  CM3 ASP d          17.411  19.338 -24.833  0.00  0.00     0.271 C 
ENDBRANCH  30  31
ENDBRANCH  29  30
ENDBRANCH  28  29
ENDBRANCH  27  28
ENDBRANCH   1  27
BRANCH   1  35
ATOM     35  C   ASP d          16.399  13.415 -28.526  0.00  0.00     0.241 C 
ATOM     36  O   ASP d          15.231  13.769 -28.341  0.00  0.00    -0.271 OA
ATOM     37  N   ASP d          16.954  13.250 -29.724  0.00  0.00    -0.344 N 
ATOM     38  H35 ASP d          17.858  12.822 -29.751  0.00  0.00     0.163 HD
BRANCH  37  39
ATOM     39  CA  ASP d          16.364  13.637 -31.006  0.00  0.00     0.205 C 
BRANCH  39  40
ATOM     40  C   ASP d          16.650  12.626 -32.159  0.00  0.00     0.243 C 
ATOM     41  O   ASP d          17.644  11.907 -32.142  0.00  0.00    -0.271 OA
ATOM     42  N   ASP d          15.816  12.610 -33.188  0.00  0.00    -0.344 N 
ATOM     43  H42 ASP d          14.973  13.147 -33.155  0.00  0.00     0.163 HD
BRANCH  42  44
ATOM     44  CA  ASP d          16.126  11.802 -34.383  0.00  0.00     0.195 C 
BRANCH  44  45
ATOM     45  C   ASP d          16.864  12.581 -35.459  0.00  0.00     0.197 C 
ATOM     46  O   ASP d          17.328  11.961 -36.412  0.00  0.00    -0.646 OA
ATOM     47  O1  ASP d          16.996  13.831 -35.375  0.00  0.00    -0.646 OA
ENDBRANCH  44  45
BRANCH  44  48
ATOM     48  CB  ASP d          14.854  11.141 -34.956  0.00  0.00     0.149 C 
BRANCH  48  49
ATOM     49  CG  ASP d          13.564  11.831 -34.488  0.00  0.00     0.175 C 
ATOM     50  OD1 ASP d          12.514  11.150 -34.496  0.00  0.00    -0.648 OA
ATOM     51  OD2 ASP d          13.594  13.028 -34.090  0.00  0.00    -0.648 OA
ENDBRANCH  48  49
ENDBRANCH  44  48
ENDBRANCH  42  44
ENDBRANCH  39  40
BRANCH  39  52
ATOM     52  CB  ASP d          16.944  15.007 -31.407  0.00  0.00     0.146 C 
ATOM     53  CG2 ASP d          18.534  14.955 -31.651  0.00  0.00     0.042 C 
BRANCH  52  54
ATOM     54  OG1 ASP d          16.306  15.423 -32.589  0.00  0.00    -0.393 OA
ATOM     55  H38 ASP d          16.466  14.786 -33.275  0.00  0.00     0.210 HD
ENDBRANCH  52  54
ENDBRANCH  39  52
ENDBRANCH  37  39
ENDBRANCH   1  35
TORSDOF 23
