REMARK  6 active torsions:
REMARK  status: ('A' for Active; 'I' for Inactive)
REMARK    1  A    between atoms: C6_4  and  N6_15 
REMARK    2  A    between atoms: C5'_7  and  S_6 
REMARK    3  A    between atoms: C4'_8  and  C5'_7 
REMARK    4  A    between atoms: C10_11  and  N1'_10 
REMARK    5  A    between atoms: C10_11  and  C9_12 
REMARK    6  A    between atoms: C3'_19  and  O3'_20 
ROOT
ATOM      1  C2  TDI d           8.025  48.790 -37.079  0.00  0.00     0.236 A 
ATOM      2  C4  TDI d           9.577  48.981 -35.350  0.00  0.00     0.098 A 
ATOM      3  C5  TDI d          10.041  50.178 -35.870  0.00  0.00     0.107 A 
ATOM      4  C6  TDI d           9.446  50.665 -37.037  0.00  0.00     0.151 A 
ATOM      5  C9  TDI d          10.315  48.652 -34.207  0.00  0.00     0.014 A 
ATOM      6  C8  TDI d          11.211  49.710 -34.052  0.00  0.00     0.099 A 
ATOM      7  N7  TDI d          11.021  50.608 -35.059  0.00  0.00    -0.360 N 
ATOM      8  N1  TDI d           8.443  49.956 -37.618  0.00  0.00    -0.223 NA
ATOM      9  N3  TDI d           8.576  48.289 -35.955  0.00  0.00    -0.239 NA
ATOM     10  H14 TDI d          11.549  51.484 -35.180  0.00  0.00     0.165 HD
ENDROOT
BRANCH   5  11
ATOM     11  C10 TDI d          10.178  47.486 -33.246  0.00  0.00     0.277 C 
BRANCH  11  12
ATOM     12  N1' TDI d          10.720  46.170 -33.591  0.00  0.00    -0.064 N 
ATOM     13  C1' TDI d          12.083  46.199 -34.173  0.00  0.00     0.243 C 
ATOM     14  C4' TDI d          12.103  45.131 -35.275  0.00  0.00     0.051 C 
ATOM     15  C3' TDI d          10.808  44.365 -35.077  0.00  0.00     0.150 C 
ATOM     16  C2' TDI d           9.863  45.443 -34.571  0.00  0.00     0.267 C 
ATOM     17  H10 TDI d          10.755  45.635 -32.738  0.00  0.00     0.280 HD
BRANCH  14  18
ATOM     18  C5' TDI d          12.183  45.805 -36.649  0.00  0.00     0.082 C 
BRANCH  18  19
ATOM     19  S   TDI d          12.485  44.654 -37.941  0.00  0.00    -0.173 SA
ATOM     20  CS5 TDI d          14.206  44.262 -37.862  0.00  0.00     0.089 C 
ENDBRANCH  18  19
ENDBRANCH  14  18
BRANCH  15  21
ATOM     21  O3' TDI d          11.000  43.357 -34.074  0.00  0.00    -0.393 OA
ATOM     22  H20 TDI d          10.163  42.961 -33.861  0.00  0.00     0.210 HD
ENDBRANCH  15  21
ENDBRANCH  11  12
ENDBRANCH   5  11
BRANCH   4  23
ATOM     23  N6  TDI d           9.855  51.841 -37.592  0.00  0.00    -0.382 N 
ATOM     24  H15 TDI d           9.407  52.188 -38.452  0.00  0.00     0.157 HD
ATOM     25  H16 TDI d          10.612  52.383 -37.151  0.00  0.00     0.157 HD
ENDBRANCH   4  23
TORSDOF 6
