REMARK  6 active torsions:
REMARK  status: ('A' for Active; 'I' for Inactive)
REMARK       I    between atoms: N10_1  and  C12_8 
REMARK    1  A    between atoms: C14_13  and  N10_1 
REMARK    2  A    between atoms: C12_8  and  C13_11 
REMARK    3  A    between atoms: N13_12  and  C20_19 
REMARK    4  A    between atoms: C21_20  and  N13_12 
REMARK    5  A    between atoms: C18_17  and  C17_16 
REMARK    6  A    between atoms: C24_23  and  C25_24 
ROOT
ATOM      1  S11 RLI d           1.025   2.675  33.690  0.00  0.00    -0.061 SA
ATOM      2  N12 RLI d           1.456   2.046  36.135  0.00  0.00    -0.223 NA
ATOM      3  C18 RLI d           2.062   3.268  35.986  0.00  0.00     0.085 A 
ATOM      4  C19 RLI d           1.941   3.792  34.639  0.00  0.00     0.086 A 
ATOM      5  C20 RLI d           0.873   1.613  35.010  0.00  0.00     0.171 A 
ENDROOT
BRANCH   3   6
ATOM      6  C17 RLI d           2.779   3.976  37.061  0.00  0.00     0.062 A 
ATOM      7  S10 RLI d           3.591   5.448  36.795  0.00  0.00    -0.048 SA
ATOM      8  C14 RLI d           3.998   5.464  38.451  0.00  0.00     0.174 A 
ATOM      9  N11 RLI d           3.567   4.441  39.118  0.00  0.00    -0.228 NA
ATOM     10  C15 RLI d           2.852   3.553  38.345  0.00  0.00     0.053 A 
ATOM     11  C16 RLI d           2.272   2.304  38.937  0.00  0.00     0.072 C 
BRANCH   8  12
ATOM     12  N10 RLI d           4.712   6.409  39.054  0.00  0.00    -0.306 N 
ATOM     13  C12 RLI d           5.248   7.450  38.456  0.00  0.00     0.223 C 
ATOM     14  O10 RLI d           5.167   7.644  37.309  0.00  0.00    -0.273 OA
ATOM     15  H1  RLI d           4.853   6.321  40.040  0.00  0.00     0.171 HD
BRANCH  13  16
ATOM     16  C13 RLI d           6.002   8.394  39.398  0.00  0.00     0.099 C 
ATOM     17  C11 RLI d           7.358   8.605  39.046  0.00  0.00     0.014 C 
ENDBRANCH  13  16
ENDBRANCH   8  12
ENDBRANCH   3   6
BRANCH   5  18
ATOM     18  N13 RLI d           0.224   0.449  34.881  0.00  0.00    -0.335 N 
ATOM     19  H7  RLI d          -0.171   0.252  33.950  0.00  0.00     0.168 HD
BRANCH  18  20
ATOM     20  C21 RLI d           0.013  -0.549  35.873  0.00  0.00     0.034 A 
ATOM     21  C22 RLI d           0.577  -0.470  37.105  0.00  0.00     0.030 A 
ATOM     22  C23 RLI d           0.367  -1.469  38.015  0.00  0.00     0.020 A 
ATOM     23  C24 RLI d          -0.410  -2.555  37.697  0.00  0.00     0.041 A 
ATOM     24  C26 RLI d          -0.967  -2.617  36.473  0.00  0.00     0.020 A 
ATOM     25  C27 RLI d          -0.763  -1.627  35.557  0.00  0.00     0.030 A 
BRANCH  23  26
ATOM     26  C25 RLI d          -0.590  -3.670  38.656  0.00  0.00     0.209 C 
ATOM     27  O11 RLI d          -1.311  -4.589  38.329  0.00  0.00    -0.644 OA
ATOM     28  O12 RLI d           0.009  -3.632  39.661  0.00  0.00    -0.644 OA
ENDBRANCH  23  26
ENDBRANCH  18  20
ENDBRANCH   5  18
TORSDOF 6
