REMARK  7 active torsions:
REMARK  status: ('A' for Active; 'I' for Inactive)
REMARK    1  A    between atoms: C1_1  and  S1_12 
REMARK    2  A    between atoms: C2_2  and  O2_3 
REMARK    3  A    between atoms: C3_4  and  O3_5 
REMARK    4  A    between atoms: C4_6  and  O4_7 
REMARK    5  A    between atoms: C5_8  and  C6_10 
REMARK    6  A    between atoms: C6_10  and  O6_11 
REMARK    7  A    between atoms: S1_12  and  C1'_13 
ROOT
ATOM      1  C1  IPT d         -14.700 -27.538 -26.277  0.00  0.00     0.215 C 
ATOM      2  C2  IPT d         -13.387 -27.371 -25.497  0.00  0.00     0.188 C 
ATOM      3  C3  IPT d         -12.156 -27.263 -26.407  0.00  0.00     0.181 C 
ATOM      4  C4  IPT d         -12.174 -28.317 -27.513  0.00  0.00     0.180 C 
ATOM      5  C5  IPT d         -13.546 -28.310 -28.197  0.00  0.00     0.178 C 
ATOM      6  O5  IPT d         -14.544 -28.594 -27.219  0.00  0.00    -0.363 OA
ENDROOT
BRANCH   1   7
ATOM      7  S1  IPT d         -16.016 -27.953 -25.172  0.00  0.00    -0.131 SA
BRANCH   7   8
ATOM      8  C1' IPT d         -17.596 -28.297 -25.916  0.00  0.00     0.041 C 
ATOM      9  C2' IPT d         -18.638 -27.341 -25.354  0.00  0.00     0.021 C 
ATOM     10  C3' IPT d         -17.595 -28.258 -27.444  0.00  0.00     0.021 C 
ENDBRANCH   7   8
ENDBRANCH   1   7
BRANCH   2  11
ATOM     11  O2  IPT d         -13.464 -26.197 -24.696  0.00  0.00    -0.389 OA
ATOM     12  H3  IPT d         -12.653 -26.091 -24.212  0.00  0.00     0.210 HD
ENDBRANCH   2  11
BRANCH   3  13
ATOM     13  O3  IPT d         -10.952 -27.373 -25.627  0.00  0.00    -0.390 OA
ATOM     14  H5  IPT d         -10.939 -28.213 -25.183  0.00  0.00     0.210 HD
ENDBRANCH   3  13
BRANCH   5  15
ATOM     15  C6  IPT d         -13.724 -29.310 -29.332  0.00  0.00     0.198 C 
BRANCH  15  16
ATOM     16  O6  IPT d         -12.634 -29.257 -30.258  0.00  0.00    -0.398 OA
ATOM     17  H11 IPT d         -12.777 -29.891 -30.951  0.00  0.00     0.209 HD
ENDBRANCH  15  16
ENDBRANCH   5  15
BRANCH   4  18
ATOM     18  O4  IPT d         -11.892 -29.599 -26.941  0.00  0.00    -0.390 OA
ATOM     19  H7  IPT d         -11.036 -29.580 -26.530  0.00  0.00     0.210 HD
ENDBRANCH   4  18
TORSDOF 7
