REMARK  1 active torsions:
REMARK  status: ('A' for Active; 'I' for Inactive)
REMARK    1  A    between atoms: N1_2  and  C6_11 
REMARK       I    between atoms: N2_5  and  C11_16 
REMARK       I    between atoms: C11_16  and  N3_7 
REMARK       I    between atoms: C11_16  and  N4_9 
ROOT
ATOM      1  N1  MOL d          33.984  -5.551   5.193  0.00  0.00    -0.378 N 
ATOM      2  N2  MOL d          33.864  -2.765   5.893  0.00  0.00    -0.215 N 
ATOM      3  N3  MOL d          33.833  -0.327   5.567  0.00  0.00    -0.235 N 
ATOM      4  N4  MOL d          31.902  -1.375   6.454  0.00  0.00    -0.235 N 
ATOM      5  C7  MOL d          33.115  -5.107   6.297  0.00  0.00     0.143 C 
ATOM      6  C8  MOL d          33.611  -3.812   6.933  0.00  0.00     0.161 C 
ATOM      7  C9  MOL d          34.696  -3.210   4.731  0.00  0.00     0.161 C 
ATOM      8  C10 MOL d          34.182  -4.529   4.144  0.00  0.00     0.143 C 
ATOM      9  C11 MOL d          33.178  -1.518   5.894  0.00  0.00     0.667 C 
ATOM     10  H3  MOL d          33.316   0.564   5.574  0.00  0.00     0.174 HD
ATOM     11  H4  MOL d          34.833  -0.340   5.319  0.00  0.00     0.174 HD
ATOM     12  H6  MOL d          31.360  -2.209   6.720  0.00  0.00     0.174 HD
ATOM     13  H7  MOL d          31.506  -0.435   6.600  0.00  0.00     0.174 HD
ENDROOT
BRANCH   1  14
ATOM     14  C6  MOL d          33.924  -6.893   4.815  0.00  0.00     0.030 A 
ATOM     15  C1  MOL d          33.747  -7.288   3.464  0.00  0.00     0.031 A 
ATOM     16  C2  MOL d          33.674  -8.633   3.071  0.00  0.00     0.026 A 
ATOM     17  C3  MOL d          33.770  -9.635   4.035  0.00  0.00     0.034 A 
ATOM     18 CL1  MOL d          33.687 -11.293   3.575  0.00  0.00    -0.084 Cl
ATOM     19  C4  MOL d          33.939  -9.295   5.374  0.00  0.00     0.026 A 
ATOM     20  C5  MOL d          34.012  -7.945   5.755  0.00  0.00     0.031 A 
ENDBRANCH   1  14
TORSDOF 1
