REMARK  24 active torsions:
REMARK  status: ('A' for Active; 'I' for Inactive)
REMARK    1  A    between atoms: C2_3  and  C1_1 
REMARK    2  A    between atoms: C1_1  and  O1_2 
REMARK    3  A    between atoms: O1_2  and  C11_14 
REMARK    4  A    between atoms: C2_3  and  C3_5 
REMARK    5  A    between atoms: C2_3  and  O2_4 
REMARK    6  A    between atoms: O2_4  and  P2_9 
REMARK    7  A    between atoms: C3_5  and  O3_6 
REMARK    8  A    between atoms: O3_6  and  C31_7 
REMARK    9  A    between atoms: C31_7  and  C32_8 
REMARK   10  A    between atoms: P2_9  and  O23_13 
REMARK   11  A    between atoms: C11_14  and  C12_15 
REMARK   12  A    between atoms: C12_15  and  C13_16 
REMARK   13  A    between atoms: C13_16  and  C14_17 
REMARK   14  A    between atoms: C14_17  and  C15_18 
REMARK   15  A    between atoms: C15_18  and  C16_19 
REMARK   16  A    between atoms: C16_19  and  C17_20 
REMARK   17  A    between atoms: C17_20  and  C18_21 
REMARK   18  A    between atoms: C18_21  and  C19_22 
REMARK   19  A    between atoms: C19_22  and  C20_23 
REMARK   20  A    between atoms: C20_23  and  C21_24 
REMARK   21  A    between atoms: C21_24  and  C22_25 
REMARK   22  A    between atoms: C22_25  and  C23_26 
REMARK   23  A    between atoms: C23_26  and  C24_27 
REMARK   24  A    between atoms: C24_27  and  C25_28 
ROOT
ATOM      1  O1  MJI d          16.959  15.797  12.220  0.00  0.00    -0.389 OA
ENDROOT
BRANCH   1   2
ATOM      2  C1  MJI d          17.662  14.639  11.851  0.00  0.00     0.202 C 
BRANCH   2   3
ATOM      3  C2  MJI d          18.569  14.936  10.684  0.00  0.00     0.182 C 
BRANCH   3   4
ATOM      4  C3  MJI d          19.782  15.706  11.158  0.00  0.00     0.202 C 
BRANCH   4   5
ATOM      5  O3  MJI d          20.393  16.355  10.071  0.00  0.00    -0.380 OA
BRANCH   5   6
ATOM      6  C31 MJI d          21.272  15.502   9.374  0.00  0.00     0.285 C 
BRANCH   6   7
ATOM      7  C32 MJI d          22.278  16.296   8.576  0.00  0.00     0.408 C 
ATOM      8  F31 MJI d          23.022  17.162   9.325  0.00  0.00    -0.169 F 
ATOM      9  F33 MJI d          23.120  15.447   8.023  0.00  0.00    -0.169 F 
ATOM     10  F32 MJI d          21.744  17.013   7.561  0.00  0.00    -0.169 F 
ENDBRANCH   6   7
ENDBRANCH   5   6
ENDBRANCH   4   5
ENDBRANCH   3   4
BRANCH   3  11
ATOM     11  O2  MJI d          17.876  15.712   9.674  0.00  0.00    -0.280 OA
BRANCH  11  12
ATOM     12  P2  MJI d          17.333  15.027   8.322  0.00  0.00     0.408 P 
ATOM     13  O22 MJI d          18.306  13.977   7.864  0.00  0.00    -0.624 OA
ATOM     14  O21 MJI d          16.921  16.121   7.369  0.00  0.00    -0.624 OA
BRANCH  12  15
ATOM     15  O23 MJI d          16.011  14.271   8.821  0.00  0.00    -0.295 OA
ATOM     16  C2P MJI d          14.909  15.002   9.382  0.00  0.00     0.216 C 
ENDBRANCH  12  15
ENDBRANCH  11  12
ENDBRANCH   3  11
ENDBRANCH   2   3
ENDBRANCH   1   2
BRANCH   1  17
ATOM     17  C11 MJI d          16.208  15.577  13.376  0.00  0.00     0.167 C 
BRANCH  17  18
ATOM     18  C12 MJI d          15.010  16.506  13.367  0.00  0.00     0.026 C 
BRANCH  18  19
ATOM     19  C13 MJI d          15.165  17.547  14.468  0.00  0.00     0.002 C 
BRANCH  19  20
ATOM     20  C14 MJI d          14.694  16.967  15.798  0.00  0.00     0.000 C 
BRANCH  20  21
ATOM     21  C15 MJI d          15.466  17.621  16.930  0.00  0.00     0.000 C 
BRANCH  21  22
ATOM     22  C16 MJI d          15.953  16.551  17.895  0.00  0.00     0.000 C 
BRANCH  22  23
ATOM     23  C17 MJI d          17.435  16.744  18.155  0.00  0.00     0.000 C 
BRANCH  23  24
ATOM     24  C18 MJI d          17.632  17.661  19.353  0.00  0.00     0.000 C 
BRANCH  24  25
ATOM     25  C19 MJI d          17.933  16.819  20.584  0.00  0.00     0.000 C 
BRANCH  25  26
ATOM     26  C20 MJI d          19.392  17.001  20.975  0.00  0.00     0.000 C 
BRANCH  26  27
ATOM     27  C21 MJI d          19.697  16.147  22.201  0.00  0.00     0.000 C 
BRANCH  27  28
ATOM     28  C22 MJI d          20.343  14.836  21.770  0.00  0.00     0.000 C 
BRANCH  28  29
ATOM     29  C23 MJI d          21.128  14.254  22.938  0.00  0.00     0.000 C 
BRANCH  29  30
ATOM     30  C24 MJI d          21.142  12.734  22.847  0.00  0.00    -0.000 C 
BRANCH  30  31
ATOM     31  C25 MJI d          21.739  12.157  24.127  0.00  0.00    -0.005 C 
ATOM     32  C26 MJI d          22.203  10.724  23.876  0.00  0.00     0.005 C 
ENDBRANCH  30  31
ENDBRANCH  29  30
ENDBRANCH  28  29
ENDBRANCH  27  28
ENDBRANCH  26  27
ENDBRANCH  25  26
ENDBRANCH  24  25
ENDBRANCH  23  24
ENDBRANCH  22  23
ENDBRANCH  21  22
ENDBRANCH  20  21
ENDBRANCH  19  20
ENDBRANCH  18  19
ENDBRANCH  17  18
ENDBRANCH   1  17
TORSDOF 24
