REMARK  11 active torsions:
REMARK  status: ('A' for Active; 'I' for Inactive)
REMARK    1  A    between atoms: C1_1  and  SAG_15 
REMARK    2  A    between atoms: O2_2  and  CBE_5 
REMARK    3  A    between atoms: C2_7  and  O2_2 
REMARK    4  A    between atoms: C5_3  and  C6_12 
REMARK    5  A    between atoms: C3_8  and  O3_9 
REMARK    6  A    between atoms: C4_10  and  O4_11 
REMARK    7  A    between atoms: C6_12  and  O6_13 
REMARK    8  A    between atoms: SAG_15  and  NAB_18 
REMARK    9  A    between atoms: CAE_23  and  OAK_24 
REMARK   10  A    between atoms: OAK_24  and  SAL_25 
REMARK   11  A    between atoms: SAL_25  and  NAM_28 
ROOT
ATOM      1  C1  MOL d          -0.142   7.838  82.215  0.00  0.00     0.296 C 
ATOM      2  C5  MOL d           1.436   9.026  83.709  0.00  0.00     0.178 C 
ATOM      3  C2  MOL d           1.031   7.083  81.656  0.00  0.00     0.208 C 
ATOM      4  C3  MOL d           2.311   7.214  82.369  0.00  0.00     0.182 C 
ATOM      5  C4  MOL d           2.351   7.818  83.733  0.00  0.00     0.180 C 
ATOM      6  O5  MOL d           0.111   8.341  83.522  0.00  0.00    -0.356 OA
ENDROOT
BRANCH   1   7
ATOM      7  SAG MOL d          -1.606   6.872  82.584  0.00  0.00     0.258 S 
ATOM      8  OAH MOL d          -2.292   7.833  83.442  0.00  0.00    -0.203 OA
ATOM      9  OAJ MOL d          -2.540   6.731  81.470  0.00  0.00    -0.203 OA
BRANCH   7  10
ATOM     10  NAB MOL d          -1.165   5.711  83.166  0.00  0.00    -0.308 N 
ATOM     11  CAC MOL d          -1.510   4.445  82.579  0.00  0.00     0.137 C 
ATOM     12  CAD MOL d          -0.892   3.269  83.323  0.00  0.00     0.054 C 
ATOM     13  CAE MOL d          -0.728   3.403  84.754  0.00  0.00     0.147 C 
ATOM     14  CAF MOL d          -1.288   4.549  85.393  0.00  0.00     0.054 C 
ATOM     15  CAA MOL d          -0.962   5.799  84.603  0.00  0.00     0.137 C 
BRANCH  13  16
ATOM     16  OAK MOL d          -1.639   2.402  85.350  0.00  0.00    -0.254 OA
BRANCH  16  17
ATOM     17  SAL MOL d          -1.307   1.427  86.419  0.00  0.00     0.355 S 
ATOM     18  OAN MOL d          -0.939   1.839  87.734  0.00  0.00    -0.176 OA
ATOM     19  OAO MOL d          -2.621   1.255  86.881  0.00  0.00    -0.176 OA
BRANCH  17  20
ATOM     20  NAM MOL d          -1.026   0.021  85.952  0.00  0.00    -0.306 N 
ATOM     21  H23 MOL d          -0.795  -0.690  86.616  0.00  0.00     0.171 HD
ATOM     22  H24 MOL d          -1.070  -0.201  84.978  0.00  0.00     0.171 HD
ENDBRANCH  17  20
ENDBRANCH  16  17
ENDBRANCH  13  16
ENDBRANCH   7  10
ENDBRANCH   1   7
BRANCH   3  23
ATOM     23  O2  MOL d           0.641   5.648  81.496  0.00  0.00    -0.310 OA
BRANCH  23  24
ATOM     24  CBE MOL d           0.331   5.043  80.282  0.00  0.00     0.255 C 
ATOM     25  CBI MOL d          -0.415   5.827  79.257  0.00  0.00     0.126 C 
ATOM     26  OBH MOL d           0.628   3.901  80.074  0.00  0.00    -0.266 OA
ENDBRANCH  23  24
ENDBRANCH   3  23
BRANCH   4  27
ATOM     27  O3  MOL d           3.020   5.900  82.357  0.00  0.00    -0.390 OA
ATOM     28  H8  MOL d           2.481   5.247  82.788  0.00  0.00     0.210 HD
ENDBRANCH   4  27
BRANCH   2  29
ATOM     29  C6  MOL d           1.785  10.002  82.702  0.00  0.00     0.198 C 
BRANCH  29  30
ATOM     30  O6  MOL d           0.735  10.361  81.802  0.00  0.00    -0.398 OA
ATOM     31  H13 MOL d           0.441   9.588  81.335  0.00  0.00     0.209 HD
ENDBRANCH  29  30
ENDBRANCH   2  29
BRANCH   5  32
ATOM     32  O4  MOL d           3.645   8.347  84.077  0.00  0.00    -0.390 OA
ATOM     33  H10 MOL d           3.612   8.717  84.951  0.00  0.00     0.210 HD
ENDBRANCH   5  32
TORSDOF 11
