REMARK  2 active torsions:
REMARK  status: ('A' for Active; 'I' for Inactive)
REMARK    1  A    between atoms: C14_8  and  N15_9 
REMARK    2  A    between atoms: N15_9  and  C17_10 
ROOT
ATOM      1  C01 MOL d         -23.630  44.679   9.880  0.00  0.00     0.054 C 
ATOM      2  C05 MOL d         -24.982  44.634  10.537  0.00  0.00     0.007 A 
ATOM      3  C06 MOL d         -25.983  45.442  10.151  0.00  0.00     0.026 A 
ATOM      4  C08 MOL d         -27.281  45.416  10.764  0.00  0.00    -0.004 A 
ATOM      5  C09 MOL d         -28.346  46.235  10.392  0.00  0.00     0.033 A 
ATOM      6  C11 MOL d         -29.540  46.097  11.069  0.00  0.00     0.120 A 
ATOM      7  N13 MOL d         -29.746  45.221  12.067  0.00  0.00    -0.241 NA
ATOM      8  C14 MOL d         -28.749  44.399  12.461  0.00  0.00     0.151 A 
ATOM      9  C33 MOL d         -27.494  44.501  11.796  0.00  0.00     0.091 A 
ATOM     10  N34 MOL d         -26.447  43.680  12.173  0.00  0.00    -0.319 N 
ATOM     11  C36 MOL d         -25.208  43.681  11.625  0.00  0.00     0.252 A 
ATOM     12  O37 MOL d         -24.363  42.896  12.049  0.00  0.00    -0.268 OA
ATOM     13  H19 MOL d         -26.619  43.030  12.913  0.00  0.00     0.169 HD
ENDROOT
BRANCH   8  14
ATOM     14  N15 MOL d         -29.018  43.544  13.472  0.00  0.00    -0.368 N 
ATOM     15  H7  MOL d         -28.225  43.073  13.931  0.00  0.00     0.161 HD
BRANCH  14  16
ATOM     16  C17 MOL d         -30.366  43.247  13.954  0.00  0.00     0.086 C 
ATOM     17  C19 MOL d         -30.321  42.785  15.399  0.00  0.00     0.052 C 
ATOM     18  C22 MOL d         -31.704  42.398  15.877  0.00  0.00     0.234 C 
ATOM     19  N25 MOL d         -32.255  41.345  15.014  0.00  0.00    -0.075 N 
ATOM     20  C27 MOL d         -32.388  41.817  13.626  0.00  0.00     0.234 C 
ATOM     21  H13 MOL d         -33.163  41.077  15.360  0.00  0.00     0.277 HD
ATOM     22  H14 MOL d         -31.639  40.547  15.033  0.00  0.00     0.277 HD
ATOM     23  C30 MOL d         -31.028  42.199  13.078  0.00  0.00     0.052 C 
ENDBRANCH  14  16
ENDBRANCH   8  14
TORSDOF 2
