REMARK  11 active torsions:
REMARK  status: ('A' for Active; 'I' for Inactive)
REMARK    1  A    between atoms: PG_1  and  O3B_5 
REMARK    2  A    between atoms: O3B_5  and  PB_6 
REMARK    3  A    between atoms: PB_6  and  O3A_9 
REMARK    4  A    between atoms: O3A_9  and  PA_10 
REMARK    5  A    between atoms: PA_10  and  O5'_13 
REMARK    6  A    between atoms: O5'_13  and  C5'_14 
REMARK    7  A    between atoms: C5'_14  and  C4'_15 
REMARK    8  A    between atoms: C3'_17  and  O3'_18 
REMARK    9  A    between atoms: C2'_19  and  O2'_20 
REMARK   10  A    between atoms: C1'_21  and  N9_22 
REMARK   11  A    between atoms: C2_30  and  N2_31 
ROOT
ATOM      1  C4' MGT d          30.459  33.250  23.857  0.00  0.00     0.180 C 
ATOM      2  O4' MGT d          31.564  34.070  24.249  0.00  0.00    -0.353 OA
ATOM      3  C3' MGT d          31.056  32.197  22.944  0.00  0.00     0.182 C 
ATOM      4  C2' MGT d          32.505  32.064  23.369  0.00  0.00     0.198 C 
ATOM      5  C1' MGT d          32.787  33.493  23.777  0.00  0.00     0.262 C 
ENDROOT
BRANCH   5   6
ATOM      6  N9  MGT d          33.797  33.788  24.814  0.00  0.00    -0.296 N 
ATOM      7  C8  MGT d          33.509  33.333  26.188  0.00  0.00     0.190 A 
ATOM      8  N7  MGT d          34.715  33.925  26.772  0.00  0.00    -0.340 N 
ATOM      9  CM7 MGT d          34.864  33.713  28.248  0.00  0.00     0.157 C 
ATOM     10  C5  MGT d          35.506  34.586  25.918  0.00  0.00     0.149 A 
ATOM     11  C6  MGT d          36.773  35.312  26.054  0.00  0.00     0.290 A 
ATOM     12  C4  MGT d          34.886  34.507  24.594  0.00  0.00     0.159 A 
ATOM     13  O6  MGT d          37.367  35.437  27.140  0.00  0.00    -0.265 OA
ATOM     14  N1  MGT d          37.255  35.851  24.929  0.00  0.00    -0.154 N 
ATOM     15  C2  MGT d          36.650  35.753  23.728  0.00  0.00     0.680 A 
ATOM     16  H13 MGT d          38.116  36.357  24.982  0.00  0.00     0.187 HD
ATOM     17  N3  MGT d          35.485  35.092  23.542  0.00  0.00    -0.174 N 
ATOM     18  H16 MGT d          35.061  35.037  22.605  0.00  0.00     0.186 HD
BRANCH  15  19
ATOM     19  N2  MGT d          37.244  36.337  22.655  0.00  0.00    -0.234 N 
ATOM     20  H14 MGT d          36.803  36.277  21.726  0.00  0.00     0.174 HD
ATOM     21  H15 MGT d          38.136  36.840  22.770  0.00  0.00     0.174 HD
ENDBRANCH  15  19
ENDBRANCH   5   6
BRANCH   4  22
ATOM     22  O2' MGT d          33.330  31.745  22.250  0.00  0.00    -0.388 OA
ATOM     23  H7  MGT d          33.262  32.435  21.601  0.00  0.00     0.210 HD
ENDBRANCH   4  22
BRANCH   1  24
ATOM     24  C5' MGT d          29.787  32.627  25.080  0.00  0.00     0.216 C 
BRANCH  24  25
ATOM     25  O5' MGT d          30.670  31.708  25.717  0.00  0.00    -0.287 OA
BRANCH  25  26
ATOM     26  PA  MGT d          30.210  30.182  25.906  0.00  0.00     0.417 P 
ATOM     27  O1A MGT d          30.830  29.666  27.183  0.00  0.00    -0.624 OA
ATOM     28  O2A MGT d          28.723  30.094  25.636  0.00  0.00    -0.624 OA
BRANCH  26  29
ATOM     29  O3A MGT d          30.941  29.533  24.638  0.00  0.00    -0.180 OA
BRANCH  29  30
ATOM     30  PB  MGT d          31.207  27.963  24.478  0.00  0.00     0.428 P 
ATOM     31  O1B MGT d          32.500  27.657  25.212  0.00  0.00    -0.624 OA
ATOM     32  O2B MGT d          29.936  27.216  24.793  0.00  0.00    -0.624 OA
BRANCH  30  33
ATOM     33  O3B MGT d          31.401  27.920  22.880  0.00  0.00    -0.173 OA
BRANCH  33  34
ATOM     34  PG  MGT d          32.785  28.311  22.144  0.00  0.00     0.431 P 
ATOM     35  O1G MGT d          32.346  29.303  21.091  0.00  0.00    -0.616 OA
ATOM     36  O2G MGT d          33.676  28.915  23.203  0.00  0.00    -0.616 OA
ATOM     37  O3G MGT d          33.267  26.986  21.599  0.00  0.00    -0.616 OA
ENDBRANCH  33  34
ENDBRANCH  30  33
ENDBRANCH  29  30
ENDBRANCH  26  29
ENDBRANCH  25  26
ENDBRANCH  24  25
ENDBRANCH   1  24
BRANCH   3  38
ATOM     38  O3' MGT d          31.012  32.792  21.646  0.00  0.00    -0.390 OA
ATOM     39  H5  MGT d          31.373  32.187  21.009  0.00  0.00     0.210 HD
ENDBRANCH   3  38
TORSDOF 11
