REMARK  5 active torsions:
REMARK  status: ('A' for Active; 'I' for Inactive)
REMARK    1  A    between atoms: N1_1  and  C1'_9 
REMARK    2  A    between atoms: C2'_10  and  O2'_13 
REMARK    3  A    between atoms: C3'_11  and  O3'_14 
REMARK    4  A    between atoms: C4'_12  and  C5'_16 
REMARK    5  A    between atoms: C5'_16  and  O5'_17 
ROOT
ATOM      1  C1' URI d           1.445  15.723  29.906  0.00  0.00     0.263 C 
ATOM      2  C2' URI d           2.233  15.305  28.763  0.00  0.00     0.198 C 
ATOM      3  C3' URI d           1.884  13.954  28.919  0.00  0.00     0.182 C 
ATOM      4  C4' URI d           0.425  13.967  28.788  0.00  0.00     0.179 C 
ATOM      5  O4' URI d           0.390  14.728  29.963  0.00  0.00    -0.353 OA
ENDROOT
BRANCH   1   6
ATOM      6  N1  URI d           2.407  15.901  31.026  0.00  0.00    -0.280 N 
ATOM      7  C2  URI d           2.806  17.198  31.339  0.00  0.00     0.331 A 
ATOM      8  N3  URI d           3.621  17.447  32.328  0.00  0.00    -0.275 N 
ATOM      9  O2  URI d           2.323  18.157  30.676  0.00  0.00    -0.246 OA
ATOM     10  C4  URI d           4.153  16.444  33.041  0.00  0.00     0.250 A 
ATOM     11  H1  URI d           3.850  18.393  32.556  0.00  0.00     0.173 HD
ATOM     12  C5  URI d           3.785  15.135  32.760  0.00  0.00     0.092 A 
ATOM     13  O4  URI d           4.953  16.641  34.020  0.00  0.00    -0.268 OA
ATOM     14  C6  URI d           2.931  14.890  31.683  0.00  0.00     0.104 A 
ENDBRANCH   1   6
BRANCH   2  15
ATOM     15  O2' URI d           1.664  16.117  27.759  0.00  0.00    -0.388 OA
ATOM     16  H8  URI d           0.722  16.155  27.880  0.00  0.00     0.210 HD
ENDBRANCH   2  15
BRANCH   3  17
ATOM     17  O3' URI d           2.568  13.044  28.353  0.00  0.00    -0.390 OA
ATOM     18  H9  URI d           2.423  13.078  27.415  0.00  0.00     0.210 HD
ENDBRANCH   3  17
BRANCH   4  19
ATOM     19  C5' URI d          -0.081  12.537  28.530  0.00  0.00     0.198 C 
BRANCH  19  20
ATOM     20  O5' URI d           0.076  12.453  27.101  0.00  0.00    -0.398 OA
ATOM     21  H12 URI d           0.990  12.581  26.876  0.00  0.00     0.209 HD
ENDBRANCH  19  20
ENDBRANCH   4  19
TORSDOF 5
