REMARK  7 active torsions:
REMARK  status: ('A' for Active; 'I' for Inactive)
REMARK    1  A    between atoms: C20_2  and  C19_4 
REMARK    2  A    between atoms: C19_4  and  O3_5 
REMARK    3  A    between atoms: O3_5  and  C1_6 
REMARK    4  A    between atoms: C4_10  and  C7_14 
REMARK    5  A    between atoms: C7_14  and  C8_15 
REMARK    6  A    between atoms: C12_17  and  C14_18 
REMARK    7  A    between atoms: C11_21  and  O4_22 
ROOT
ATOM      1  C1  B72 d         -22.060  -0.204   0.191  0.00  0.00     0.070 A 
ATOM      2  C2  B72 d         -21.009  -0.881  -0.404  0.00  0.00     0.044 A 
ATOM      3  C3  B72 d         -20.687  -0.642  -1.731  0.00  0.00    -0.052 A 
ATOM      4  C17 B72 d         -19.518  -1.406  -2.369  0.00  0.00     0.049 C 
ATOM      5  C4  B72 d         -21.413   0.270  -2.494  0.00  0.00    -0.042 A 
ATOM      6  C5  B72 d         -22.463   0.958  -1.876  0.00  0.00    -0.052 A 
ATOM      7  C6  B72 d         -22.792   0.723  -0.542  0.00  0.00     0.044 A 
ATOM      8  C18 B72 d         -23.274   1.978  -2.688  0.00  0.00     0.049 C 
ENDROOT
BRANCH   5   9
ATOM      9  C7  B72 d         -21.004   0.523  -3.954  0.00  0.00     0.078 C 
BRANCH   9  10
ATOM     10  C8  B72 d         -21.799  -0.254  -5.008  0.00  0.00    -0.053 A 
ATOM     11  C13 B72 d         -21.673   0.152  -6.334  0.00  0.00     0.017 A 
ATOM     12  C12 B72 d         -22.356  -0.508  -7.349  0.00  0.00    -0.021 A 
ATOM     13  C11 B72 d         -23.170  -1.584  -7.020  0.00  0.00     0.072 A 
ATOM     14  C10 B72 d         -23.299  -1.993  -5.696  0.00  0.00     0.037 A 
ATOM     15  C9  B72 d         -22.613  -1.336  -4.680  0.00  0.00     0.010 A 
BRANCH  12  16
ATOM     16  C14 B72 d         -22.215  -0.051  -8.811  0.00  0.00     0.013 C 
ATOM     17  C16 B72 d         -22.095   1.469  -8.836  0.00  0.00     0.015 C 
ATOM     18  C15 B72 d         -20.960  -0.665  -9.424  0.00  0.00     0.015 C 
ENDBRANCH  12  16
BRANCH  13  19
ATOM     19  O4  B72 d         -23.852  -2.222  -8.000  0.00  0.00    -0.360 OA
ATOM     20  H21 B72 d         -24.360  -2.930  -7.622  0.00  0.00     0.217 HD
ENDBRANCH  13  19
ENDBRANCH   9  10
ENDBRANCH   5   9
BRANCH   1  21
ATOM     21  O3  B72 d         -22.337  -0.460   1.495  0.00  0.00    -0.341 OA
BRANCH  21  22
ATOM     22  C19 B72 d         -21.067  -0.449   2.199  0.00  0.00     0.288 C 
BRANCH  22  23
ATOM     23  C20 B72 d         -20.712  -1.900   2.500  0.00  0.00     0.198 C 
ATOM     24  O1  B72 d         -19.520  -2.266   2.374  0.00  0.00    -0.646 OA
ATOM     25  O2  B72 d         -21.653  -2.644   2.846  0.00  0.00    -0.646 OA
ENDBRANCH  22  23
ENDBRANCH  21  22
ENDBRANCH   1  21
TORSDOF 7
