REMARK  3 active torsions:
REMARK  status: ('A' for Active; 'I' for Inactive)
REMARK    1  A    between atoms: CAO_8  and  NAN_9 
REMARK    2  A    between atoms: NAN_9  and  CAM_10 
REMARK    3  A    between atoms: CAL_11  and  NAT_12 
ROOT
ATOM      1  CAM 0X3 d          12.149 -41.741  10.347  0.00  0.00     0.068 A 
ATOM      2  CAL 0X3 d          10.852 -41.445  10.659  0.00  0.00     0.162 A 
ATOM      3  CAF 0X3 d          12.553 -41.656   8.952  0.00  0.00     0.034 A 
ATOM      4  CAE 0X3 d          11.722 -41.283   7.955  0.00  0.00     0.039 A 
ATOM      5  CAD 0X3 d          10.364 -40.987   8.258  0.00  0.00     0.120 A 
ATOM      6  CAK 0X3 d           9.931 -41.065   9.640  0.00  0.00     0.152 A 
ATOM      7  NAC 0X3 d           9.312 -40.601   7.523  0.00  0.00    -0.103 NA
ATOM      8  OAB 0X3 d           8.307 -40.451   8.382  0.00  0.00    -0.106 OA
ATOM      9  NAJ 0X3 d           8.626 -40.707   9.646  0.00  0.00    -0.100 NA
ENDROOT
BRANCH   1  10
ATOM     10  NAN 0X3 d          13.098 -42.144  11.240  0.00  0.00    -0.354 N 
ATOM     11  H4  0X3 d          12.779 -42.408  12.183  0.00  0.00     0.166 HD
BRANCH  10  12
ATOM     12  CAO 0X3 d          14.501 -42.230  10.973  0.00  0.00     0.037 A 
ATOM     13  CAG 0X3 d          15.204 -41.124  10.530  0.00  0.00     0.053 A 
ATOM     14  CAH 0X3 d          16.534 -41.235  10.283  0.00  0.00     0.039 A 
ATOM     15 CL1  0X3 d          17.404 -39.824   9.741  0.00  0.00    -0.084 Cl
ATOM     16  CAI 0X3 d          17.264 -42.370  10.506  0.00  0.00     0.066 A 
ATOM     17  CAQ 0X3 d          16.544 -43.448  10.987  0.00  0.00     0.120 A 
ATOM     18  FAR 0X3 d          17.193 -44.598  11.221  0.00  0.00    -0.206 F 
ATOM     19  CAP 0X3 d          15.176 -43.398  11.207  0.00  0.00     0.071 A 
ENDBRANCH  10  12
ENDBRANCH   1  10
BRANCH   2  20
ATOM     20  NAT 0X3 d          10.368 -41.517  11.991  0.00  0.00    -0.111 N 
ATOM     21  OAS 0X3 d          11.177 -41.798  12.875  0.00  0.00    -0.532 OA
ATOM     22  OAU 0X3 d           9.205 -41.316  12.239  0.00  0.00    -0.532 OA
ENDBRANCH   2  20
TORSDOF 3
