REMARK  0 active torsions:
REMARK  status: ('A' for Active; 'I' for Inactive)
ROOT
ATOM      1  C01 QMR d          46.401  -4.107  13.855  0.00  0.00     0.241 C 
ATOM      2  N02 QMR d          44.911  -4.201  13.965  0.00  0.00    -0.074 N 
ATOM      3  C03 QMR d          44.141  -3.214  13.045  0.00  0.00     0.241 C 
ATOM      4  C04 QMR d          44.815  -1.933  12.948  0.00  0.00     0.045 C 
ATOM      5  C05 QMR d          46.228  -2.100  12.588  0.00  0.00     0.022 C 
ATOM      6  C06 QMR d          46.896  -2.732  13.701  0.00  0.00     0.045 C 
ATOM      7  C07 QMR d          46.242  -1.961  14.673  0.00  0.00    -0.043 A 
ATOM      8  C08 QMR d          46.694  -1.641  15.985  0.00  0.00     0.042 A 
ATOM      9  C09 QMR d          45.890  -0.833  16.842  0.00  0.00     0.085 A 
ATOM     10  N10 QMR d          46.353  -0.508  18.126  0.00  0.00    -0.257 NA
ATOM     11  C11 QMR d          45.586   0.247  18.937  0.00  0.00     0.136 A 
ATOM     12  C12 QMR d          44.351   0.735  18.527  0.00  0.00     0.136 A 
ATOM     13  N13 QMR d          43.907   0.443  17.288  0.00  0.00    -0.257 NA
ATOM     14  C14 QMR d          44.697  -0.364  16.437  0.00  0.00     0.085 A 
ATOM     15  C15 QMR d          44.224  -0.650  15.133  0.00  0.00     0.042 A 
ATOM     16  C16 QMR d          45.014  -1.468  14.264  0.00  0.00    -0.043 A 
ATOM     17  H3  QMR d          44.652  -4.010  14.920  0.00  0.00     0.277 HD
ATOM     18  H4  QMR d          44.635  -5.140  13.723  0.00  0.00     0.277 HD
ENDROOT
TORSDOF 0
