REMARK  3 active torsions:
REMARK  status: ('A' for Active; 'I' for Inactive)
REMARK    1  A    between atoms: C1_1  and  C2_4 
REMARK    2  A    between atoms: C2_4  and  C3_5 
REMARK    3  A    between atoms: C3_5  and  C1'_6 
ROOT
ATOM      1  C1' HCI d          48.403  90.107 -12.343  0.00  0.00    -0.058 A 
ATOM      2  C2' HCI d          48.542  89.848 -10.977  0.00  0.00     0.007 A 
ATOM      3  C3' HCI d          47.752  88.868 -10.370  0.00  0.00     0.001 A 
ATOM      4  C4' HCI d          46.806  88.136 -11.109  0.00  0.00     0.000 A 
ATOM      5  C5' HCI d          46.641  88.403 -12.477  0.00  0.00     0.001 A 
ATOM      6  C6' HCI d          47.456  89.381 -13.078  0.00  0.00     0.007 A 
ENDROOT
BRANCH   1   7
ATOM      7  C3  HCI d          49.280  91.150 -13.029  0.00  0.00     0.049 C 
BRANCH   7   8
ATOM      8  C2  HCI d          48.546  92.476 -13.311  0.00  0.00     0.117 C 
BRANCH   8   9
ATOM      9  C1  HCI d          47.563  92.453 -14.479  0.00  0.00     0.172 C 
ATOM     10  O1  HCI d          47.865  92.074 -15.619  0.00  0.00    -0.648 OA
ATOM     11  O2  HCI d          46.317  92.879 -14.267  0.00  0.00    -0.648 OA
ENDBRANCH   8   9
ENDBRANCH   7   8
ENDBRANCH   1   7
TORSDOF 3
