REMARK  4 active torsions:
REMARK  status: ('A' for Active; 'I' for Inactive)
REMARK    1  A    between atoms: N3_3  and  N7_7 
REMARK    2  A    between atoms: C8_8  and  C9_9 
REMARK    3  A    between atoms: C10_10  and  C15_15 
REMARK    4  A    between atoms: C16_16  and  C17_17 
ROOT
ATOM      1  C9  A91 d           5.787  34.495  25.713  0.00  0.00     0.002 A 
ATOM      2  C10 A91 d           4.814  35.585  25.845  0.00  0.00     0.029 A 
ATOM      3  C11 A91 d           5.194  36.843  26.427  0.00  0.00     0.021 A 
ATOM      4  C12 A91 d           6.539  37.031  26.882  0.00  0.00     0.002 A 
ATOM      5  C13 A91 d           7.509  35.969  26.762  0.00  0.00     0.001 A 
ATOM      6  C14 A91 d           7.135  34.708  26.180  0.00  0.00     0.014 A 
ENDROOT
BRANCH   2   7
ATOM      7  C15 A91 d           3.450  35.445  25.402  0.00  0.00    -0.059 C 
ATOM      8  C16 A91 d           2.350  35.316  25.004  0.00  0.00    -0.041 C 
BRANCH   8   9
ATOM      9  C17 A91 d           1.043  35.230  24.477  0.00  0.00     0.131 A 
ATOM     10  C18 A91 d           0.877  35.792  23.201  0.00  0.00     0.069 A 
ATOM     11  C19 A91 d          -0.426  35.714  22.676  0.00  0.00     0.052 A 
ATOM     12  N20 A91 d          -1.484  35.136  23.340  0.00  0.00    -0.068 NA
ATOM     13  C23 A91 d          -0.698  36.287  21.323  0.00  0.00     0.071 C 
ATOM     14  C21 A91 d          -1.208  34.620  24.579  0.00  0.00     0.721 A 
ATOM     15  N22 A91 d           0.012  34.639  25.179  0.00  0.00    -0.054 NA
ATOM     16  N24 A91 d          -2.193  34.064  25.244  0.00  0.00    -0.231 N 
ATOM     17  H14 A91 d          -3.136  34.025  24.831  0.00  0.00     0.174 HD
ATOM     18  H15 A91 d          -2.023  33.666  26.179  0.00  0.00     0.174 HD
ENDBRANCH   8   9
ENDBRANCH   2   7
BRANCH   1  19
ATOM     19  C8  A91 d           5.430  33.205  25.114  0.00  0.00     0.151 C 
ATOM     20  N7  A91 d           6.314  32.378  24.650  0.00  0.00    -0.179 NA
BRANCH  20  21
ATOM     21  N3  A91 d           5.868  31.216  24.076  0.00  0.00    -0.212 N 
ATOM     22  C2  A91 d           4.609  30.513  24.269  0.00  0.00     0.183 C 
ATOM     23  C1  A91 d           4.727  29.388  23.238  0.00  0.00     0.202 C 
ATOM     24  O5  A91 d           6.012  29.624  22.566  0.00  0.00    -0.301 OA
ATOM     25  C4  A91 d           6.681  30.615  23.165  0.00  0.00     0.383 C 
ATOM     26  O6  A91 d           7.822  30.905  22.903  0.00  0.00    -0.236 OA
ENDBRANCH  20  21
ENDBRANCH   1  19
TORSDOF 4
