REMARK  11 active torsions:
REMARK  status: ('A' for Active; 'I' for Inactive)
REMARK    1  A    between atoms: O3B_8  and  PG_1 
REMARK    2  A    between atoms: PB_5  and  O3B_8 
REMARK    3  A    between atoms: O3A_12  and  PB_5 
REMARK    4  A    between atoms: PA_9  and  O3A_12 
REMARK    5  A    between atoms: PA_9  and  O5'_13 
REMARK    6  A    between atoms: O5'_13  and  C5'_14 
REMARK    7  A    between atoms: C5'_14  and  C4'_15 
REMARK    8  A    between atoms: C3'_17  and  O3'_18 
REMARK    9  A    between atoms: C2'_19  and  O2'_20 
REMARK   10  A    between atoms: C1'_21  and  N9_22 
REMARK   11  A    between atoms: C6_26  and  N6_27 
ROOT
ATOM      1  C4' ATP d           5.805 -22.431  14.901  0.00  0.00     0.180 C 
ATOM      2  O4' ATP d           4.629 -21.691  14.507  0.00  0.00    -0.353 OA
ATOM      3  C3' ATP d           6.136 -23.216  13.701  0.00  0.00     0.182 C 
ATOM      4  C2' ATP d           4.809 -23.572  13.170  0.00  0.00     0.198 C 
ATOM      5  C1' ATP d           4.051 -22.319  13.386  0.00  0.00     0.262 C 
ENDROOT
BRANCH   1   6
ATOM      6  C5' ATP d           6.850 -21.470  15.249  0.00  0.00     0.216 C 
BRANCH   6   7
ATOM      7  O5' ATP d           7.055 -20.412  14.376  0.00  0.00    -0.287 OA
BRANCH   7   8
ATOM      8  PA  ATP d           8.540 -20.113  13.834  0.00  0.00     0.417 P 
ATOM      9  O1A ATP d           8.422 -19.065  12.767  0.00  0.00    -0.624 OA
ATOM     10  O2A ATP d           9.226 -21.394  13.355  0.00  0.00    -0.624 OA
BRANCH   8  11
ATOM     11  O3A ATP d           9.282 -19.556  15.079  0.00  0.00    -0.180 OA
BRANCH  11  12
ATOM     12  PB  ATP d           9.796 -18.103  15.468  0.00  0.00     0.428 P 
ATOM     13  O1B ATP d          10.559 -17.484  14.257  0.00  0.00    -0.624 OA
ATOM     14  O2B ATP d          10.670 -18.309  16.723  0.00  0.00    -0.624 OA
BRANCH  12  15
ATOM     15  O3B ATP d           8.468 -17.289  15.811  0.00  0.00    -0.173 OA
BRANCH  15  16
ATOM     16  PG  ATP d           8.535 -15.794  16.241  0.00  0.00     0.431 P 
ATOM     17  O1G ATP d           9.387 -15.645  17.452  0.00  0.00    -0.616 OA
ATOM     18  O2G ATP d           7.121 -15.471  16.716  0.00  0.00    -0.616 OA
ATOM     19  O3G ATP d           8.943 -14.908  15.115  0.00  0.00    -0.616 OA
ENDBRANCH  15  16
ENDBRANCH  12  15
ENDBRANCH  11  12
ENDBRANCH   8  11
ENDBRANCH   7   8
ENDBRANCH   6   7
ENDBRANCH   1   6
BRANCH   3  20
ATOM     20  O3' ATP d           6.913 -24.312  14.006  0.00  0.00    -0.390 OA
ATOM     21  H5  ATP d           6.443 -24.874  14.611  0.00  0.00     0.210 HD
ENDBRANCH   3  20
BRANCH   5  22
ATOM     22  N9  ATP d           4.121 -21.438  12.222  0.00  0.00    -0.294 N 
ATOM     23  C8  ATP d           4.945 -20.385  12.069  0.00  0.00     0.214 A 
ATOM     24  N7  ATP d           4.695 -19.841  10.852  0.00  0.00    -0.236 NA
ATOM     25  C5  ATP d           3.720 -20.548  10.244  0.00  0.00     0.149 A 
ATOM     26  C6  ATP d           3.070 -20.441   9.010  0.00  0.00     0.155 A 
ATOM     27  C4  ATP d           3.347 -21.574  11.116  0.00  0.00     0.167 A 
ATOM     28  N1  ATP d           2.115 -21.338   8.709  0.00  0.00    -0.222 NA
ATOM     29  C2  ATP d           1.781 -22.318   9.566  0.00  0.00     0.237 A 
ATOM     30  N3  ATP d           2.384 -22.439  10.752  0.00  0.00    -0.222 NA
BRANCH  26  31
ATOM     31  N6  ATP d           3.427 -19.358   8.034  0.00  0.00    -0.382 N 
ATOM     32  H10 ATP d           2.936 -19.297   7.130  0.00  0.00     0.157 HD
ATOM     33  H11 ATP d           4.163 -18.676   8.268  0.00  0.00     0.157 HD
ENDBRANCH  26  31
ENDBRANCH   5  22
BRANCH   4  34
ATOM     34  O2' ATP d           4.239 -24.551  13.939  0.00  0.00    -0.388 OA
ATOM     35  H7  ATP d           4.795 -25.322  13.931  0.00  0.00     0.210 HD
ENDBRANCH   4  34
TORSDOF 11
