1gjd_ligand

Created by X-TOOL on Fri Sep 26 17:34:20 2014
 36 37  0  0  0  0  0  0  0  0999 V2000
    8.4240    0.4770   25.4380  C 0  0  0  1  0  3
    8.6750    0.7880   24.0770  C 0  0  0  1  0  3
    9.2100    2.0250   23.6960  C 0  0  0  2  0  3
    9.4780    2.9400   24.6910  C 0  0  0  1  0  3
    9.2400    2.6860   26.0310  C 0  0  0  2  0  3
    8.7190    1.4630   26.3900  C 0  0  0  2  0  3
    7.9660   -0.7630   25.8710  C 0  3  0  1  0  3
    7.1920   -0.8390   26.9230  N 0  0  0  3  0  3
    8.3340   -1.8370   25.2320  N 0  0  0  3  0  3
   10.0210    4.0990   24.4140  N 0  0  0  2  0  3
    9.5730    5.2520   24.8630  C 0  0  0  1  0  3
    8.5730    5.3300   25.5720  O 0  0  0  1  0  1
   10.3470    6.3850   24.4390  C 0  0  0  1  0  3
   10.0010    7.6750   24.9160  C 0  0  0  2  0  3
   10.7100    8.8310   24.5700  C 0  0  0  1  0  3
   10.3610   10.2260   25.0940  C 0  0  0  4  0  4
   11.7910    8.7310   23.7280  C 0  0  0  2  0  3
   12.1880    7.5100   23.2170  C 0  0  0  1  0  3
   11.4910    6.3340   23.5630  C 0  0  0  1  0  3
   11.9890    5.1500   23.0430  O 0  0  0  2  0  2
    8.2710   -0.3910   22.7950 Cl 0  0  0  1  0  1
   13.7640    7.5300   21.9140  I 0  0  0  1  0  1
    9.4064    2.2546   22.6550  H 0  0  0  1  0  1
    9.4595    3.4353   26.7829  H 0  0  0  1  0  1
    8.5318    1.2569   27.4376  H 0  0  0  1  0  1
    6.8510   -1.7556   27.2464  H 0  0  0  1  0  1
    6.9236    0.0177   27.4279  H 0  0  0  1  0  1
    8.9437   -1.7609   24.4053  H 0  0  0  1  0  1
    8.0152   -2.7622   25.5535  H 0  0  0  1  0  1
   10.8279    4.1085   23.8234  H 0  0  0  1  0  1
    9.1485    7.7700   25.5788  H 0  0  0  1  0  1
   11.0647   10.9612   24.6764  H 0  0  0  1  0  1
   10.4314   10.2336   26.1917  H 0  0  0  1  0  1
    9.3362   10.4859   24.7905  H 0  0  0  1  0  1
   12.3419    9.6252   23.4599  H 0  0  0  1  0  1
   11.4493    4.4250   23.3359  H 0  0  0  1  0  1
  7  1  1  0  0  2
  1  6  4  0  0  1
  1  2  4  0  0  1
  2  3  4  0  0  1
  3  4  4  0  0  1
  4 10  1  0  0  2
  4  5  4  0  0  1
  6  5  4  0  0  1
 10 11  1  0  0  2
 11 13  1  0  0  2
 11 12  2  0  0  2
 13 19  4  0  0  1
 13 14  4  0  0  1
 14 15  4  0  0  1
 15 17  4  0  0  1
 15 16  1  0  0  2
 17 18  4  0  0  1
 19 18  4  0  0  1
 19 20  1  0  0  2
  7  9  2  0  0  2
  7  8  2  0  0  2
  2 21  1  0  0  2
 18 22  1  0  0  2
  3 23  1  0  0  2
  5 24  1  0  0  2
  6 25  1  0  0  2
  8 26  1  0  0  2
  8 27  1  0  0  2
  9 28  1  0  0  2
  9 29  1  0  0  2
 10 30  1  0  0  2
 14 31  1  0  0  2
 16 32  1  0  0  2
 16 33  1  0  0  2
 16 34  1  0  0  2
 17 35  1  0  0  2
 20 36  1  0  0  2
M  END
> <MOLECULAR_FORMULA>
C15H14N3O2ClI

> <MOLECULAR_WEIGHT>
430.5

> <NUM_HB_ATOMS>
5  

> <NUM_ROTOR>
0  

> <XLOGP2>
3.61 

$$$$
