REMARK  6 active torsions:
REMARK  status: ('A' for Active; 'I' for Inactive)
REMARK       I    between atoms: C23_2  and  N25_3 
REMARK    1  A    between atoms: C23_2  and  C22_9 
REMARK    2  A    between atoms: C22_9  and  N19_11 
REMARK    3  A    between atoms: C16_16  and  N13_17 
REMARK    4  A    between atoms: N13_17  and  S11_18 
REMARK    5  A    between atoms: S11_18  and  C7_21 
REMARK    6  A    between atoms: C1_25  and  C2_26 
ROOT
ATOM      1  N13 G15 d           6.443   8.881  20.938  0.00  0.00    -0.299 N 
ATOM      2  H18 G15 d           6.694   9.200  20.024  0.00  0.00     0.173 HD
ENDROOT
BRANCH   1   3
ATOM      3  C16 G15 d           6.139   7.476  21.195  0.00  0.00     0.186 C 
ATOM      4  C18 G15 d           4.834   6.992  20.549  0.00  0.00     0.055 C 
ATOM      5  C21 G15 d           4.966   5.472  20.706  0.00  0.00     0.129 C 
ATOM      6  N19 G15 d           6.394   5.293  20.471  0.00  0.00    -0.337 N 
ATOM      7  C17 G15 d           7.106   6.380  20.778  0.00  0.00     0.244 C 
ATOM      8  O20 G15 d           8.309   6.384  20.696  0.00  0.00    -0.271 OA
BRANCH   6   9
ATOM      9  C22 G15 d           7.067   4.089  19.957  0.00  0.00     0.175 C 
ATOM     10  C24 G15 d           6.542   2.828  20.662  0.00  0.00     0.042 C 
BRANCH   9  11
ATOM     11  C23 G15 d           7.012   3.964  18.428  0.00  0.00     0.242 C 
ATOM     12  O26 G15 d           6.256   4.697  17.797  0.00  0.00    -0.271 OA
ATOM     13  N25 G15 d           7.808   3.065  17.780  0.00  0.00    -0.346 N 
ATOM     14  C27 G15 d           7.650   2.931  16.322  0.00  0.00     0.152 C 
ATOM     15  C28 G15 d           8.835   2.212  18.379  0.00  0.00     0.152 C 
ATOM     16  C29 G15 d           9.012   3.032  15.636  0.00  0.00     0.187 C 
ATOM     17  O31 G15 d           9.869   2.058  16.233  0.00  0.00    -0.388 OA
ATOM     18  C30 G15 d          10.144   2.345  17.600  0.00  0.00     0.187 C 
ENDBRANCH   9  11
ENDBRANCH   6   9
ENDBRANCH   1   3
BRANCH   1  19
ATOM     19  S11 G15 d           6.356   9.913  22.206  0.00  0.00     0.295 S 
ATOM     20  O14 G15 d           4.973  10.027  22.576  0.00  0.00    -0.197 OA
ATOM     21  O15 G15 d           7.124  11.042  21.788  0.00  0.00    -0.197 OA
BRANCH  19  22
ATOM     22  C7  G15 d           7.141   9.232  23.593  0.00  0.00     0.267 A 
ATOM     23  N2  G15 d           6.467   8.601  24.522  0.00  0.00    -0.116 NA
ATOM     24  N3  G15 d           7.329   8.131  25.458  0.00  0.00    -0.128 NA
ATOM     25  C1  G15 d           8.591   8.516  24.986  0.00  0.00     0.169 A 
ATOM     26  N1  G15 d           8.470   9.172  23.772  0.00  0.00    -0.311 N 
ATOM     27  H19 G15 d           9.217   9.527  23.157  0.00  0.00     0.170 HD
BRANCH  25  28
ATOM     28  C2  G15 d           9.891   8.193  25.647  0.00  0.00     0.054 A 
ATOM     29  C5  G15 d           9.914   7.631  26.924  0.00  0.00     0.025 A 
ATOM     30  C9  G15 d          11.255   7.391  27.318  0.00  0.00     0.033 A 
ATOM     31  C10 G15 d          12.139   7.799  26.295  0.00  0.00     0.075 A 
ATOM     32  S6  G15 d          11.410   8.440  24.910  0.00  0.00    -0.074 SA
ATOM     33 CL   G15 d          13.851   7.621  26.389  0.00  0.00    -0.076 Cl
ENDBRANCH  25  28
ENDBRANCH  19  22
ENDBRANCH   1  19
TORSDOF 6
