REMARK  11 active torsions:
REMARK  status: ('A' for Active; 'I' for Inactive)
REMARK    1  A    between atoms: O4_1  and  C4_2 
REMARK    2  A    between atoms: C3_6  and  O3_7 
REMARK    3  A    between atoms: C2_8  and  O2_9 
REMARK    4  A    between atoms: C1_10  and  O1_11 
REMARK    5  A    between atoms: N2_14  and  C8_15 
REMARK    6  A    between atoms: C8_15  and  C9_16 
REMARK    7  A    between atoms: C9_16  and  C10_17 
REMARK    8  A    between atoms: C10_17  and  C11_18 
REMARK    9  A    between atoms: C11_18  and  C12_19 
REMARK   10  A    between atoms: C12_19  and  C13_20 
REMARK   11  A    between atoms: C13_20  and  C14_21 
ROOT
ATOM      1  C4  AMF d           1.620   6.639  13.632  0.00  0.00     0.173 C 
ATOM      2  C5  AMF d           0.980   6.296  12.280  0.00  0.00     0.130 C 
ATOM      3  C6  AMF d           0.554   7.496  11.416  0.00  0.00     0.110 C 
ATOM      4  S1  AMF d           0.660   6.987   9.715  0.00  0.00    -0.090 SA
ATOM      5  C3  AMF d           1.811   5.329  14.385  0.00  0.00     0.181 C 
ATOM      6  C2  AMF d           2.866   4.470  13.687  0.00  0.00     0.198 C 
ATOM      7  C1  AMF d           2.705   4.420  12.160  0.00  0.00     0.254 C 
ATOM      8  N1  AMF d           1.924   5.452  11.504  0.00  0.00    -0.323 N 
ATOM      9  C7  AMF d           1.795   5.717  10.119  0.00  0.00     0.162 C 
ATOM     10  N2  AMF d           2.493   5.080   9.153  0.00  0.00    -0.267 NA
ENDROOT
BRANCH  10  11
ATOM     11  C8  AMF d           2.384   5.360   7.701  0.00  0.00     0.152 C 
BRANCH  11  12
ATOM     12  C9  AMF d           3.633   6.035   7.161  0.00  0.00     0.022 C 
BRANCH  12  13
ATOM     13  C10 AMF d           3.600   6.075   5.630  0.00  0.00     0.002 C 
BRANCH  13  14
ATOM     14  C11 AMF d           4.860   6.798   5.150  0.00  0.00     0.000 C 
BRANCH  14  15
ATOM     15  C12 AMF d           4.905   6.816   3.627  0.00  0.00     0.000 C 
BRANCH  15  16
ATOM     16  C13 AMF d           6.355   6.958   3.152  0.00  0.00    -0.000 C 
BRANCH  16  17
ATOM     17  C14 AMF d           6.394   7.886   1.949  0.00  0.00    -0.005 C 
ATOM     18  C15 AMF d           7.809   8.408   1.775  0.00  0.00     0.005 C 
ENDBRANCH  16  17
ENDBRANCH  15  16
ENDBRANCH  14  15
ENDBRANCH  13  14
ENDBRANCH  12  13
ENDBRANCH  11  12
ENDBRANCH  10  11
BRANCH   7  19
ATOM     19  O1  AMF d           4.016   4.395  11.550  0.00  0.00    -0.374 OA
ATOM     20  H11 AMF d           3.929   4.202  10.624  0.00  0.00     0.212 HD
ENDBRANCH   7  19
BRANCH   1  21
ATOM     21  O4  AMF d           0.728   7.529  14.327  0.00  0.00    -0.391 OA
ATOM     22  H1  AMF d           1.103   7.757  15.170  0.00  0.00     0.210 HD
ENDBRANCH   1  21
BRANCH   6  23
ATOM     23  O2  AMF d           2.765   3.116  14.163  0.00  0.00    -0.389 OA
ATOM     24  H9  AMF d           2.910   3.100  15.102  0.00  0.00     0.210 HD
ENDBRANCH   6  23
BRANCH   5  25
ATOM     25  O3  AMF d           2.366   5.529  15.672  0.00  0.00    -0.390 OA
ATOM     26  H7  AMF d           2.468   4.690  16.105  0.00  0.00     0.210 HD
ENDBRANCH   5  25
TORSDOF 11
