REMARK  5 active torsions:
REMARK  status: ('A' for Active; 'I' for Inactive)
REMARK    1  A    between atoms: C1_1  and  C2_2 
REMARK    2  A    between atoms: C6_5  and  C24_17 
REMARK    3  A    between atoms: C8_6  and  C28_20 
REMARK       I    between atoms: C28_20  and  N30_22 
REMARK    4  A    between atoms: N30_22  and  C31_23 
REMARK    5  A    between atoms: C37_26  and  C38_27 
ROOT
ATOM      1  C1  MOL d          54.763   3.861   2.512  0.00  0.00     0.170 C 
ATOM      2  O4  MOL d          55.563   4.843   1.890  0.00  0.00    -0.352 OA
ATOM      3  C5  MOL d          54.860   5.385   0.794  0.00  0.00     0.205 A 
ATOM      4  C6  MOL d          53.401   4.913   0.881  0.00  0.00     0.153 C 
ATOM      5  C8  MOL d          53.328   4.314   2.283  0.00  0.00     0.130 C 
ATOM      6  C10 MOL d          55.073   6.878   0.848  0.00  0.00     0.203 A 
ATOM      7  C11 MOL d          55.812   7.295  -0.346  0.00  0.00     0.028 A 
ATOM      8  O12 MOL d          54.693   7.605   1.735  0.00  0.00    -0.288 OA
ATOM      9  C13 MOL d          55.526   4.984  -0.489  0.00  0.00     0.203 A 
ATOM     10  O14 MOL d          55.599   3.860  -0.929  0.00  0.00    -0.288 OA
ATOM     11  C15 MOL d          56.228   8.584  -0.719  0.00  0.00     0.023 A 
ATOM     12  C17 MOL d          56.938   8.708  -1.934  0.00  0.00    -0.061 A 
ATOM     13  C19 MOL d          57.209   7.578  -2.728  0.00  0.00     0.007 A 
ATOM     14  C21 MOL d          56.776   6.290  -2.327  0.00  0.00     0.017 A 
ATOM     15  C23 MOL d          56.079   6.184  -1.130  0.00  0.00     0.027 A 
ATOM     16  C3  MOL d          57.421  10.092  -2.397  0.00  0.00     0.048 C 
ENDROOT
BRANCH   5  17
ATOM     17  C28 MOL d          52.675   4.978   3.490  0.00  0.00     0.230 C 
ATOM     18  O29 MOL d          51.801   4.515   4.183  0.00  0.00    -0.273 OA
ATOM     19  N30 MOL d          53.262   6.228   3.663  0.00  0.00    -0.327 N 
ATOM     20  H7  MOL d          54.032   6.496   3.084  0.00  0.00     0.169 HD
BRANCH  19  21
ATOM     21  C31 MOL d          52.779   7.133   4.658  0.00  0.00     0.034 A 
ATOM     22  C33 MOL d          52.959   8.511   4.500  0.00  0.00     0.030 A 
ATOM     23  C35 MOL d          52.500   9.407   5.457  0.00  0.00     0.016 A 
ATOM     24  C37 MOL d          51.844   8.953   6.611  0.00  0.00    -0.005 A 
ATOM     25  C39 MOL d          51.660   7.565   6.772  0.00  0.00     0.016 A 
ATOM     26  C41 MOL d          52.120   6.670   5.810  0.00  0.00     0.030 A 
BRANCH  24  27
ATOM     27  C38 MOL d          51.380   9.925   7.607  0.00  0.00     0.098 A 
ATOM     28  N43 MOL d          50.172  10.569   7.477  0.00  0.00    -0.142 NA
ATOM     29  N44 MOL d          50.022  11.384   8.519  0.00  0.00    -0.111 NA
ATOM     30  S46 MOL d          51.240  11.414   9.627  0.00  0.00     0.025 SA
ATOM     31  C47 MOL d          52.098  10.273   8.736  0.00  0.00     0.106 A 
ENDBRANCH  24  27
ENDBRANCH  19  21
ENDBRANCH   5  17
BRANCH   1  32
ATOM     32  C2  MOL d          55.235   3.453   3.907  0.00  0.00    -0.027 A 
ATOM     33  C49 MOL d          56.574   3.645   4.304  0.00  0.00     0.035 A 
ATOM     34  C51 MOL d          57.015   3.270   5.583  0.00  0.00     0.056 A 
ATOM     35  C53 MOL d          56.097   2.683   6.509  0.00  0.00     0.055 A 
ATOM     36 CL1  MOL d          58.650   3.533   5.985  0.00  0.00    -0.083 Cl
ATOM     37  C55 MOL d          54.762   2.491   6.114  0.00  0.00     0.026 A 
ATOM     38 CL2  MOL d          56.582   2.211   8.087  0.00  0.00    -0.083 Cl
ATOM     39  C57 MOL d          54.334   2.868   4.836  0.00  0.00     0.011 A 
ENDBRANCH   1  32
BRANCH   4  40
ATOM     40  C24 MOL d          52.352   5.982   0.559  0.00  0.00     0.181 C 
ATOM     41  O25 MOL d          51.246   6.098   1.065  0.00  0.00    -0.648 OA
ATOM     42  O26 MOL d          52.750   6.790  -0.317  0.00  0.00    -0.648 OA
ENDBRANCH   4  40
TORSDOF 5
