REMARK  1 active torsions:
REMARK  status: ('A' for Active; 'I' for Inactive)
REMARK    1  A    between atoms: N2_2  and  C4_4 
ROOT
ATOM      1  C4  MOL d           4.632  12.515  43.884  0.00  0.00     0.115 A 
ATOM      2  C5  MOL d           4.352  13.213  45.063  0.00  0.00     0.037 A 
ATOM      3  C6  MOL d           3.700  14.445  45.008  0.00  0.00     0.005 A 
ATOM      4  C7  MOL d           3.324  14.975  43.777  0.00  0.00     0.032 A 
ATOM      5  C8  MOL d           3.601  14.281  42.597  0.00  0.00     0.069 A 
ATOM      6  N9  MOL d           3.227  14.821  41.413  0.00  0.00    -0.260 NA
ATOM      7  C10 MOL d           3.470  14.162  40.255  0.00  0.00     0.117 A 
ATOM      8  C11 MOL d           4.117  12.926  40.243  0.00  0.00     0.020 A 
ATOM      9  C12 MOL d           4.520  12.367  41.450  0.00  0.00     0.018 A 
ATOM     10  C13 MOL d           4.256  13.044  42.645  0.00  0.00     0.026 A 
ENDROOT
BRANCH   1  11
ATOM     11  N2  MOL d           5.263  11.331  43.972  0.00  0.00    -0.115 N 
ATOM     12  O1  MOL d           5.309  10.538  43.034  0.00  0.00    -0.532 OA
ATOM     13  O3  MOL d           5.800  11.047  45.036  0.00  0.00    -0.532 OA
ENDBRANCH   1  11
TORSDOF 1
