REMARK  9 active torsions:
REMARK  status: ('A' for Active; 'I' for Inactive)
REMARK    1  A    between atoms: PB_1  and  O3A_5 
REMARK    2  A    between atoms: O3A_5  and  PA_6 
REMARK    3  A    between atoms: PA_6  and  O5'_9 
REMARK    4  A    between atoms: O5'_9  and  C5'_10 
REMARK    5  A    between atoms: C5'_10  and  C4'_11 
REMARK    6  A    between atoms: C3'_13  and  O3'_14 
REMARK    7  A    between atoms: C2'_15  and  O2'_16 
REMARK    8  A    between atoms: C1'_17  and  N9_18 
REMARK    9  A    between atoms: C2_25  and  N2_26 
ROOT
ATOM      1  C4' GDP d         -18.982 -10.046 -36.974  0.00  0.00     0.180 C 
ATOM      2  O4' GDP d         -18.497 -11.136 -37.771  0.00  0.00    -0.353 OA
ATOM      3  C3' GDP d         -20.091 -10.606 -36.091  0.00  0.00     0.182 C 
ATOM      4  C2' GDP d         -19.901 -12.108 -36.149  0.00  0.00     0.198 C 
ATOM      5  C1' GDP d         -19.292 -12.311 -37.530  0.00  0.00     0.262 C 
ENDROOT
BRANCH   5   6
ATOM      6  N9  GDP d         -18.495 -13.558 -37.536  0.00  0.00    -0.295 N 
ATOM      7  C8  GDP d         -17.520 -13.877 -36.661  0.00  0.00     0.214 A 
ATOM      8  N7  GDP d         -17.000 -15.098 -36.944  0.00  0.00    -0.234 NA
ATOM      9  C5  GDP d         -17.640 -15.580 -38.024  0.00  0.00     0.171 A 
ATOM     10  C6  GDP d         -17.572 -16.809 -38.848  0.00  0.00     0.292 A 
ATOM     11  C4  GDP d         -18.629 -14.563 -38.411  0.00  0.00     0.161 A 
ATOM     12  O6  GDP d         -16.765 -17.725 -38.594  0.00  0.00    -0.265 OA
ATOM     13  N1  GDP d         -18.423 -16.918 -39.878  0.00  0.00    -0.154 N 
ATOM     14  C2  GDP d         -19.314 -15.957 -40.201  0.00  0.00     0.680 A 
ATOM     15  H10 GDP d         -18.396 -17.750 -40.433  0.00  0.00     0.187 HD
ATOM     16  N3  GDP d         -19.413 -14.797 -39.492  0.00  0.00    -0.174 N 
ATOM     17  H13 GDP d         -20.097 -14.084 -39.783  0.00  0.00     0.186 HD
BRANCH  14  18
ATOM     18  N2  GDP d         -20.121 -16.157 -41.278  0.00  0.00    -0.234 N 
ATOM     19  H11 GDP d         -20.810 -15.439 -41.546  0.00  0.00     0.174 HD
ATOM     20  H12 GDP d         -20.043 -17.026 -41.825  0.00  0.00     0.174 HD
ENDBRANCH  14  18
ENDBRANCH   5   6
BRANCH   4  21
ATOM     21  O2' GDP d         -21.136 -12.810 -35.996  0.00  0.00    -0.388 OA
ATOM     22  H7  GDP d         -21.730 -12.559 -36.693  0.00  0.00     0.210 HD
ENDBRANCH   4  21
BRANCH   1  23
ATOM     23  C5' GDP d         -17.850  -9.452 -36.142  0.00  0.00     0.216 C 
BRANCH  23  24
ATOM     24  O5' GDP d         -17.469 -10.390 -35.132  0.00  0.00    -0.287 OA
BRANCH  24  25
ATOM     25  PA  GDP d         -16.606  -9.989 -33.831  0.00  0.00     0.418 P 
ATOM     26  O1A GDP d         -16.296 -11.295 -33.139  0.00  0.00    -0.624 OA
ATOM     27  O2A GDP d         -17.348  -8.917 -33.059  0.00  0.00    -0.624 OA
BRANCH  25  28
ATOM     28  O3A GDP d         -15.316  -9.342 -34.540  0.00  0.00    -0.173 OA
BRANCH  28  29
ATOM     29  PB  GDP d         -14.127  -8.568 -33.783  0.00  0.00     0.431 P 
ATOM     30  O1B GDP d         -14.387  -7.105 -34.025  0.00  0.00    -0.616 OA
ATOM     31  O2B GDP d         -12.886  -9.049 -34.498  0.00  0.00    -0.616 OA
ATOM     32  O3B GDP d         -14.220  -8.998 -32.342  0.00  0.00    -0.616 OA
ENDBRANCH  28  29
ENDBRANCH  25  28
ENDBRANCH  24  25
ENDBRANCH  23  24
ENDBRANCH   1  23
BRANCH   3  33
ATOM     33  O3' GDP d         -21.350 -10.314 -36.690  0.00  0.00    -0.390 OA
ATOM     34  H5  GDP d         -22.047 -10.660 -36.145  0.00  0.00     0.210 HD
ENDBRANCH   3  33
TORSDOF 9
