REMARK  4 active torsions:
REMARK  status: ('A' for Active; 'I' for Inactive)
REMARK    1  A    between atoms: C1_1  and  C2_4 
REMARK    2  A    between atoms: C2_4  and  C3_6 
REMARK    3  A    between atoms: C3_6  and  C4_7 
REMARK    4  A    between atoms: C4_7  and  C5_8 
ROOT
ATOM      1  C2  AKG d          19.154  20.127  94.270  0.00  0.00     0.225 C 
ATOM      2  O5  AKG d          18.662  20.724  93.313  0.00  0.00    -0.286 OA
ENDROOT
BRANCH   1   3
ATOM      3  C1  AKG d          19.152  18.654  94.303  0.00  0.00     0.246 C 
ATOM      4  O1  AKG d          18.444  18.042  93.473  0.00  0.00    -0.642 OA
ATOM      5  O2  AKG d          19.856  18.036  95.138  0.00  0.00    -0.642 OA
ENDBRANCH   1   3
BRANCH   1   6
ATOM      6  C3  AKG d          19.768  20.895  95.423  0.00  0.00     0.101 C 
BRANCH   6   7
ATOM      7  C4  AKG d          19.354  22.363  95.409  0.00  0.00     0.121 C 
BRANCH   7   8
ATOM      8  C5  AKG d          19.811  23.110  96.641  0.00  0.00     0.172 C 
ATOM      9  O3  AKG d          19.283  24.218  96.869  0.00  0.00    -0.648 OA
ATOM     10  O4  AKG d          20.711  22.639  97.371  0.00  0.00    -0.648 OA
ENDBRANCH   7   8
ENDBRANCH   6   7
ENDBRANCH   1   6
TORSDOF 4
