REMARK  9 active torsions:
REMARK  status: ('A' for Active; 'I' for Inactive)
REMARK    1  A    between atoms: C1_1  and  C2_2 
REMARK    2  A    between atoms: C4_4  and  O4_15 
REMARK    3  A    between atoms: C5_5  and  N5_12 
REMARK    4  A    between atoms: C6_6  and  C7_7 
REMARK    5  A    between atoms: C7_7  and  O7_17 
REMARK    6  A    between atoms: C7_7  and  C8_8 
REMARK    7  A    between atoms: C8_8  and  O8_18 
REMARK    8  A    between atoms: C8_8  and  C9_9 
REMARK    9  A    between atoms: C9_9  and  O9_19 
REMARK       I    between atoms: N5_12  and  C10_10 
ROOT
ATOM      1  C2  DAN d          24.214  18.827  63.999  0.00  0.00     0.144 C 
ATOM      2  C3  DAN d          23.603  17.661  63.622  0.00  0.00     0.050 C 
ATOM      3  C4  DAN d          24.254  16.626  62.651  0.00  0.00     0.169 C 
ATOM      4  C5  DAN d          25.779  16.763  62.641  0.00  0.00     0.149 C 
ATOM      5  C6  DAN d          26.159  18.285  62.525  0.00  0.00     0.186 C 
ATOM      6  O6  DAN d          25.533  19.052  63.617  0.00  0.00    -0.335 OA
ENDROOT
BRANCH   5   7
ATOM      7  C7  DAN d          27.708  18.504  62.643  0.00  0.00     0.180 C 
BRANCH   7   8
ATOM      8  O7  DAN d          28.237  18.102  63.905  0.00  0.00    -0.390 OA
ATOM      9  H14 DAN d          27.822  18.605  64.596  0.00  0.00     0.210 HD
ENDBRANCH   7   8
BRANCH   7  10
ATOM     10  C8  DAN d          28.051  19.944  62.481  0.00  0.00     0.173 C 
BRANCH  10  11
ATOM     11  O8  DAN d          27.774  20.310  61.171  0.00  0.00    -0.391 OA
ATOM     12  H15 DAN d          28.295  19.781  60.579  0.00  0.00     0.210 HD
ENDBRANCH  10  11
BRANCH  10  13
ATOM     13  C9  DAN d          29.530  20.211  62.808  0.00  0.00     0.198 C 
BRANCH  13  14
ATOM     14  O9  DAN d          30.397  19.533  61.895  0.00  0.00    -0.398 OA
ATOM     15  H16 DAN d          30.224  19.836  61.011  0.00  0.00     0.209 HD
ENDBRANCH  13  14
ENDBRANCH  10  13
ENDBRANCH   7  10
ENDBRANCH   5   7
BRANCH   4  16
ATOM     16  N5  DAN d          26.317  16.011  61.492  0.00  0.00    -0.351 N 
ATOM     17  C10 DAN d          27.081  14.933  61.647  0.00  0.00     0.214 C 
ATOM     18  O10 DAN d          27.399  14.499  62.749  0.00  0.00    -0.274 OA
ATOM     19  C11 DAN d          27.584  14.206  60.419  0.00  0.00     0.117 C 
ATOM     20  H12 DAN d          26.101  16.322  60.566  0.00  0.00     0.163 HD
ENDBRANCH   4  16
BRANCH   3  21
ATOM     21  O4  DAN d          23.919  15.318  63.033  0.00  0.00    -0.389 OA
ATOM     22  H13 DAN d          24.322  14.701  62.433  0.00  0.00     0.210 HD
ENDBRANCH   3  21
BRANCH   1  23
ATOM     23  C1  DAN d          23.590  19.817  64.751  0.00  0.00     0.233 C 
ATOM     24  O1B DAN d          22.453  19.628  65.226  0.00  0.00    -0.642 OA
ATOM     25  O1A DAN d          24.194  20.892  64.942  0.00  0.00    -0.642 OA
ENDBRANCH   1  23
TORSDOF 9
