3moh_ligand

Created by X-TOOL on Fri Sep 26 17:34:47 2014
 11 10  0  0  0  0  0  0  0  0999 V2000
   21.3040    3.0830    3.8540  P 0  0  0  1  0  4
   22.3850    4.1550    3.3010  O 0  0  0  1  0  2
   20.2350    3.8950    4.5700  O 0  0  0  1  0  1
   22.0490    2.1700    4.7990  O 0  0  0  1  0  1
   20.5980    2.3940    2.6940  O 0  0  0  1  0  1
   21.9540    5.2020    2.4650  C 0  0  0  3  0  4
   22.9050    5.3420    1.3030  C 0  5  0  1  0  3
   22.8420    6.3930    0.6380  O 0  0  0  1  0  1
   23.7240    4.4300    0.9790  O 0  0  0  1  0  1
   21.9322    6.1419    3.0361  H 0  0  0  1  0  1
   20.9451    4.9785    2.0880  H 0  0  0  1  0  1
  1  2  1  0  0  2
  1  3  2  0  0  2
  1  4  2  0  0  2
  1  5  2  0  0  2
  2  6  1  0  0  2
  6  7  1  0  0  2
  7  8  2  0  0  2
  7  9  2  0  0  2
  6 10  1  0  0  2
  6 11  1  0  0  2
M  END
> <MOLECULAR_FORMULA>
C2H2O6P

> <MOLECULAR_WEIGHT>
153.0

> <NUM_HB_ATOMS>
6  

> <NUM_ROTOR>
1  

> <XLOGP2>
-1.71

$$$$
