REMARK  18 active torsions:
REMARK  status: ('A' for Active; 'I' for Inactive)
REMARK    1  A    between atoms: N_1  and  CA_2 
REMARK    2  A    between atoms: CA_2  and  C_3 
REMARK    3  A    between atoms: CA_2  and  CB_5 
REMARK       I    between atoms: C_3  and  N_12 
REMARK    4  A    between atoms: CB_5  and  CG_6 
REMARK    5  A    between atoms: CG_6  and  CD_7 
REMARK    6  A    between atoms: CD_7  and  NE_8 
REMARK       I    between atoms: NE_8  and  CZ_9 
REMARK       I    between atoms: CZ_9  and  NH1_10 
REMARK    7  A    between atoms: N_12  and  CA_13 
REMARK    8  A    between atoms: CA_13  and  C_14 
REMARK    9  A    between atoms: CA_13  and  CB_16 
REMARK       I    between atoms: C_14  and  N_20 
REMARK   10  A    between atoms: CB_16  and  CG1_17 
REMARK   11  A    between atoms: N_20  and  CA_21 
REMARK   12  A    between atoms: CA_21  and  C_22 
REMARK   13  A    between atoms: CA_21  and  CB_24 
REMARK       I    between atoms: C_22  and  N_31 
REMARK   14  A    between atoms: CB_24  and  CG_25 
REMARK   15  A    between atoms: N_31  and  CA_32 
REMARK   16  A    between atoms: CA_32  and  C_33 
REMARK   17  A    between atoms: CA_32  and  CB_35 
REMARK   18  A    between atoms: CB_35  and  OG_36 
ROOT
ATOM      1  CA  ARG d          16.803   0.057   7.313  0.00  0.00     0.180 C 
ENDROOT
BRANCH   1   2
ATOM      2  N   ARG d          15.453   0.579   7.531  0.00  0.00    -0.346 N 
ATOM      3  C   ARG d          15.040   0.944   8.743  0.00  0.00     0.249 C 
ATOM      4  O   ARG d          15.733   0.804   9.752  0.00  0.00    -0.271 OA
ATOM      5  H16 ARG d          14.829   0.663   6.754  0.00  0.00     0.163 HD
BRANCH   3   6
ATOM      6  CA  ARG d          13.650   1.572   8.824  0.00  0.00     0.274 C 
BRANCH   6   7
ATOM      7  N   ARG d          13.166   1.529  10.231  0.00  0.00    -0.067 N 
ATOM      8  H1  ARG d          12.249   1.944  10.284  0.00  0.00     0.275 HD
ATOM      9  H2  ARG d          13.801   2.043  10.821  0.00  0.00     0.275 HD
ATOM     10  H3  ARG d          13.120   0.571  10.541  0.00  0.00     0.275 HD
ENDBRANCH   6   7
BRANCH   6  11
ATOM     11  CB  ARG d          13.702   3.022   8.305  0.00  0.00     0.044 C 
BRANCH  11  12
ATOM     12  CG  ARG d          12.410   3.837   8.493  0.00  0.00     0.023 C 
BRANCH  12  13
ATOM     13  CD  ARG d          11.285   3.327   7.593  0.00  0.00     0.138 C 
BRANCH  13  14
ATOM     14  NE  ARG d          10.196   4.302   7.509  0.00  0.00    -0.227 N 
ATOM     15  CZ  ARG d           9.308   4.543   8.471  0.00  0.00     0.665 C 
ATOM     16  NH1 ARG d           9.332   3.878   9.628  0.00  0.00    -0.235 N 
ATOM     17  NH2 ARG d           8.379   5.479   8.275  0.00  0.00    -0.235 N 
ATOM     18  H12 ARG d           8.633   4.085  10.355  0.00  0.00     0.174 HD
ATOM     19  H13 ARG d          10.050   3.158   9.793  0.00  0.00     0.174 HD
ATOM     20  H14 ARG d           8.351   5.998   7.386  0.00  0.00     0.174 HD
ATOM     21  H15 ARG d           7.689   5.683   9.012  0.00  0.00     0.174 HD
ATOM     22  H11 ARG d          10.110   4.844   6.637  0.00  0.00     0.177 HD
ENDBRANCH  13  14
ENDBRANCH  12  13
ENDBRANCH  11  12
ENDBRANCH   6  11
ENDBRANCH   3   6
ENDBRANCH   1   2
BRANCH   1  23
ATOM     23  C   ARG d          17.836   1.077   7.808  0.00  0.00     0.241 C 
ATOM     24  O   ARG d          17.556   2.277   7.824  0.00  0.00    -0.271 OA
ATOM     25  N   ARG d          19.008   0.598   8.242  0.00  0.00    -0.346 N 
ATOM     26  H27 ARG d          19.176  -0.387   8.206  0.00  0.00     0.163 HD
BRANCH  25  27
ATOM     27  CA  ARG d          20.052   1.482   8.769  0.00  0.00     0.180 C 
BRANCH  27  28
ATOM     28  C   ARG d          20.316   2.673   7.848  0.00  0.00     0.241 C 
ATOM     29  O   ARG d          20.514   2.506   6.647  0.00  0.00    -0.271 OA
ATOM     30  N   ARG d          20.311   3.867   8.429  0.00  0.00    -0.343 N 
ATOM     31  H36 ARG d          20.173   3.931   9.417  0.00  0.00     0.163 HD
BRANCH  30  32
ATOM     32  CA  ARG d          20.503   5.085   7.655  0.00  0.00     0.209 C 
BRANCH  32  33
ATOM     33  C   ARG d          21.554   5.964   8.317  0.00  0.00     0.198 C 
ATOM     34  O   ARG d          21.970   7.009   7.750  0.00  0.00    -0.646 OA
ATOM     35  O   ARG d          22.014   5.643   9.445  0.00  0.00    -0.646 OA
ENDBRANCH  32  33
BRANCH  32  36
ATOM     36  CB  ARG d          19.180   5.843   7.522  0.00  0.00     0.200 C 
BRANCH  36  37
ATOM     37  OG  ARG d          18.752   6.335   8.782  0.00  0.00    -0.398 OA
ATOM     38  H40 ARG d          17.931   6.801   8.676  0.00  0.00     0.209 HD
ENDBRANCH  36  37
ENDBRANCH  32  36
ENDBRANCH  30  32
ENDBRANCH  27  28
BRANCH  27  39
ATOM     39  CB  ARG d          21.353   0.717   9.017  0.00  0.00     0.073 C 
BRANCH  39  40
ATOM     40  CG  ARG d          22.411   1.534   9.713  0.00  0.00    -0.056 A 
ATOM     41  CD1 ARG d          23.614   1.819   9.075  0.00  0.00     0.007 A 
ATOM     42  CE1 ARG d          24.594   2.582   9.711  0.00  0.00     0.001 A 
ATOM     43  CZ  ARG d          24.378   3.073  10.997  0.00  0.00     0.000 A 
ATOM     44  CE2 ARG d          23.171   2.806  11.651  0.00  0.00     0.001 A 
ATOM     45  CD2 ARG d          22.194   2.034  11.003  0.00  0.00     0.007 A 
ENDBRANCH  39  40
ENDBRANCH  27  39
ENDBRANCH  25  27
ENDBRANCH   1  23
BRANCH   1  46
ATOM     46  CB  ARG d          17.021  -0.334   5.831  0.00  0.00     0.013 C 
ATOM     47  CG2 ARG d          18.479  -0.729   5.577  0.00  0.00     0.012 C 
BRANCH  46  48
ATOM     48  CG1 ARG d          16.067  -1.480   5.448  0.00  0.00     0.002 C 
ATOM     49  CD1 ARG d          16.251  -2.047   4.023  0.00  0.00     0.005 C 
ENDBRANCH  46  48
ENDBRANCH   1  46
TORSDOF 18
