REMARK  10 active torsions:
REMARK  status: ('A' for Active; 'I' for Inactive)
REMARK    1  A    between atoms: OAU_2  and  CBC_3 
REMARK    2  A    between atoms: CBB_5  and  OAT_6 
REMARK    3  A    between atoms: CAZ_10  and  OAW_11 
REMARK    4  A    between atoms: OAW_11  and  CAP_12 
REMARK    5  A    between atoms: CAP_12  and  CAO_13 
REMARK    6  A    between atoms: CAO_13  and  OAV_14 
REMARK    7  A    between atoms: OAV_14  and  C_15 
REMARK    8  A    between atoms: C_15  and  CA_17 
REMARK    9  A    between atoms: N_22  and  S1_23 
REMARK   10  A    between atoms: S1_23  and  CBA_26 
ROOT
ATOM      1  CA  1KZ d           9.954  13.803  16.823  0.00  0.00     0.195 C 
ATOM      2  CB  1KZ d          10.020  14.137  15.378  0.00  0.00     0.036 C 
ATOM      3  CAM 1KZ d           9.653  15.615  15.120  0.00  0.00     0.004 C 
ATOM      4  CAN 1KZ d           8.287  15.995  15.663  0.00  0.00     0.021 C 
ATOM      5  CAR 1KZ d           8.192  15.608  17.132  0.00  0.00     0.136 C 
ATOM      6  N   1KZ d           8.585  14.181  17.247  0.00  0.00    -0.292 N 
ENDROOT
BRANCH   1   7
ATOM      7  C   1KZ d          11.088  14.377  17.524  0.00  0.00     0.282 C 
ATOM      8  O   1KZ d          12.205  14.210  17.107  0.00  0.00    -0.263 OA
BRANCH   7   9
ATOM      9  OAV 1KZ d          10.783  15.082  18.563  0.00  0.00    -0.318 OA
BRANCH   9  10
ATOM     10  CAO 1KZ d          11.795  15.868  19.166  0.00  0.00     0.205 C 
BRANCH  10  11
ATOM     11  CAP 1KZ d          11.232  16.397  20.418  0.00  0.00     0.202 C 
BRANCH  11  12
ATOM     12  OAW 1KZ d          10.439  17.424  19.954  0.00  0.00    -0.349 OA
BRANCH  12  13
ATOM     13  CAZ 1KZ d           9.729  17.887  21.004  0.00  0.00     0.071 A 
ATOM     14  CAK 1KZ d           8.407  18.216  20.766  0.00  0.00     0.076 A 
ATOM     15  CBC 1KZ d           7.621  18.716  21.816  0.00  0.00     0.104 A 
ATOM     16  CBB 1KZ d           8.157  18.860  23.122  0.00  0.00     0.101 A 
ATOM     17  CAH 1KZ d           9.487  18.515  23.346  0.00  0.00     0.042 A 
ATOM     18  CAG 1KZ d          10.274  18.028  22.295  0.00  0.00     0.039 A 
BRANCH  15  19
ATOM     19  OAU 1KZ d           6.301  19.042  21.600  0.00  0.00    -0.353 OA
ATOM     20  CAB 1KZ d           6.124  19.695  20.349  0.00  0.00     0.210 C 
ENDBRANCH  15  19
BRANCH  16  21
ATOM     21  OAT 1KZ d           7.364  19.319  24.136  0.00  0.00    -0.353 OA
ATOM     22  CAA 1KZ d           7.360  20.768  24.275  0.00  0.00     0.210 C 
ENDBRANCH  16  21
ENDBRANCH  12  13
ENDBRANCH  11  12
ENDBRANCH  10  11
ENDBRANCH   9  10
ENDBRANCH   7   9
ENDBRANCH   1   7
BRANCH   6  23
ATOM     23  S1  1KZ d           7.632  13.176  18.074  0.00  0.00     0.261 S 
ATOM     24  OAE 1KZ d           8.225  11.903  17.995  0.00  0.00    -0.200 OA
ATOM     25  OAF 1KZ d           6.303  13.303  17.537  0.00  0.00    -0.200 OA
BRANCH  23  26
ATOM     26  CBA 1KZ d           7.534  13.722  19.709  0.00  0.00     0.081 A 
ATOM     27  CAL 1KZ d           6.485  14.487  20.133  0.00  0.00     0.046 A 
ATOM     28  CBF 1KZ d           6.420  14.853  21.416  0.00  0.00     0.038 A 
ATOM     29  SAX 1KZ d           5.245  15.757  22.280  0.00  0.00    -0.027 SA
ATOM     30  CBE 1KZ d           7.433  14.518  22.290  0.00  0.00     0.052 A 
ATOM     31  CBD 1KZ d           6.068  15.682  23.708  0.00  0.00     0.289 A 
ATOM     32  OAD 1KZ d           5.713  16.159  24.782  0.00  0.00    -0.260 OA
ATOM     33  NAS 1KZ d           7.217  14.982  23.536  0.00  0.00    -0.316 N 
ATOM     34  H24 1KZ d           7.861  14.821  24.284  0.00  0.00     0.170 HD
ATOM     35  CAJ 1KZ d           8.519  13.820  21.902  0.00  0.00     0.032 A 
ATOM     36  CAI 1KZ d           8.561  13.403  20.552  0.00  0.00     0.027 A 
ENDBRANCH  23  26
ENDBRANCH   6  23
TORSDOF 10
