REMARK  9 active torsions:
REMARK  status: ('A' for Active; 'I' for Inactive)
REMARK    1  A    between atoms: PB_1  and  O3A_5 
REMARK    2  A    between atoms: O3A_5  and  PA_6 
REMARK    3  A    between atoms: PA_6  and  O5'_9 
REMARK    4  A    between atoms: O5'_9  and  C5'_10 
REMARK    5  A    between atoms: C5'_10  and  C4'_11 
REMARK    6  A    between atoms: C3'_13  and  O3'_14 
REMARK    7  A    between atoms: C2'_15  and  O2'_16 
REMARK    8  A    between atoms: C1'_17  and  N9_18 
REMARK    9  A    between atoms: C2_25  and  N2_26 
ROOT
ATOM      1  C4' GDP d         -33.939  -2.586  47.534  0.00  0.00     0.180 C 
ATOM      2  O4' GDP d         -32.821  -1.715  47.835  0.00  0.00    -0.353 OA
ATOM      3  C3' GDP d         -34.627  -2.996  48.829  0.00  0.00     0.182 C 
ATOM      4  C2' GDP d         -34.197  -1.862  49.738  0.00  0.00     0.198 C 
ATOM      5  C1' GDP d         -32.797  -1.516  49.245  0.00  0.00     0.262 C 
ENDROOT
BRANCH   5   6
ATOM      6  N9  GDP d         -32.448  -0.130  49.545  0.00  0.00    -0.295 N 
ATOM      7  C8  GDP d         -33.196   0.975  49.325  0.00  0.00     0.214 A 
ATOM      8  N7  GDP d         -32.523   2.077  49.730  0.00  0.00    -0.234 NA
ATOM      9  C5  GDP d         -31.330   1.701  50.218  0.00  0.00     0.171 A 
ATOM     10  C6  GDP d         -30.145   2.370  50.796  0.00  0.00     0.292 A 
ATOM     11  C4  GDP d         -31.290   0.230  50.078  0.00  0.00     0.161 A 
ATOM     12  O6  GDP d         -30.067   3.615  50.970  0.00  0.00    -0.265 OA
ATOM     13  N1  GDP d         -29.139   1.570  51.157  0.00  0.00    -0.154 N 
ATOM     14  C2  GDP d         -29.177   0.217  51.003  0.00  0.00     0.680 A 
ATOM     15  H10 GDP d         -28.321   1.982  51.558  0.00  0.00     0.187 HD
ATOM     16  N3  GDP d         -30.197  -0.454  50.461  0.00  0.00    -0.174 N 
ATOM     17  H13 GDP d         -30.148  -1.476  50.339  0.00  0.00     0.186 HD
BRANCH  14  18
ATOM     18  N2  GDP d         -28.124  -0.529  51.382  0.00  0.00    -0.234 N 
ATOM     19  H11 GDP d         -28.150  -1.552  51.267  0.00  0.00     0.174 HD
ATOM     20  H12 GDP d         -27.292  -0.077  51.787  0.00  0.00     0.174 HD
ENDBRANCH  14  18
ENDBRANCH   5   6
BRANCH   4  21
ATOM     21  O2' GDP d         -34.211  -2.169  51.123  0.00  0.00    -0.388 OA
ATOM     22  H7  GDP d         -33.620  -2.894  51.291  0.00  0.00     0.210 HD
ENDBRANCH   4  21
BRANCH   1  23
ATOM     23  C5' GDP d         -34.900  -1.873  46.589  0.00  0.00     0.216 C 
BRANCH  23  24
ATOM     24  O5' GDP d         -35.519  -0.760  47.234  0.00  0.00    -0.287 OA
BRANCH  24  25
ATOM     25  PA  GDP d         -36.826  -0.027  46.628  0.00  0.00     0.418 P 
ATOM     26  O1A GDP d         -37.918  -1.051  46.452  0.00  0.00    -0.624 OA
ATOM     27  O2A GDP d         -37.092   1.161  47.529  0.00  0.00    -0.624 OA
BRANCH  25  28
ATOM     28  O3A GDP d         -36.319   0.494  45.205  0.00  0.00    -0.173 OA
BRANCH  28  29
ATOM     29  PB  GDP d         -37.199   0.950  43.924  0.00  0.00     0.431 P 
ATOM     30  O1B GDP d         -38.453   1.581  44.461  0.00  0.00    -0.616 OA
ATOM     31  O2B GDP d         -37.439  -0.242  43.069  0.00  0.00    -0.616 OA
ATOM     32  O3B GDP d         -36.213   1.921  43.274  0.00  0.00    -0.616 OA
ENDBRANCH  28  29
ENDBRANCH  25  28
ENDBRANCH  24  25
ENDBRANCH  23  24
ENDBRANCH   1  23
BRANCH   3  33
ATOM     33  O3' GDP d         -34.263  -4.335  49.268  0.00  0.00    -0.390 OA
ATOM     34  H5  GDP d         -34.719  -4.537  50.076  0.00  0.00     0.210 HD
ENDBRANCH   3  33
TORSDOF 9
