REMARK  16 active torsions:
REMARK  status: ('A' for Active; 'I' for Inactive)
REMARK    1  A    between atoms: C2_3  and  O39_1 
REMARK    2  A    between atoms: S8_9  and  C5_6 
REMARK    3  A    between atoms: N11_12  and  S8_9 
REMARK    4  A    between atoms: N11_12  and  C12_13 
REMARK    5  A    between atoms: C16_17  and  N11_12 
REMARK    6  A    between atoms: C12_13  and  C13_14 
REMARK    7  A    between atoms: C17_18  and  C16_17 
REMARK    8  A    between atoms: C17_18  and  O18_19 
REMARK    9  A    between atoms: C19_20  and  C17_18 
REMARK   10  A    between atoms: C19_20  and  N20_21 
REMARK   11  A    between atoms: C32_38  and  C19_20 
REMARK       I    between atoms: N20_21  and  C21_22 
REMARK   12  A    between atoms: C21_22  and  O23_24 
REMARK   13  A    between atoms: O23_24  and  C24_25 
REMARK   14  A    between atoms: C29_30  and  N41_33 
REMARK       I    between atoms: N41_33  and  C42_34 
REMARK   15  A    between atoms: C42_34  and  O44_36 
REMARK   16  A    between atoms: C38_44  and  C32_38 
ROOT
ATOM      1  C19 MOL d          15.081  22.917  17.077  0.00  0.00     0.121 C 
ENDROOT
BRANCH   1   2
ATOM      2  C17 MOL d          15.473  24.046  18.027  0.00  0.00     0.160 C 
BRANCH   2   3
ATOM      3  C16 MOL d          16.616  24.950  17.544  0.00  0.00     0.169 C 
BRANCH   3   4
ATOM      4  N11 MOL d          17.886  24.242  17.522  0.00  0.00    -0.304 N 
BRANCH   4   5
ATOM      5  S8  MOL d          18.585  23.956  16.053  0.00  0.00     0.260 S 
ATOM      6  O9  MOL d          17.487  23.893  15.068  0.00  0.00    -0.200 OA
ATOM      7  O10 MOL d          19.412  22.742  16.223  0.00  0.00    -0.200 OA
BRANCH   5   8
ATOM      8  C5  MOL d          19.577  25.348  15.658  0.00  0.00     0.079 A 
ATOM      9  C4  MOL d          18.984  26.489  15.143  0.00  0.00     0.028 A 
ATOM     10  C3  MOL d          19.756  27.588  14.829  0.00  0.00     0.038 A 
ATOM     11  C2  MOL d          21.129  27.588  15.017  0.00  0.00     0.068 A 
ATOM     12  C7  MOL d          21.755  26.453  15.534  0.00  0.00     0.038 A 
ATOM     13  C6  MOL d          20.939  25.378  15.833  0.00  0.00     0.028 A 
BRANCH  11  14
ATOM     14  O39 MOL d          21.739  28.737  14.662  0.00  0.00    -0.356 OA
ATOM     15  C40 MOL d          23.127  28.695  14.951  0.00  0.00     0.210 C 
ENDBRANCH  11  14
ENDBRANCH   5   8
ENDBRANCH   4   5
BRANCH   4  16
ATOM     16  C12 MOL d          18.814  24.556  18.589  0.00  0.00     0.139 C 
BRANCH  16  17
ATOM     17  C13 MOL d          18.506  23.799  19.887  0.00  0.00    -0.004 C 
ATOM     18  C14 MOL d          18.634  22.274  19.726  0.00  0.00     0.011 C 
ATOM     19  C15 MOL d          19.496  24.277  20.967  0.00  0.00     0.011 C 
ENDBRANCH  16  17
ENDBRANCH   4  16
ENDBRANCH   3   4
ENDBRANCH   2   3
BRANCH   2  20
ATOM     20  O18 MOL d          14.282  24.756  18.377  0.00  0.00    -0.392 OA
ATOM     21  H20 MOL d          13.620  24.139  18.665  0.00  0.00     0.210 HD
ENDBRANCH   2  20
ENDBRANCH   1   2
BRANCH   1  22
ATOM     22  N20 MOL d          14.230  21.955  17.762  0.00  0.00    -0.329 N 
ATOM     23  C21 MOL d          14.471  20.668  18.008  0.00  0.00     0.361 C 
ATOM     24  O22 MOL d          15.570  20.149  17.755  0.00  0.00    -0.238 OA
ATOM     25  H22 MOL d          13.352  22.305  18.090  0.00  0.00     0.165 HD
BRANCH  23  26
ATOM     26  O23 MOL d          13.419  20.009  18.584  0.00  0.00    -0.299 OA
BRANCH  26  27
ATOM     27  C24 MOL d          13.736  18.614  18.867  0.00  0.00     0.136 C 
ATOM     28  C25 MOL d          12.644  18.182  19.860  0.00  0.00     0.065 C 
ATOM     29  C26 MOL d          11.407  17.842  19.039  0.00  0.00     0.130 C 
ATOM     30  O27 MOL d          10.700  19.005  18.632  0.00  0.00    -0.383 OA
ATOM     31  C30 MOL d          11.965  17.237  17.778  0.00  0.00     0.042 C 
ATOM     32  C28 MOL d          10.577  19.064  17.213  0.00  0.00     0.193 C 
ATOM     33  C29 MOL d          10.930  17.664  16.733  0.00  0.00     0.117 C 
ATOM     34  C31 MOL d          13.381  17.773  17.637  0.00  0.00     0.042 C 
BRANCH  33  35
ATOM     35  N41 MOL d          11.470  17.539  15.392  0.00  0.00    -0.330 N 
ATOM     36  C42 MOL d          10.765  17.805  14.276  0.00  0.00     0.360 C 
ATOM     37  O43 MOL d           9.639  18.335  14.255  0.00  0.00    -0.239 OA
ATOM     38  H33 MOL d          12.418  17.239  15.291  0.00  0.00     0.165 HD
BRANCH  36  39
ATOM     39  O44 MOL d          11.270  17.562  13.032  0.00  0.00    -0.309 OA
ATOM     40  C45 MOL d          10.247  17.835  12.045  0.00  0.00     0.215 C 
ENDBRANCH  36  39
ENDBRANCH  33  35
ENDBRANCH  26  27
ENDBRANCH  23  26
ENDBRANCH   1  22
BRANCH   1  41
ATOM     41  C32 MOL d          14.422  23.434  15.792  0.00  0.00     0.066 C 
BRANCH  41  42
ATOM     42  C38 MOL d          14.126  22.222  14.891  0.00  0.00    -0.056 A 
ATOM     43  C33 MOL d          12.829  21.717  14.871  0.00  0.00     0.007 A 
ATOM     44  C34 MOL d          12.492  20.626  14.080  0.00  0.00     0.001 A 
ATOM     45  C35 MOL d          13.477  20.039  13.301  0.00  0.00     0.000 A 
ATOM     46  C36 MOL d          14.767  20.526  13.308  0.00  0.00     0.001 A 
ATOM     47  C37 MOL d          15.107  21.628  14.108  0.00  0.00     0.007 A 
ENDBRANCH  41  42
ENDBRANCH   1  41
TORSDOF 16
