REMARK  2 active torsions:
REMARK  status: ('A' for Active; 'I' for Inactive)
REMARK    1  A    between atoms: C1'_1  and  C1_4 
REMARK    2  A    between atoms: C3_6  and  N3_10 
ROOT
ATOM      1  C1  GAB d          16.102  -8.435  10.732  0.00  0.00     0.043 A 
ATOM      2  C2  GAB d          17.193  -9.138  11.219  0.00  0.00     0.047 A 
ATOM      3  C3  GAB d          17.408 -10.435  10.753  0.00  0.00     0.026 A 
ATOM      4  C4  GAB d          16.574 -11.024   9.824  0.00  0.00     0.029 A 
ATOM      5  C5  GAB d          15.490 -10.305   9.346  0.00  0.00     0.003 A 
ATOM      6  C6  GAB d          15.256  -9.015   9.802  0.00  0.00     0.018 A 
ENDROOT
BRANCH   1   7
ATOM      7  C1' GAB d          15.829  -7.017  11.201  0.00  0.00     0.209 C 
ATOM      8  O1' GAB d          14.631  -6.617  11.200  0.00  0.00    -0.644 OA
ATOM      9  O2' GAB d          16.839  -6.345  11.552  0.00  0.00    -0.644 OA
ENDBRANCH   1   7
BRANCH   3  10
ATOM     10  N3  GAB d          18.435 -11.136  11.199  0.00  0.00    -0.399 N 
ATOM     11  H5  GAB d          19.076 -10.726  11.893  0.00  0.00     0.156 HD
ATOM     12  H6  GAB d          18.594 -12.093  10.853  0.00  0.00     0.156 HD
ENDBRANCH   3  10
TORSDOF 2
