REMARK  11 active torsions:
REMARK  status: ('A' for Active; 'I' for Inactive)
REMARK    1  A    between atoms: C3_3  and  N4_4 
REMARK    2  A    between atoms: C11_11  and  S14_14 
REMARK    3  A    between atoms: S14_14  and  N15_15 
REMARK    4  A    between atoms: N15_15  and  C16_16 
REMARK    5  A    between atoms: C16_16  and  C17_17 
REMARK    6  A    between atoms: C17_17  and  C18_18 
REMARK    7  A    between atoms: C18_18  and  C19_19 
REMARK    8  A    between atoms: C19_19  and  N20_20 
REMARK       I    between atoms: N20_20  and  C21_21 
REMARK    9  A    between atoms: C21_21  and  C23_23 
REMARK   10  A    between atoms: C23_23  and  C24_24 
REMARK   11  A    between atoms: C24_24  and  S25_25 
ROOT
ATOM      1  S14 C4H d          29.414  44.600  37.519  0.00  0.00     0.259 S 
ATOM      2  O26 C4H d          28.558  43.507  38.101  0.00  0.00    -0.201 OA
ATOM      3  O27 C4H d          29.009  45.908  38.076  0.00  0.00    -0.201 OA
ENDROOT
BRANCH   1   4
ATOM      4  C11 C4H d          29.202  44.654  35.755  0.00  0.00     0.090 A 
ATOM      5  C10 C4H d          29.767  45.772  34.940  0.00  0.00    -0.001 A 
ATOM      6  C1  C4H d          29.607  45.804  33.471  0.00  0.00    -0.003 A 
ATOM      7  C9  C4H d          30.507  46.838  35.581  0.00  0.00     0.014 A 
ATOM      8  C2  C4H d          28.845  44.683  32.942  0.00  0.00     0.014 A 
ATOM      9  C3  C4H d          30.205  46.953  32.694  0.00  0.00     0.021 A 
ATOM     10  C13 C4H d          28.303  43.631  33.719  0.00  0.00     0.002 A 
ATOM     11  C12 C4H d          28.468  43.606  35.107  0.00  0.00     0.026 A 
ATOM     12  C7  C4H d          30.915  47.955  33.430  0.00  0.00     0.024 A 
ATOM     13  C8  C4H d          31.068  47.915  34.845  0.00  0.00     0.003 A 
BRANCH   9  14
ATOM     14  N4  C4H d          30.124  47.132  31.146  0.00  0.00    -0.291 NA
ATOM     15  C5  C4H d          28.990  47.758  30.811  0.00  0.00     0.116 C 
ATOM     16  C6  C4H d          30.306  46.135  30.487  0.00  0.00     0.116 C 
ENDBRANCH   9  14
ENDBRANCH   1   4
BRANCH   1  17
ATOM     17  N15 C4H d          30.832  44.408  37.977  0.00  0.00    -0.315 N 
ATOM     18  H13 C4H d          31.079  44.673  38.909  0.00  0.00     0.172 HD
BRANCH  17  19
ATOM     19  C16 C4H d          31.876  43.839  37.094  0.00  0.00     0.132 C 
BRANCH  19  20
ATOM     20  C17 C4H d          32.527  42.566  37.758  0.00  0.00     0.022 C 
BRANCH  20  21
ATOM     21  C18 C4H d          33.055  42.931  39.222  0.00  0.00     0.021 C 
BRANCH  21  22
ATOM     22  C19 C4H d          33.768  41.785  39.906  0.00  0.00     0.122 C 
BRANCH  22  23
ATOM     23  N20 C4H d          33.952  42.003  41.380  0.00  0.00    -0.361 N 
ATOM     24  C21 C4H d          33.167  41.130  42.308  0.00  0.00     0.218 C 
ATOM     25  O22 C4H d          32.408  40.278  41.845  0.00  0.00    -0.274 OA
ATOM     26  H22 C4H d          34.575  42.704  41.728  0.00  0.00     0.162 HD
BRANCH  24  27
ATOM     27  C23 C4H d          33.351  41.377  43.844  0.00  0.00     0.112 C 
BRANCH  27  28
ATOM     28  C24 C4H d          32.173  40.919  44.692  0.00  0.00     0.080 C 
BRANCH  28  29
ATOM     29  S25 C4H d          30.676  41.952  44.806  0.00  0.00    -0.182 SA
ATOM     30  H27 C4H d          30.002  41.500  45.404  0.00  0.00     0.101 HD
ENDBRANCH  28  29
ENDBRANCH  27  28
ENDBRANCH  24  27
ENDBRANCH  22  23
ENDBRANCH  21  22
ENDBRANCH  20  21
ENDBRANCH  19  20
ENDBRANCH  17  19
ENDBRANCH   1  17
TORSDOF 11
