REMARK  7 active torsions:
REMARK  status: ('A' for Active; 'I' for Inactive)
REMARK    1  A    between atoms: P_1  and  O5'_5 
REMARK    2  A    between atoms: O5'_5  and  C5'_6 
REMARK    3  A    between atoms: C5'_6  and  C4'_7 
REMARK    4  A    between atoms: C3'_9  and  O3'_10 
REMARK    5  A    between atoms: C2'_11  and  O2'_12 
REMARK    6  A    between atoms: C1'_13  and  N9_14 
REMARK    7  A    between atoms: C6_18  and  N6_19 
ROOT
ATOM      1  C4' AMP d          28.263  32.433  39.940  0.00  0.00     0.180 C 
ATOM      2  O4' AMP d          27.849  31.253  39.263  0.00  0.00    -0.353 OA
ATOM      3  C3' AMP d          29.837  32.381  39.900  0.00  0.00     0.182 C 
ATOM      4  C2' AMP d          30.186  30.900  39.507  0.00  0.00     0.198 C 
ATOM      5  C1' AMP d          28.772  30.196  39.571  0.00  0.00     0.262 C 
ENDROOT
BRANCH   5   6
ATOM      6  N9  AMP d          28.565  29.115  38.610  0.00  0.00    -0.294 N 
ATOM      7  C8  AMP d          28.140  27.768  38.811  0.00  0.00     0.214 A 
ATOM      8  N7  AMP d          28.077  27.054  37.689  0.00  0.00    -0.236 NA
ATOM      9  C5  AMP d          28.479  27.942  36.675  0.00  0.00     0.149 A 
ATOM     10  C6  AMP d          28.614  27.757  35.271  0.00  0.00     0.155 A 
ATOM     11  C4  AMP d          28.786  29.227  37.214  0.00  0.00     0.167 A 
ATOM     12  N1  AMP d          29.032  28.818  34.495  0.00  0.00    -0.222 NA
ATOM     13  C2  AMP d          29.289  29.991  35.143  0.00  0.00     0.237 A 
ATOM     14  N3  AMP d          29.205  30.306  36.466  0.00  0.00    -0.222 NA
BRANCH  10  15
ATOM     15  N6  AMP d          28.350  26.567  34.665  0.00  0.00    -0.382 N 
ATOM     16  H10 AMP d          28.460  26.473  33.645  0.00  0.00     0.157 HD
ATOM     17  H11 AMP d          28.041  25.761  35.226  0.00  0.00     0.157 HD
ENDBRANCH  10  15
ENDBRANCH   5   6
BRANCH   4  18
ATOM     18  O2' AMP d          31.177  30.264  40.222  0.00  0.00    -0.388 OA
ATOM     19  H7  AMP d          30.931  30.228  41.139  0.00  0.00     0.210 HD
ENDBRANCH   4  18
BRANCH   1  20
ATOM     20  C5' AMP d          27.689  33.767  39.379  0.00  0.00     0.217 C 
BRANCH  20  21
ATOM     21  O5' AMP d          26.322  33.558  39.093  0.00  0.00    -0.280 OA
BRANCH  21  22
ATOM     22  P   AMP d          25.328  34.570  38.312  0.00  0.00     0.422 P 
ATOM     23  O1P AMP d          25.845  36.056  38.448  0.00  0.00    -0.617 OA
ATOM     24  O2P AMP d          25.646  34.331  36.782  0.00  0.00    -0.617 OA
ATOM     25  O3P AMP d          23.912  34.383  38.658  0.00  0.00    -0.617 OA
ENDBRANCH  21  22
ENDBRANCH  20  21
ENDBRANCH   1  20
BRANCH   3  26
ATOM     26  O3' AMP d          30.325  32.720  41.152  0.00  0.00    -0.390 OA
ATOM     27  H5  AMP d          31.274  32.692  41.139  0.00  0.00     0.210 HD
ENDBRANCH   3  26
TORSDOF 7
