REMARK  21 active torsions:
REMARK  status: ('A' for Active; 'I' for Inactive)
REMARK    1  A    between atoms: C48_2  and  C40_4 
REMARK       I    between atoms: C48_2  and  N50_3 
REMARK    2  A    between atoms: C40_4  and  N39_12 
REMARK    3  A    between atoms: C40_4  and  C41_5 
REMARK    4  A    between atoms: C41_5  and  C42_6 
REMARK       I    between atoms: N39_12  and  C37_13 
REMARK    5  A    between atoms: C37_13  and  C31_15 
REMARK    6  A    between atoms: C31_15  and  N30_21 
REMARK    7  A    between atoms: C31_15  and  C32_16 
REMARK    8  A    between atoms: C32_16  and  C33_17 
REMARK    9  A    between atoms: C33_17  and  C34_18 
REMARK       I    between atoms: C34_18  and  N36_20 
REMARK       I    between atoms: N30_21  and  C28_22 
REMARK   10  A    between atoms: C28_22  and  C20_24 
REMARK   11  A    between atoms: C20_24  and  C19_32 
REMARK   12  A    between atoms: C20_24  and  C21_25 
REMARK   13  A    between atoms: C21_25  and  C22_26 
REMARK   14  A    between atoms: C19_32  and  C17_33 
REMARK   15  A    between atoms: C17_33  and  C9_35 
REMARK   16  A    between atoms: C17_33  and  O18_34 
REMARK   17  A    between atoms: C9_35  and  C10_44 
REMARK   18  A    between atoms: C9_35  and  N8_36 
REMARK       I    between atoms: N8_36  and  C6_37 
REMARK   19  A    between atoms: C6_37  and  O5_39 
REMARK   20  A    between atoms: O5_39  and  C1_40 
REMARK   21  A    between atoms: C10_44  and  C11_45 
ROOT
ATOM      1  N30 Q50 d          -7.655  16.904  -2.889  0.00  0.00    -0.347 N 
ATOM      2  C28 Q50 d          -7.557  16.332  -1.726  0.00  0.00     0.223 C 
ATOM      3  O29 Q50 d          -7.282  15.135  -1.600  0.00  0.00    -0.273 OA
ATOM      4  H19 Q50 d          -7.976  17.849  -2.947  0.00  0.00     0.163 HD
ENDROOT
BRANCH   2   5
ATOM      5  C20 Q50 d          -7.861  17.293  -0.624  0.00  0.00     0.084 C 
BRANCH   5   6
ATOM      6  C19 Q50 d          -8.703  16.588   0.392  0.00  0.00     0.048 C 
BRANCH   6   7
ATOM      7  C17 Q50 d         -10.120  16.503  -0.071  0.00  0.00     0.142 C 
BRANCH   7   8
ATOM      8  C9  Q50 d         -10.722  15.236   0.586  0.00  0.00     0.119 C 
BRANCH   8   9
ATOM      9  C10 Q50 d         -12.086  14.792   0.002  0.00  0.00     0.066 C 
BRANCH   9  10
ATOM     10  C11 Q50 d         -12.678  13.578   0.701  0.00  0.00    -0.056 A 
ATOM     11  C16 Q50 d         -12.246  12.263   0.418  0.00  0.00     0.007 A 
ATOM     12  C15 Q50 d         -12.823  11.177   1.124  0.00  0.00     0.001 A 
ATOM     13  C14 Q50 d         -13.840  11.351   2.092  0.00  0.00     0.000 A 
ATOM     14  C13 Q50 d         -14.283  12.648   2.346  0.00  0.00     0.001 A 
ATOM     15  C12 Q50 d         -13.716  13.735   1.659  0.00  0.00     0.007 A 
ENDBRANCH   9  10
ENDBRANCH   8   9
BRANCH   8  16
ATOM     16  N8  Q50 d         -10.788  15.439   2.055  0.00  0.00    -0.329 N 
ATOM     17  C6  Q50 d          -9.993  14.720   2.897  0.00  0.00     0.361 C 
ATOM     18  O7  Q50 d          -9.279  13.892   2.321  0.00  0.00    -0.238 OA
ATOM     19  H33 Q50 d         -11.424  16.112   2.432  0.00  0.00     0.165 HD
BRANCH  17  20
ATOM     20  O5  Q50 d         -10.004  14.898   4.398  0.00  0.00    -0.294 OA
BRANCH  20  21
ATOM     21  C1  Q50 d          -9.038  14.994   5.525  0.00  0.00     0.061 C 
ATOM     22  C2  Q50 d          -9.678  15.555   6.780  0.00  0.00     0.046 C 
ATOM     23  C3  Q50 d          -8.577  13.661   6.052  0.00  0.00     0.046 C 
ATOM     24  C4  Q50 d          -7.829  15.847   5.234  0.00  0.00     0.046 C 
ENDBRANCH  20  21
ENDBRANCH  17  20
ENDBRANCH   8  16
ENDBRANCH   7   8
BRANCH   7  25
ATOM     25  O18 Q50 d         -10.544  17.864   0.222  0.00  0.00    -0.393 OA
ATOM     26  H31 Q50 d         -10.034  18.473  -0.299  0.00  0.00     0.210 HD
ENDBRANCH   7  25
ENDBRANCH   6   7
ENDBRANCH   5   6
BRANCH   5  27
ATOM     27  C21 Q50 d          -6.618  17.782   0.127  0.00  0.00     0.052 C 
BRANCH  27  28
ATOM     28  C22 Q50 d          -5.311  17.805  -0.642  0.00  0.00    -0.057 A 
ATOM     29  C27 Q50 d          -5.034  18.791  -1.615  0.00  0.00     0.007 A 
ATOM     30  C26 Q50 d          -3.805  18.832  -2.311  0.00  0.00     0.001 A 
ATOM     31  C25 Q50 d          -2.824  17.896  -2.009  0.00  0.00     0.000 A 
ATOM     32  C24 Q50 d          -3.101  16.915  -1.032  0.00  0.00     0.001 A 
ATOM     33  C23 Q50 d          -4.313  16.870  -0.333  0.00  0.00     0.007 A 
ENDBRANCH  27  28
ENDBRANCH   5  27
ENDBRANCH   2   5
BRANCH   1  34
ATOM     34  C31 Q50 d          -7.309  16.197  -4.095  0.00  0.00     0.177 C 
BRANCH  34  35
ATOM     35  C37 Q50 d          -6.434  17.055  -5.088  0.00  0.00     0.241 C 
ATOM     36  N39 Q50 d          -5.432  16.340  -5.642  0.00  0.00    -0.346 N 
ATOM     37  H11 Q50 d          -5.325  15.390  -5.350  0.00  0.00     0.163 HD
ATOM     38  O38 Q50 d          -6.561  18.270  -5.393  0.00  0.00    -0.271 OA
BRANCH  36  39
ATOM     39  C40 Q50 d          -4.485  16.857  -6.645  0.00  0.00     0.180 C 
BRANCH  39  40
ATOM     40  C48 Q50 d          -4.293  15.840  -7.791  0.00  0.00     0.238 C 
ATOM     41  O49 Q50 d          -3.953  14.660  -7.644  0.00  0.00    -0.271 OA
ATOM     42  N50 Q50 d          -4.560  16.331  -9.011  0.00  0.00    -0.368 N 
ATOM     43  H1  Q50 d          -4.834  17.287  -9.116  0.00  0.00     0.159 HD
ATOM     44  H2  Q50 d          -4.485  15.741  -9.815  0.00  0.00     0.159 HD
ENDBRANCH  39  40
BRANCH  39  45
ATOM     45  C41 Q50 d          -3.178  17.316  -5.945  0.00  0.00     0.073 C 
BRANCH  45  46
ATOM     46  C42 Q50 d          -2.293  16.227  -5.330  0.00  0.00    -0.056 A 
ATOM     47  C47 Q50 d          -1.055  15.885  -5.904  0.00  0.00     0.007 A 
ATOM     48  C46 Q50 d          -0.212  14.930  -5.327  0.00  0.00     0.001 A 
ATOM     49  C45 Q50 d          -0.551  14.301  -4.145  0.00  0.00     0.000 A 
ATOM     50  C44 Q50 d          -1.759  14.647  -3.564  0.00  0.00     0.001 A 
ATOM     51  C43 Q50 d          -2.621  15.597  -4.133  0.00  0.00     0.007 A 
ENDBRANCH  45  46
ENDBRANCH  39  45
ENDBRANCH  36  39
ENDBRANCH  34  35
BRANCH  34  52
ATOM     52  C32 Q50 d          -8.610  15.640  -4.607  0.00  0.00     0.044 C 
BRANCH  52  53
ATOM     53  C33 Q50 d          -8.316  14.761  -5.795  0.00  0.00     0.105 C 
BRANCH  53  54
ATOM     54  C34 Q50 d          -8.342  15.669  -6.972  0.00  0.00     0.215 C 
ATOM     55  N36 Q50 d          -7.568  15.371  -8.018  0.00  0.00    -0.370 N 
ATOM     56  H17 Q50 d          -7.566  15.964  -8.823  0.00  0.00     0.159 HD
ATOM     57  H18 Q50 d          -6.991  14.555  -7.996  0.00  0.00     0.159 HD
ATOM     58  O35 Q50 d          -9.038  16.653  -6.941  0.00  0.00    -0.274 OA
ENDBRANCH  53  54
ENDBRANCH  52  53
ENDBRANCH  34  52
ENDBRANCH   1  34
TORSDOF 21
