REMARK  3 active torsions:
REMARK  status: ('A' for Active; 'I' for Inactive)
REMARK    1  A    between atoms: N1_17  and  C6_18 
REMARK    2  A    between atoms: C4_28  and  C3_29 
REMARK    3  A    between atoms: C3_29  and  C1_30 
ROOT
ATOM      1  O1  FGH d           8.850 -12.096 -24.000  0.00  0.00    -0.292 OA
ATOM      2  C21 FGH d           7.703 -12.480 -24.124  0.00  0.00     0.162 C 
ATOM      3  C22 FGH d           7.433 -13.908 -24.544  0.00  0.00     0.093 C 
ATOM      4  C23 FGH d           6.188 -14.122 -25.420  0.00  0.00    -0.036 C 
ATOM      5  C26 FGH d           5.891 -15.616 -25.539  0.00  0.00     0.015 C 
ATOM      6  C25 FGH d           6.423 -13.551 -26.823  0.00  0.00     0.015 C 
ATOM      7  C24 FGH d           4.996 -13.419 -24.757  0.00  0.00     0.067 C 
ATOM      8  C13 FGH d           5.297 -12.042 -24.243  0.00  0.00     0.032 A 
ATOM      9  C14 FGH d           6.560 -11.566 -23.946  0.00  0.00     0.041 A 
ATOM     10  C15 FGH d           6.405 -10.187 -23.529  0.00  0.00    -0.016 A 
ATOM     11  C19 FGH d           7.489  -9.214 -23.118  0.00  0.00     0.069 C 
ATOM     12  C18 FGH d           6.895  -7.801 -23.046  0.00  0.00     0.239 C 
ATOM     13  N2  FGH d           5.559  -7.716 -22.456  0.00  0.00    -0.069 N 
ATOM     14  C20 FGH d           5.106  -6.315 -22.370  0.00  0.00     0.270 C 
ATOM     15  C17 FGH d           4.599  -8.518 -23.208  0.00  0.00     0.292 C 
ATOM     16  C16 FGH d           5.068  -9.889 -23.586  0.00  0.00     0.050 A 
ATOM     17  N1  FGH d           4.391 -11.013 -24.032  0.00  0.00    -0.316 N 
ATOM     18  H   FGH d           5.609  -8.086 -21.520  0.00  0.00     0.279 HD
ENDROOT
BRANCH  17  19
ATOM     19  C6  FGH d           2.989 -11.033 -24.367  0.00  0.00     0.040 A 
ATOM     20  C5  FGH d           2.500 -10.096 -25.279  0.00  0.00     0.038 A 
ATOM     21  C4  FGH d           1.158 -10.090 -25.642  0.00  0.00    -0.039 A 
ATOM     22  C9  FGH d           0.293 -11.091 -25.115  0.00  0.00     0.044 A 
ATOM     23  C8  FGH d           0.792 -12.031 -24.166  0.00  0.00    -0.038 A 
ATOM     24  C10 FGH d          -1.115 -11.275 -25.561  0.00  0.00     0.252 C 
ATOM     25  C7  FGH d           2.136 -11.987 -23.797  0.00  0.00     0.038 A 
ATOM     26  C12 FGH d          -0.120 -13.059 -23.537  0.00  0.00     0.059 C 
ATOM     27  C11 FGH d          -1.542 -12.547 -23.442  0.00  0.00     0.127 C 
ATOM     28  N   FGH d          -1.934 -11.956 -24.733  0.00  0.00    -0.357 N 
ATOM     29  H   FGH d          -2.885 -12.069 -25.019  0.00  0.00     0.162 HD
ATOM     30  O   FGH d          -1.511 -10.879 -26.651  0.00  0.00    -0.268 OA
BRANCH  21  31
ATOM     31  C3  FGH d           0.775  -8.921 -26.524  0.00  0.00     0.043 C 
BRANCH  31  32
ATOM     32  C1  FGH d           0.122  -7.687 -25.869  0.00  0.00    -0.019 C 
ATOM     33  C2  FGH d          -0.169  -6.626 -26.923  0.00  0.00     0.010 C 
ATOM     34  C   FGH d           0.917  -7.051 -24.720  0.00  0.00     0.010 C 
ENDBRANCH  31  32
ENDBRANCH  21  31
ENDBRANCH  17  19
TORSDOF 3
