REMARK  9 active torsions:
REMARK  status: ('A' for Active; 'I' for Inactive)
REMARK    1  A    between atoms: PA_1  and  O3A_4 
REMARK    2  A    between atoms: PA_1  and  O5'_5 
REMARK    3  A    between atoms: O3A_4  and  PB_6 
REMARK    4  A    between atoms: O5'_5  and  C5'_10 
REMARK    5  A    between atoms: C5'_10  and  C4'_11 
REMARK    6  A    between atoms: C3'_13  and  O3'_14 
REMARK    7  A    between atoms: C2'_15  and  O2'_16 
REMARK    8  A    between atoms: C1'_17  and  N9_18 
REMARK    9  A    between atoms: C2_26  and  N2_27 
ROOT
ATOM      1  C4' M7G d          -8.254  23.476 -43.262  0.00  0.00     0.180 C 
ATOM      2  O4' M7G d          -8.340  22.270 -42.491  0.00  0.00    -0.354 OA
ATOM      3  C3' M7G d          -6.882  23.486 -43.924  0.00  0.00     0.182 C 
ATOM      4  C2' M7G d          -6.507  22.026 -43.906  0.00  0.00     0.198 C 
ATOM      5  C1' M7G d          -7.170  21.463 -42.636  0.00  0.00     0.258 C 
ENDROOT
BRANCH   5   6
ATOM      6  N9  M7G d          -7.242  19.957 -42.686  0.00  0.00    -0.319 N 
ATOM      7  C8  M7G d          -7.883  18.985 -43.693  0.00  0.00     0.258 C 
ATOM      8  N7  M7G d          -7.919  17.545 -43.114  0.00  0.00    -0.342 N 
ATOM      9  CM7 M7G d          -8.434  16.672 -43.938  0.00  0.00     0.124 C 
ATOM     10  C5  M7G d          -7.781  17.897 -41.742  0.00  0.00     0.149 A 
ATOM     11  C6  M7G d          -7.959  17.165 -40.497  0.00  0.00     0.290 A 
ATOM     12  C4  M7G d          -7.437  19.316 -41.499  0.00  0.00     0.155 A 
ATOM     13  O6  M7G d          -8.269  16.002 -40.599  0.00  0.00    -0.265 OA
ATOM     14  N1  M7G d          -7.789  17.805 -39.288  0.00  0.00    -0.154 N 
ATOM     15  C2  M7G d          -7.402  19.114 -39.159  0.00  0.00     0.680 A 
ATOM     16  H13 M7G d          -7.958  17.282 -38.453  0.00  0.00     0.187 HD
ATOM     17  N3  M7G d          -7.227  19.870 -40.270  0.00  0.00    -0.174 N 
ATOM     18  H16 M7G d          -6.938  20.855 -40.187  0.00  0.00     0.186 HD
BRANCH  15  19
ATOM     19  N2  M7G d          -7.216  19.745 -37.955  0.00  0.00    -0.234 N 
ATOM     20  H14 M7G d          -6.924  20.733 -37.931  0.00  0.00     0.174 HD
ATOM     21  H15 M7G d          -7.368  19.231 -37.075  0.00  0.00     0.174 HD
ENDBRANCH  15  19
ENDBRANCH   5   6
BRANCH   4  22
ATOM     22  O2' M7G d          -5.083  21.921 -43.760  0.00  0.00    -0.388 OA
ATOM     23  H7  M7G d          -4.818  22.334 -42.946  0.00  0.00     0.210 HD
ENDBRANCH   4  22
BRANCH   1  24
ATOM     24  C5' M7G d          -9.298  23.377 -44.375  0.00  0.00     0.216 C 
BRANCH  24  25
ATOM     25  O5' M7G d          -9.570  24.721 -44.775  0.00  0.00    -0.287 OA
BRANCH  25  26
ATOM     26  PA  M7G d          -9.943  24.982 -46.354  0.00  0.00     0.418 P 
ATOM     27  O1A M7G d         -10.152  26.454 -46.651  0.00  0.00    -0.624 OA
ATOM     28  O2A M7G d          -9.040  24.160 -47.161  0.00  0.00    -0.624 OA
BRANCH  26  29
ATOM     29  O3A M7G d         -11.401  24.240 -46.516  0.00  0.00    -0.173 OA
BRANCH  29  30
ATOM     30  PB  M7G d         -12.765  24.758 -45.811  0.00  0.00     0.431 P 
ATOM     31  O1B M7G d         -13.092  26.221 -45.845  0.00  0.00    -0.616 OA
ATOM     32  O2B M7G d         -13.826  23.876 -46.428  0.00  0.00    -0.616 OA
ATOM     33  O3B M7G d         -12.807  24.546 -44.224  0.00  0.00    -0.616 OA
ENDBRANCH  29  30
ENDBRANCH  26  29
ENDBRANCH  25  26
ENDBRANCH  24  25
ENDBRANCH   1  24
BRANCH   3  34
ATOM     34  O3' M7G d          -6.010  24.194 -43.054  0.00  0.00    -0.390 OA
ATOM     35  H5  M7G d          -5.140  24.222 -43.434  0.00  0.00     0.210 HD
ENDBRANCH   3  34
TORSDOF 9
