REMARK  7 active torsions:
REMARK  status: ('A' for Active; 'I' for Inactive)
REMARK    1  A    between atoms: C1_1  and  S1_12 
REMARK    2  A    between atoms: C2_2  and  O2_3 
REMARK    3  A    between atoms: C3_4  and  O3_5 
REMARK    4  A    between atoms: C4_6  and  O4_7 
REMARK    5  A    between atoms: C5_8  and  C6_10 
REMARK    6  A    between atoms: C6_10  and  O6_11 
REMARK    7  A    between atoms: S1_12  and  C1'_13 
ROOT
ATOM      1  C1  IPT d         -14.813 -27.558 -26.129  0.00  0.00     0.215 C 
ATOM      2  C2  IPT d         -13.478 -27.362 -25.394  0.00  0.00     0.188 C 
ATOM      3  C3  IPT d         -12.296 -27.172 -26.349  0.00  0.00     0.181 C 
ATOM      4  C4  IPT d         -12.285 -28.257 -27.424  0.00  0.00     0.180 C 
ATOM      5  C5  IPT d         -13.673 -28.304 -28.077  0.00  0.00     0.178 C 
ATOM      6  O5  IPT d         -14.649 -28.608 -27.085  0.00  0.00    -0.363 OA
ENDROOT
BRANCH   1   7
ATOM      7  S1  IPT d         -16.070 -28.039 -24.979  0.00  0.00    -0.131 SA
BRANCH   7   8
ATOM      8  C1' IPT d         -17.684 -28.250 -25.689  0.00  0.00     0.041 C 
ATOM      9  C2' IPT d         -18.678 -27.326 -24.988  0.00  0.00     0.021 C 
ATOM     10  C3' IPT d         -17.731 -28.077 -27.206  0.00  0.00     0.021 C 
ENDBRANCH   7   8
ENDBRANCH   1   7
BRANCH   2  11
ATOM     11  O2  IPT d         -13.543 -26.246 -24.513  0.00  0.00    -0.389 OA
ATOM     12  H3  IPT d         -12.709 -26.144 -24.070  0.00  0.00     0.210 HD
ENDBRANCH   2  11
BRANCH   3  13
ATOM     13  O3  IPT d         -11.072 -27.218 -25.612  0.00  0.00    -0.390 OA
ATOM     14  H5  IPT d         -10.996 -28.060 -25.178  0.00  0.00     0.210 HD
ENDBRANCH   3  13
BRANCH   5  15
ATOM     15  C6  IPT d         -13.830 -29.312 -29.203  0.00  0.00     0.198 C 
BRANCH  15  16
ATOM     16  O6  IPT d         -12.731 -29.243 -30.115  0.00  0.00    -0.398 OA
ATOM     17  H11 IPT d         -12.855 -29.882 -30.807  0.00  0.00     0.209 HD
ENDBRANCH  15  16
ENDBRANCH   5  15
BRANCH   4  18
ATOM     18  O4  IPT d         -11.926 -29.516 -26.827  0.00  0.00    -0.390 OA
ATOM     19  H7  IPT d         -11.062 -29.446 -26.437  0.00  0.00     0.210 HD
ENDBRANCH   4  18
TORSDOF 7
