REMARK  8 active torsions:
REMARK  status: ('A' for Active; 'I' for Inactive)
REMARK    1  A    between atoms: P_24  and  C14_15 
REMARK    2  A    between atoms: CAV_17  and  CBV_20 
REMARK    3  A    between atoms: OP_37  and  P_24 
REMARK    4  A    between atoms: CA_27  and  CB_28 
REMARK    5  A    between atoms: CA_27  and  C_35 
REMARK    6  A    between atoms: OP_37  and  CA_27 
REMARK    7  A    between atoms: CB_28  and  CG_29 
REMARK    8  A    between atoms: C_35  and  OS_38 
ROOT
ATOM      1  OI  MOL d          18.565   8.155  19.663  0.00  0.00    -0.273 OA
ATOM      2  C1  MOL d          21.044   5.474  19.163  0.00  0.00    -0.038 A 
ATOM      3  C2  MOL d          20.940   4.100  19.149  0.00  0.00     0.008 A 
ATOM      4  C3  MOL d          22.021   3.263  19.505  0.00  0.00     0.001 A 
ATOM      5  C4  MOL d          23.273   3.770  19.770  0.00  0.00     0.012 A 
ATOM      6  C5  MOL d          23.441   5.206  19.778  0.00  0.00    -0.025 A 
ATOM      7  C6  MOL d          22.339   6.053  19.453  0.00  0.00    -0.019 A 
ATOM      8  C7  MOL d          22.508   7.460  19.546  0.00  0.00     0.020 A 
ATOM      9  C8  MOL d          23.719   8.017  19.897  0.00  0.00    -0.055 A 
ATOM     10  C9  MOL d          24.811   7.171  20.200  0.00  0.00     0.008 A 
ATOM     11  C10 MOL d          24.654   5.813  20.169  0.00  0.00     0.013 A 
ATOM     12  C11 MOL d          19.796   6.315  18.899  0.00  0.00     0.142 C 
ATOM     13  C12 MOL d          19.447   7.308  19.993  0.00  0.00     0.222 C 
ATOM     14  C13 MOL d          23.875   9.510  19.976  0.00  0.00     0.077 C 
ATOM     15  C14 MOL d          23.340   9.986  21.335  0.00  0.00     0.209 C 
ATOM     16  NV  MOL d          20.015   7.334  21.198  0.00  0.00    -0.347 N 
ATOM     17  CAV MOL d          19.870   8.339  22.250  0.00  0.00     0.180 C 
ATOM     18  CV  MOL d          21.375   8.687  22.223  0.00  0.00     0.241 C 
ATOM     19  OV  MOL d          22.180   8.078  22.948  0.00  0.00    -0.271 OA
ATOM     20  NL  MOL d          21.927   9.665  21.494  0.00  0.00    -0.343 N 
ATOM     21  H12 MOL d          20.619   6.566  21.411  0.00  0.00     0.163 HD
ATOM     22  H21 MOL d          21.288  10.250  20.995  0.00  0.00     0.163 HD
ENDROOT
BRANCH  15  23
ATOM     23  P   MOL d          23.516  11.772  21.455  0.00  0.00     0.274 P 
ATOM     24  O   MOL d          24.929  12.126  21.295  0.00  0.00    -0.645 OA
ATOM     25  OH  MOL d          22.613  12.442  20.523  0.00  0.00    -0.645 OA
BRANCH  23  26
ATOM     26  OP  MOL d          23.251  12.170  22.960  0.00  0.00    -0.295 OA
BRANCH  26  27
ATOM     27  CA  MOL d          24.046  12.973  23.776  0.00  0.00     0.236 C 
BRANCH  27  28
ATOM     28  CB  MOL d          23.247  13.789  24.826  0.00  0.00     0.081 C 
BRANCH  28  29
ATOM     29  CG  MOL d          21.977  13.133  25.310  0.00  0.00    -0.055 A 
ATOM     30  CD1 MOL d          20.987  12.752  24.427  0.00  0.00     0.007 A 
ATOM     31  CE1 MOL d          19.870  12.110  24.868  0.00  0.00     0.001 A 
ATOM     32  CZ  MOL d          19.638  11.961  26.211  0.00  0.00     0.000 A 
ATOM     33  CE2 MOL d          20.579  12.382  27.115  0.00  0.00     0.001 A 
ATOM     34  CD2 MOL d          21.741  12.982  26.664  0.00  0.00     0.007 A 
ENDBRANCH  28  29
ENDBRANCH  27  28
BRANCH  27  35
ATOM     35  C   MOL d          24.872  11.890  24.461  0.00  0.00     0.288 C 
ATOM     36  OE  MOL d          24.623  10.724  24.565  0.00  0.00    -0.262 OA
BRANCH  35  37
ATOM     37  OS  MOL d          25.743  12.497  25.260  0.00  0.00    -0.324 OA
ATOM     38  CS  MOL d          27.035  11.771  25.469  0.00  0.00     0.213 C 
ENDBRANCH  35  37
ENDBRANCH  27  35
ENDBRANCH  26  27
ENDBRANCH  23  26
ENDBRANCH  15  23
BRANCH  17  39
ATOM     39  CBV MOL d          19.330   7.877  23.622  0.00  0.00     0.009 C 
ATOM     40  CV1 MOL d          19.178   9.322  24.099  0.00  0.00     0.012 C 
ATOM     41  CV2 MOL d          17.943   7.537  23.064  0.00  0.00     0.012 C 
ENDBRANCH  17  39
TORSDOF 8
