REMARK  8 active torsions:
REMARK  status: ('A' for Active; 'I' for Inactive)
REMARK    1  A    between atoms: C1_1  and  C2_2 
REMARK    2  A    between atoms: C7B_16  and  C1_1 
REMARK    3  A    between atoms: C2_2  and  O1_18 
REMARK    4  A    between atoms: C2B_5  and  O2B_10 
REMARK    5  A    between atoms: C3B_6  and  O3B_11 
REMARK    6  A    between atoms: C4B_7  and  O4B_12 
REMARK    7  A    between atoms: C5B_8  and  C6B_9 
REMARK    8  A    between atoms: C6B_9  and  O6B_14 
ROOT
ATOM      1  C1B GI2 d          -0.649  10.623  10.580  0.00  0.00     0.138 A 
ATOM      2  C2B GI2 d           0.276  11.462   9.681  0.00  0.00     0.219 C 
ATOM      3  C3B GI2 d          -0.337  11.704   8.301  0.00  0.00     0.185 C 
ATOM      4  C4B GI2 d          -1.234  10.509   7.868  0.00  0.00     0.175 C 
ATOM      5  C5B GI2 d          -2.421  10.392   8.839  0.00  0.00     0.145 C 
ATOM      6  N1B GI2 d          -1.894  10.112  10.186  0.00  0.00    -0.332 N 
ATOM      7  N2B GI2 d          -0.459  10.182  11.822  0.00  0.00    -0.235 NA
ATOM      8  C7B GI2 d          -1.494   9.449  12.225  0.00  0.00     0.061 A 
ATOM      9  C8B GI2 d          -2.372   9.395  11.217  0.00  0.00     0.120 A 
ENDROOT
BRANCH   8  10
ATOM     10  C1  GI2 d          -1.608   8.823  13.605  0.00  0.00     0.171 C 
BRANCH  10  11
ATOM     11  C2  GI2 d          -0.540   7.768  13.794  0.00  0.00     0.264 C 
ATOM     12  O5  GI2 d           0.081   7.310  12.832  0.00  0.00    -0.265 OA
BRANCH  11  13
ATOM     13  O1  GI2 d          -0.283   7.326  15.049  0.00  0.00    -0.326 OA
ATOM     14  C4  GI2 d           0.459   6.081  15.102  0.00  0.00     0.213 C 
ENDBRANCH  11  13
ENDBRANCH  10  11
ENDBRANCH   8  10
BRANCH   2  15
ATOM     15  O2B GI2 d           0.556  12.720  10.288  0.00  0.00    -0.385 OA
ATOM     16  H12 GI2 d           0.937  12.578  11.146  0.00  0.00     0.210 HD
ENDBRANCH   2  15
BRANCH   5  17
ATOM     17  C6B GI2 d          -3.405   9.307   8.449  0.00  0.00     0.192 C 
BRANCH  17  18
ATOM     18  O6B GI2 d          -2.838   8.000   8.558  0.00  0.00    -0.399 OA
ATOM     19  H15 GI2 d          -2.569   7.846   9.456  0.00  0.00     0.209 HD
ENDBRANCH  17  18
ENDBRANCH   5  17
BRANCH   3  20
ATOM     20  O3B GI2 d           0.734  11.981   7.410  0.00  0.00    -0.390 OA
ATOM     21  H13 GI2 d           1.235  12.719   7.738  0.00  0.00     0.210 HD
ENDBRANCH   3  20
BRANCH   4  22
ATOM     22  O4B GI2 d          -1.704  10.637   6.531  0.00  0.00    -0.391 OA
ATOM     23  H14 GI2 d          -0.963  10.708   5.941  0.00  0.00     0.210 HD
ENDBRANCH   4  22
TORSDOF 8
