REMARK  5 active torsions:
REMARK  status: ('A' for Active; 'I' for Inactive)
REMARK    1  A    between atoms: N1_9  and  C1'_10 
REMARK    2  A    between atoms: C2'_11  and  O2'_12 
REMARK    3  A    between atoms: C3'_13  and  O3'_14 
REMARK    4  A    between atoms: C4'_15  and  C5'_17 
REMARK    5  A    between atoms: C5'_17  and  O5'_18 
ROOT
ATOM      1  C1' MOL d          52.470 -19.300  -7.643  0.00  0.00     0.264 C 
ATOM      2  C2' MOL d          52.046 -17.839  -7.735  0.00  0.00     0.198 C 
ATOM      3  C3' MOL d          52.129 -17.358  -6.300  0.00  0.00     0.182 C 
ATOM      4  C4' MOL d          53.309 -18.161  -5.781  0.00  0.00     0.179 C 
ATOM      5  O4' MOL d          53.213 -19.451  -6.442  0.00  0.00    -0.353 OA
ENDROOT
BRANCH   1   6
ATOM      6  N1  MOL d          51.311 -20.238  -7.678  0.00  0.00    -0.277 N 
ATOM      7  C2  MOL d          50.751 -20.556  -8.881  0.00  0.00     0.331 A 
ATOM      8  N3  MOL d          49.685 -21.416  -8.937  0.00  0.00    -0.273 N 
ATOM      9  O2  MOL d          51.200 -20.077  -9.907  0.00  0.00    -0.246 OA
ATOM     10  C4  MOL d          49.178 -21.958  -7.773  0.00  0.00     0.289 A 
ATOM     11  H   MOL d          49.276 -21.650  -9.819  0.00  0.00     0.173 HD
ATOM     12  C5  MOL d          49.784 -21.607  -6.518  0.00  0.00     0.199 A 
ATOM     13  O4  MOL d          48.222 -22.729  -7.805  0.00  0.00    -0.265 OA
ATOM     14  F5  MOL d          49.312 -22.115  -5.402  0.00  0.00    -0.199 F 
ATOM     15  C6  MOL d          50.826 -20.765  -6.495  0.00  0.00     0.146 A 
ENDBRANCH   1   6
BRANCH   2  16
ATOM     16  O2' MOL d          52.979 -17.133  -8.528  0.00  0.00    -0.388 OA
ATOM     17  H   MOL d          52.717 -16.222  -8.587  0.00  0.00     0.210 HD
ENDBRANCH   2  16
BRANCH   3  18
ATOM     18  O3' MOL d          52.415 -15.966  -6.263  0.00  0.00    -0.390 OA
ATOM     19  H   MOL d          52.464 -15.678  -5.359  0.00  0.00     0.210 HD
ENDBRANCH   3  18
BRANCH   4  20
ATOM     20  C5' MOL d          53.177 -18.362  -4.284  0.00  0.00     0.198 C 
BRANCH  20  21
ATOM     21  O5' MOL d          51.931 -18.851  -3.801  0.00  0.00    -0.398 OA
ATOM     22  H   MOL d          51.240 -18.243  -4.038  0.00  0.00     0.209 HD
ENDBRANCH  20  21
ENDBRANCH   4  20
TORSDOF 5
