REMARK  1 active torsions:
REMARK  status: ('A' for Active; 'I' for Inactive)
REMARK    1  A    between atoms: C6_6  and  N7_7 
ROOT
ATOM      1  C1  AQO d          18.157  17.146  19.110  0.00  0.00     0.001 A 
ATOM      2  C2  AQO d          16.848  16.712  18.739  0.00  0.00     0.002 A 
ATOM      3  C3  AQO d          15.840  16.547  19.720  0.00  0.00     0.033 A 
ATOM      4  C4  AQO d          16.113  16.813  21.102  0.00  0.00     0.091 A 
ATOM      5  N5  AQO d          15.098  16.646  22.052  0.00  0.00    -0.064 NA
ATOM      6  C6  AQO d          15.324  16.884  23.325  0.00  0.00     0.701 A 
ATOM      7  N8  AQO d          16.616  17.327  23.810  0.00  0.00    -0.154 N 
ATOM      8  C9  AQO d          17.722  17.525  22.891  0.00  0.00     0.272 A 
ATOM      9  O10 AQO d          18.818  17.905  23.340  0.00  0.00    -0.267 OA
ATOM     10  C11 AQO d          17.441  17.252  21.473  0.00  0.00     0.062 A 
ATOM     11  C12 AQO d          18.448  17.413  20.468  0.00  0.00     0.019 A 
ATOM     12  H6  AQO d          16.747  17.498  24.787  0.00  0.00     0.187 HD
ENDROOT
BRANCH   6  13
ATOM     13  N7  AQO d          14.336  16.730  24.303  0.00  0.00    -0.233 N 
ATOM     14  H4  AQO d          13.391  16.418  24.036  0.00  0.00     0.174 HD
ATOM     15  H5  AQO d          14.553  16.928  25.290  0.00  0.00     0.174 HD
ENDBRANCH   6  13
TORSDOF 1
