2qhd_ligand

Created by X-TOOL on Fri Sep 26 17:34:38 2014
 37 36  0  0  0  0  0  0  0  0999 V2000
  -24.8230   30.3350  -24.1430  O 0  0  0  1  0  1
  -25.2060   28.1680  -23.6500  O 0  0  0  1  0  1
  -25.5260   29.2010  -24.1740  C 0  5  0  1  0  3
  -26.8610   28.9430  -24.8610  C 0  0  0  3  0  4
  -27.8320   30.0450  -24.5610  C 0  0  0  3  0  4
  -29.1830   29.3580  -24.2360  C 0  0  0  3  0  4
  -29.6580   29.6630  -22.8560  C 0  0  0  3  0  4
  -30.0130   28.3540  -22.2240  C 0  0  0  3  0  4
  -31.0130   28.4010  -21.0010  C 0  0  0  3  0  4
  -30.2980   28.6960  -19.7310  C 0  0  0  3  0  4
  -30.0790   27.3930  -18.9510  C 0  0  0  3  0  4
  -28.5670   27.1730  -18.8950  C 0  0  0  3  0  4
  -28.4200   25.9100  -18.1480  C 0  0  0  3  0  4
  -27.6780   24.9430  -19.0300  C 0  0  0  4  0  4
  -27.2743   27.9894  -24.5008  H 0  0  0  1  0  1
  -26.7030   28.8868  -25.9481  H 0  0  0  1  0  1
  -27.9408   30.7050  -25.4342  H 0  0  0  1  0  1
  -27.4863   30.6328  -23.6979  H 0  0  0  1  0  1
  -29.0585   28.2695  -24.3342  H 0  0  0  1  0  1
  -29.9388   29.7070  -24.9550  H 0  0  0  1  0  1
  -30.5416   30.3170  -22.8951  H 0  0  0  1  0  1
  -28.8610   30.1575  -22.2814  H 0  0  0  1  0  1
  -29.0795   27.8900  -21.8729  H 0  0  0  1  0  1
  -30.4672   27.7216  -23.0010  H 0  0  0  1  0  1
  -31.5158   27.4268  -20.9113  H 0  0  0  1  0  1
  -31.7628   29.1855  -21.1808  H 0  0  0  1  0  1
  -30.8992   29.3894  -19.1246  H 0  0  0  1  0  1
  -29.3246   29.1558  -19.9568  H 0  0  0  1  0  1
  -30.5668   26.5535  -19.4679  H 0  0  0  1  0  1
  -30.4880   27.4849  -17.9340  H 0  0  0  1  0  1
  -28.0704   28.0002  -18.3667  H 0  0  0  1  0  1
  -28.1472   27.0800  -19.9075  H 0  0  0  1  0  1
  -29.4115   25.5046  -17.8980  H 0  0  0  1  0  1
  -27.8517   26.0855  -17.2227  H 0  0  0  1  0  1
  -27.5511   23.9871  -18.5007  H 0  0  0  1  0  1
  -26.6902   25.3579  -19.2794  H 0  0  0  1  0  1
  -28.2501   24.7769  -19.9547  H 0  0  0  1  0  1
  1  3  2  0  0  2
  3  2  2  0  0  2
  3  4  1  0  0  2
  4  5  1  0  0  2
  5  6  1  0  0  2
  6  7  1  0  0  2
  7  8  1  0  0  2
  8  9  1  0  0  2
  9 10  1  0  0  2
 10 11  1  0  0  2
 11 12  1  0  0  2
 12 13  1  0  0  2
 13 14  1  0  0  2
  4 15  1  0  0  2
  4 16  1  0  0  2
  5 17  1  0  0  2
  5 18  1  0  0  2
  6 19  1  0  0  2
  6 20  1  0  0  2
  7 21  1  0  0  2
  7 22  1  0  0  2
  8 23  1  0  0  2
  8 24  1  0  0  2
  9 25  1  0  0  2
  9 26  1  0  0  2
 10 27  1  0  0  2
 10 28  1  0  0  2
 11 29  1  0  0  2
 11 30  1  0  0  2
 12 31  1  0  0  2
 12 32  1  0  0  2
 13 33  1  0  0  2
 13 34  1  0  0  2
 14 35  1  0  0  2
 14 36  1  0  0  2
 14 37  1  0  0  2
M  END
> <MOLECULAR_FORMULA>
C12H23O2

> <MOLECULAR_WEIGHT>
199.1

> <NUM_HB_ATOMS>
2  

> <NUM_ROTOR>
9  

> <XLOGP2>
5.08 

$$$$
