REMARK  10 active torsions:
REMARK  status: ('A' for Active; 'I' for Inactive)
REMARK    1  A    between atoms: C1_3  and  C2_4 
REMARK    2  A    between atoms: C2_4  and  C3_5 
REMARK    3  A    between atoms: C3_5  and  C4_6 
REMARK    4  A    between atoms: C4_6  and  C5_7 
REMARK    5  A    between atoms: C5_7  and  C6_8 
REMARK    6  A    between atoms: C6_8  and  C7_9 
REMARK    7  A    between atoms: C7_9  and  C8_10 
REMARK    8  A    between atoms: C8_10  and  C9_11 
REMARK    9  A    between atoms: C9_11  and  C10_12 
REMARK   10  A    between atoms: C10_12  and  C11_13 
ROOT
ATOM      1  C5  DAO d         -29.658  29.663 -22.856  0.00  0.00     0.000 C 
ENDROOT
BRANCH   1   2
ATOM      2  C4  DAO d         -29.183  29.358 -24.236  0.00  0.00     0.001 C 
BRANCH   2   3
ATOM      3  C3  DAO d         -27.832  30.045 -24.561  0.00  0.00     0.010 C 
BRANCH   3   4
ATOM      4  C2  DAO d         -26.861  28.943 -24.861  0.00  0.00     0.113 C 
BRANCH   4   5
ATOM      5  C1  DAO d         -25.526  29.201 -24.174  0.00  0.00     0.172 C 
ATOM      6  O1  DAO d         -24.823  30.335 -24.143  0.00  0.00    -0.648 OA
ATOM      7  O2  DAO d         -25.206  28.168 -23.650  0.00  0.00    -0.648 OA
ENDBRANCH   4   5
ENDBRANCH   3   4
ENDBRANCH   2   3
ENDBRANCH   1   2
BRANCH   1   8
ATOM      8  C6  DAO d         -30.013  28.354 -22.224  0.00  0.00     0.000 C 
BRANCH   8   9
ATOM      9  C7  DAO d         -31.013  28.401 -21.001  0.00  0.00     0.000 C 
BRANCH   9  10
ATOM     10  C8  DAO d         -30.298  28.696 -19.731  0.00  0.00     0.000 C 
BRANCH  10  11
ATOM     11  C9  DAO d         -30.079  27.393 -18.951  0.00  0.00     0.000 C 
BRANCH  11  12
ATOM     12  C10 DAO d         -28.567  27.173 -18.895  0.00  0.00    -0.000 C 
BRANCH  12  13
ATOM     13  C11 DAO d         -28.420  25.910 -18.148  0.00  0.00    -0.005 C 
ATOM     14  C12 DAO d         -27.678  24.943 -19.030  0.00  0.00     0.005 C 
ENDBRANCH  12  13
ENDBRANCH  11  12
ENDBRANCH  10  11
ENDBRANCH   9  10
ENDBRANCH   8   9
ENDBRANCH   1   8
TORSDOF 10
