REMARK  5 active torsions:
REMARK  status: ('A' for Active; 'I' for Inactive)
REMARK    1  A    between atoms: N4_32  and  C1_1 
REMARK    2  A    between atoms: C2_4  and  C17_20 
REMARK    3  A    between atoms: C3_5  and  C5_6 
REMARK    4  A    between atoms: C10_13  and  C16_19 
REMARK    5  A    between atoms: C27_30  and  C10_13 
ROOT
ATOM      1  C1  MOL d          23.643  14.929  32.101  0.00  0.00     0.148 A 
ATOM      2  N1  MOL d          22.471  15.633  32.196  0.00  0.00    -0.132 NA
ATOM      3  N2  MOL d          21.314  14.948  32.296  0.00  0.00    -0.147 NA
ATOM      4  C2  MOL d          21.182  13.571  32.315  0.00  0.00     0.100 A 
ATOM      5  C3  MOL d          22.479  12.769  32.212  0.00  0.00     0.009 A 
ATOM      6  C4  MOL d          23.657  13.507  32.108  0.00  0.00     0.067 A 
ENDROOT
BRANCH   1   7
ATOM      7  N4  MOL d          24.832  15.681  31.989  0.00  0.00    -0.361 N 
ATOM      8  C28 MOL d          26.172  15.050  32.023  0.00  0.00     0.157 C 
ATOM      9  C27 MOL d          26.602  14.818  30.559  0.00  0.00     0.208 C 
ATOM     10  N5  MOL d          26.705  16.130  29.882  0.00  0.00    -0.068 N 
ATOM     11  C30 MOL d          25.425  16.889  29.889  0.00  0.00     0.252 C 
ATOM     12  H27 MOL d          26.983  15.977  28.925  0.00  0.00     0.277 HD
ATOM     13  H28 MOL d          27.407  16.680  30.352  0.00  0.00     0.277 HD
ATOM     14  C29 MOL d          24.796  17.003  31.304  0.00  0.00     0.152 C 
BRANCH   9  15
ATOM     15  C10 MOL d          27.870  13.963  30.408  0.00  0.00     0.073 C 
BRANCH  15  16
ATOM     16  C16 MOL d          27.591  12.493  30.662  0.00  0.00    -0.056 A 
ATOM     17  C11 MOL d          26.824  11.731  29.729  0.00  0.00     0.007 A 
ATOM     18  C12 MOL d          26.555  10.360  29.957  0.00  0.00     0.001 A 
ATOM     19  C13 MOL d          27.048   9.734  31.122  0.00  0.00     0.000 A 
ATOM     20  C14 MOL d          27.814  10.480  32.057  0.00  0.00     0.001 A 
ATOM     21  C15 MOL d          28.083  11.851  31.827  0.00  0.00     0.007 A 
ENDBRANCH  15  16
ENDBRANCH   9  15
ENDBRANCH   1   7
BRANCH   5  22
ATOM     22  C5  MOL d          22.531  11.251  32.218  0.00  0.00    -0.021 A 
ATOM     23  C6  MOL d          23.223  10.561  33.237  0.00  0.00     0.031 A 
ATOM     24  C7  MOL d          23.249   9.152  33.226  0.00  0.00     0.117 A 
ATOM     25  N3  MOL d          22.627   8.409  32.265  0.00  0.00    -0.273 NA
ATOM     26  C8  MOL d          21.956   9.069  31.275  0.00  0.00     0.117 A 
ATOM     27  C9  MOL d          21.888  10.473  31.218  0.00  0.00     0.031 A 
ENDBRANCH   5  22
BRANCH   4  28
ATOM     28  C17 MOL d          19.810  12.961  32.427  0.00  0.00    -0.004 A 
ATOM     29  C18 MOL d          18.884  13.141  31.370  0.00  0.00     0.026 A 
ATOM     30  C19 MOL d          17.585  12.541  31.454  0.00  0.00    -0.025 A 
ATOM     31  C20 MOL d          17.210  11.748  32.614  0.00  0.00    -0.026 A 
ATOM     32  C23 MOL d          16.648  12.713  30.386  0.00  0.00     0.012 A 
ATOM     33  C21 MOL d          18.148  11.583  33.666  0.00  0.00     0.013 A 
ATOM     34  C26 MOL d          15.917  11.143  32.688  0.00  0.00     0.012 A 
ATOM     35  C22 MOL d          19.429  12.185  33.564  0.00  0.00     0.015 A 
ATOM     36  C25 MOL d          15.003  11.325  31.611  0.00  0.00     0.001 A 
ATOM     37  C24 MOL d          15.362  12.102  30.471  0.00  0.00     0.001 A 
ENDBRANCH   4  28
TORSDOF 5
