REMARK  9 active torsions:
REMARK  status: ('A' for Active; 'I' for Inactive)
REMARK    1  A    between atoms: C10_14  and  O6_16 
REMARK    2  A    between atoms: C16_22  and  O7_23 
REMARK    3  A    between atoms: C27_35  and  O9_36 
REMARK    4  A    between atoms: C28_37  and  O10_38 
REMARK    5  A    between atoms: C34_45  and  C35_46 
REMARK    6  A    between atoms: C35_46  and  C36_47 
REMARK    7  A    between atoms: C36_47  and  C37_48 
REMARK    8  A    between atoms: C39_50  and  O12_51 
REMARK    9  A    between atoms: C40_52  and  O13_53 
ROOT
ATOM      1  C1  RAP d           4.633   8.500  12.847  0.00  0.00     0.282 C 
ATOM      2  O1  RAP d           4.264   9.593  13.679  0.00  0.00    -0.314 OA
ATOM      3  O2  RAP d           5.367   8.726  11.888  0.00  0.00    -0.263 OA
ATOM      4  C2  RAP d           4.177   7.070  13.135  0.00  0.00     0.187 C 
ATOM      5  C3  RAP d           3.720   6.374  11.862  0.00  0.00     0.035 C 
ATOM      6  C4  RAP d           2.354   6.832  11.372  0.00  0.00     0.004 C 
ATOM      7  C5  RAP d           1.360   6.653  12.505  0.00  0.00     0.020 C 
ATOM      8  C6  RAP d           1.783   7.430  13.713  0.00  0.00     0.127 C 
ATOM      9  N7  RAP d           3.105   6.934  14.127  0.00  0.00    -0.331 N 
ATOM     10  C8  RAP d           3.385   6.549  15.382  0.00  0.00     0.296 C 
ATOM     11  O3  RAP d           4.552   6.237  15.654  0.00  0.00    -0.264 OA
ATOM     12  C9  RAP d           2.397   6.409  16.381  0.00  0.00     0.278 C 
ATOM     13  O4  RAP d           1.783   5.339  16.474  0.00  0.00    -0.281 OA
ATOM     14  C10 RAP d           2.056   7.541  17.368  0.00  0.00     0.238 C 
ATOM     15  O5  RAP d           1.280   8.457  16.631  0.00  0.00    -0.343 OA
ATOM     16  C11 RAP d           3.332   8.282  17.940  0.00  0.00     0.053 C 
ATOM     17  C12 RAP d           2.942   9.591  18.664  0.00  0.00     0.013 C 
ATOM     18  C13 RAP d           2.010  10.423  17.795  0.00  0.00     0.033 C 
ATOM     19  C14 RAP d           0.842   9.628  17.221  0.00  0.00     0.128 C 
ATOM     20  C15 RAP d           0.193  10.413  16.094  0.00  0.00     0.068 C 
ATOM     21  C16 RAP d          -0.582  11.664  16.490  0.00  0.00     0.151 C 
ATOM     22  C17 RAP d          -1.145  12.371  15.276  0.00  0.00    -0.055 C 
ATOM     23  C18 RAP d          -0.672  13.571  14.967  0.00  0.00     0.005 C 
ATOM     24  C19 RAP d          -1.096  14.367  13.807  0.00  0.00     0.000 C 
ATOM     25  C20 RAP d          -0.586  15.578  13.634  0.00  0.00    -0.000 C 
ATOM     26  C21 RAP d          -0.900  16.377  12.435  0.00  0.00    -0.004 C 
ATOM     27  C22 RAP d          -0.248  17.488  12.149  0.00  0.00    -0.022 C 
ATOM     28  C23 RAP d          -0.450  18.289  10.881  0.00  0.00     0.005 C 
ATOM     29  C24 RAP d           0.911  18.401  10.216  0.00  0.00     0.020 C 
ATOM     30  C25 RAP d           1.674  17.112   9.975  0.00  0.00     0.055 C 
ATOM     31  C26 RAP d           3.157  17.391   9.771  0.00  0.00     0.162 C 
ATOM     32  O8  RAP d           3.611  17.669   8.663  0.00  0.00    -0.295 OA
ATOM     33  C27 RAP d           4.048  17.297  11.005  0.00  0.00     0.223 C 
ATOM     34  C28 RAP d           4.513  15.841  11.329  0.00  0.00     0.183 C 
ATOM     35  C29 RAP d           3.462  15.014  12.094  0.00  0.00    -0.056 C 
ATOM     36  C30 RAP d           2.808  13.989  11.549  0.00  0.00    -0.010 C 
ATOM     37  C31 RAP d           1.773  13.042  12.175  0.00  0.00     0.074 C 
ATOM     38  C32 RAP d           2.433  11.701  12.495  0.00  0.00     0.136 C 
ATOM     39  O11 RAP d           2.264  10.701  11.791  0.00  0.00    -0.297 OA
ATOM     40  C33 RAP d           3.358  11.693  13.707  0.00  0.00     0.112 C 
ATOM     41  C34 RAP d           4.630  10.909  13.455  0.00  0.00     0.142 C 
ATOM     42  C43 RAP d           4.258   7.412  18.840  0.00  0.00     0.016 C 
ATOM     43  C44 RAP d          -2.257  11.621  14.522  0.00  0.00     0.046 C 
ATOM     44  C45 RAP d          -1.014  19.668  11.190  0.00  0.00     0.014 C 
ATOM     45  C46 RAP d           1.099  16.327   8.793  0.00  0.00     0.018 C 
ATOM     46  C47 RAP d           3.222  15.475  13.519  0.00  0.00     0.046 C 
ATOM     47  C48 RAP d           0.625  12.830  11.175  0.00  0.00     0.022 C 
ENDROOT
BRANCH  41  48
ATOM     48  C35 RAP d           5.846  11.169  14.367  0.00  0.00     0.012 C 
ATOM     49  C49 RAP d           5.482  11.130  15.824  0.00  0.00     0.012 C 
BRANCH  48  50
ATOM     50  C36 RAP d           6.551  12.480  14.027  0.00  0.00     0.011 C 
BRANCH  50  51
ATOM     51  C37 RAP d           7.210  12.586  12.650  0.00  0.00    -0.012 C 
ATOM     52  C38 RAP d           7.812  13.983  12.461  0.00  0.00     0.039 C 
ATOM     53  C39 RAP d           8.386  14.202  11.059  0.00  0.00     0.150 C 
ATOM     54  C40 RAP d           9.399  13.057  10.711  0.00  0.00     0.147 C 
ATOM     55  C41 RAP d           8.819  11.645  10.930  0.00  0.00     0.035 C 
ATOM     56  C42 RAP d           8.243  11.505  12.332  0.00  0.00     0.007 C 
BRANCH  53  57
ATOM     57  O12 RAP d           9.041  15.444  11.086  0.00  0.00    -0.388 OA
ATOM     58  C52 RAP d           8.352  16.524  10.556  0.00  0.00     0.202 C 
ENDBRANCH  53  57
BRANCH  54  59
ATOM     59  O13 RAP d           9.803  13.189   9.349  0.00  0.00    -0.393 OA
ATOM     60  H45 RAP d          10.417  12.497   9.133  0.00  0.00     0.210 HD
ENDBRANCH  54  59
ENDBRANCH  50  51
ENDBRANCH  48  50
ENDBRANCH  41  48
BRANCH  34  61
ATOM     61  O10 RAP d           4.824  15.200  10.084  0.00  0.00    -0.388 OA
ATOM     62  H31 RAP d           5.111  14.310  10.250  0.00  0.00     0.210 HD
ENDBRANCH  34  61
BRANCH  33  63
ATOM     63  O9  RAP d           5.210  18.050  10.778  0.00  0.00    -0.380 OA
ATOM     64  C51 RAP d           5.134  19.387  11.130  0.00  0.00     0.202 C 
ENDBRANCH  33  63
BRANCH  14  65
ATOM     65  O6  RAP d           1.310   6.992  18.458  0.00  0.00    -0.359 OA
ATOM     66  H10 RAP d           0.545   6.540  18.121  0.00  0.00     0.213 HD
ENDBRANCH  14  65
BRANCH  21  67
ATOM     67  O7  RAP d          -1.627  11.272  17.324  0.00  0.00    -0.386 OA
ATOM     68  C50 RAP d          -2.123  12.243  18.189  0.00  0.00     0.202 C 
ENDBRANCH  21  67
TORSDOF 9
