2qrh_ligand

Created by X-TOOL on Fri Sep 26 17:34:40 2014
 38 40  0  0  0  0  0  0  0  0999 V2000
   36.8630   24.4410   30.8680  C 0  0  0  2  0  3
   37.6340   24.8740   31.9530  C 0  0  0  2  0  3
   37.0060   25.3460   33.1030  C 0  0  0  2  0  3
   35.6120   25.3910   33.1770  C 0  0  0  2  0  3
   34.8420   24.9550   32.0950  C 0  0  0  2  0  3
   35.4680   24.4780   30.9410  C 0  0  0  1  0  3
   34.7020   24.0540   29.8520  C 0  0  0  1  0  3
   35.2310   23.3450   28.6120  C 0  0  0  3  0  4
   33.3890   24.2240   29.7090  N 0  0  0  1  0  2
   32.9030   23.7020   28.4730  O 0  0  0  1  0  2
   33.9570   22.9260   27.8830  C 0  0  0  1  0  4
   33.7250   21.5120   28.1200  O 0  0  0  1  0  2
   32.4970   21.0230   27.5240  C 0  0  0  2  0  4
   32.3190   19.5650   27.9670  C 0  0  0  3  0  4
   33.3060   18.7600   27.3130  O 0  0  0  2  0  2
   32.5900   21.1960   25.9930  C 0  0  0  2  0  4
   31.3940   20.7240   25.3640  O 0  0  0  2  0  2
   32.8320   22.6630   25.6110  C 0  0  0  2  0  4
   33.0330   22.7460   24.1940  O 0  0  0  2  0  2
   34.0550   23.2250   26.3670  C 0  0  0  2  0  4
   34.1880   24.6390   26.1340  O 0  0  0  2  0  2
   37.3486   24.0765   29.9700  H 0  0  0  1  0  1
   38.7162   24.8421   31.8984  H 0  0  0  1  0  1
   37.6019   25.6800   33.9446  H 0  0  0  1  0  1
   35.1278   25.7636   34.0724  H 0  0  0  1  0  1
   33.7599   24.9870   32.1514  H 0  0  0  1  0  1
   35.8356   22.4680   28.8863  H 0  0  0  1  0  1
   35.8335   24.0270   27.9940  H 0  0  0  1  0  1
   31.6439   21.6119   27.8919  H 0  0  0  1  0  1
   31.3137   19.2146   27.6902  H 0  0  0  1  0  1
   32.4456   19.4918   29.0572  H 0  0  0  1  0  1
   34.1726   19.0663   27.5530  H 0  0  0  1  0  1
   33.4379   20.5974   25.6287  H 0  0  0  1  0  1
   31.4664   20.8370   24.4235  H 0  0  0  1  0  1
   31.9462   23.2557   25.8831  H 0  0  0  1  0  1
   32.2612   22.4198   23.7461  H 0  0  0  1  0  1
   34.9556   22.7272   25.9784  H 0  0  0  1  0  1
   33.4059   25.0840   26.4386  H 0  0  0  1  0  1
  1  2  4  0  0  1
  1  6  4  0  0  1
  2  3  4  0  0  1
  3  4  4  0  0  1
  4  5  4  0  0  1
  5  6  4  0  0  1
  6  7  1  0  0  2
  7  8  1  0  0  1
  7  9  2  0  0  1
  8 11  1  0  0  1
  9 10  1  0  0  1
 10 11  1  0  0  1
 11 12  1  0  0  1
 11 20  1  0  0  1
 12 13  1  0  0  1
 13 14  1  0  0  2
 13 16  1  0  0  1
 14 15  1  0  0  2
 16 17  1  0  0  2
 16 18  1  0  0  1
 18 19  1  0  0  2
 18 20  1  0  0  1
 20 21  1  0  0  2
  1 22  1  0  0  2
  2 23  1  0  0  2
  3 24  1  0  0  2
  4 25  1  0  0  2
  5 26  1  0  0  2
  8 27  1  0  0  2
  8 28  1  0  0  2
 13 29  1  0  0  2
 14 30  1  0  0  2
 14 31  1  0  0  2
 15 32  1  0  0  2
 16 33  1  0  0  2
 17 34  1  0  0  2
 18 35  1  0  0  2
 19 36  1  0  0  2
 20 37  1  0  0  2
 21 38  1  0  0  2
M  END
> <MOLECULAR_FORMULA>
C14H17NO6

> <MOLECULAR_WEIGHT>
295.1

> <NUM_HB_ATOMS>
7  

> <NUM_ROTOR>
1  

> <XLOGP2>
0.10 

$$$$
