REMARK  6 active torsions:
REMARK  status: ('A' for Active; 'I' for Inactive)
REMARK    1  A    between atoms: C9_6  and  C8_7 
REMARK    2  A    between atoms: C5_13  and  C6_14 
REMARK    3  A    between atoms: C6_14  and  O6_15 
REMARK    4  A    between atoms: C4_16  and  O4_17 
REMARK    5  A    between atoms: C3_18  and  O3_19 
REMARK    6  A    between atoms: C2_20  and  O2_21 
ROOT
ATOM      1  C8  M08 d          34.702  24.054  29.852  0.00  0.00     0.077 C 
ATOM      2  C7  M08 d          35.231  23.345  28.612  0.00  0.00     0.136 C 
ATOM      3  N1  M08 d          33.389  24.224  29.709  0.00  0.00    -0.134 NA
ATOM      4  O7  M08 d          32.903  23.702  28.473  0.00  0.00    -0.213 OA
ATOM      5  C1  M08 d          33.957  22.926  27.883  0.00  0.00     0.226 C 
ATOM      6  O5  M08 d          33.725  21.512  28.120  0.00  0.00    -0.341 OA
ATOM      7  C5  M08 d          32.497  21.023  27.524  0.00  0.00     0.180 C 
ATOM      8  C4  M08 d          32.590  21.196  25.993  0.00  0.00     0.180 C 
ATOM      9  C3  M08 d          32.832  22.663  25.611  0.00  0.00     0.183 C 
ATOM     10  C2  M08 d          34.055  23.225  26.367  0.00  0.00     0.214 C 
ENDROOT
BRANCH  10  11
ATOM     11  O2  M08 d          34.188  24.639  26.134  0.00  0.00    -0.387 OA
ATOM     12  H17 M08 d          33.406  25.084  26.439  0.00  0.00     0.210 HD
ENDBRANCH  10  11
BRANCH   1  13
ATOM     13  C9  M08 d          35.468  24.478  30.941  0.00  0.00    -0.009 A 
ATOM     14  C10 M08 d          36.863  24.441  30.868  0.00  0.00     0.013 A 
ATOM     15  C11 M08 d          37.634  24.874  31.953  0.00  0.00     0.001 A 
ATOM     16  C12 M08 d          37.006  25.346  33.103  0.00  0.00     0.000 A 
ATOM     17  C13 M08 d          35.612  25.391  33.177  0.00  0.00     0.001 A 
ATOM     18  C14 M08 d          34.842  24.955  32.095  0.00  0.00     0.013 A 
ENDBRANCH   1  13
BRANCH   7  19
ATOM     19  C6  M08 d          32.319  19.565  27.967  0.00  0.00     0.198 C 
BRANCH  19  20
ATOM     20  O6  M08 d          33.306  18.760  27.313  0.00  0.00    -0.398 OA
ATOM     21  H11 M08 d          34.173  19.066  27.553  0.00  0.00     0.209 HD
ENDBRANCH  19  20
ENDBRANCH   7  19
BRANCH   9  22
ATOM     22  O3  M08 d          33.033  22.746  24.194  0.00  0.00    -0.390 OA
ATOM     23  H15 M08 d          32.261  22.420  23.746  0.00  0.00     0.210 HD
ENDBRANCH   9  22
BRANCH   8  24
ATOM     24  O4  M08 d          31.394  20.724  25.364  0.00  0.00    -0.390 OA
ATOM     25  H13 M08 d          31.466  20.837  24.424  0.00  0.00     0.210 HD
ENDBRANCH   8  24
TORSDOF 6
