2qfo_ligand

Created by X-TOOL on Fri Sep 26 17:34:42 2014
 18 18  0  0  0  0  0  0  0  0999 V2000
    3.7970   34.4890   51.0460  C 0  0  0  1  0  3
    2.3320   34.1810   50.7500  C 0  0  0  2  0  3
    2.1180   33.4950   49.4390  C 0  0  0  1  0  3
    3.1850   33.2100   48.6380  N 0  0  0  1  0  2
    4.4230   33.5490   49.0330  C 0  0  0  1  0  3
    4.7820   34.1590   50.1800  N 0  0  0  1  0  2
    5.3960   33.2370   48.1900  N 0  0  0  3  0  3
    4.1920   35.1710   52.3280  C 0  0  0  4  0  4
    0.7200   33.1180   48.9980  C 0  0  0  1  0  4
    0.6900   31.7980   48.9320  F 0  0  0  1  0  1
    0.5120   33.6560   47.8110  F 0  0  0  1  0  1
   -0.1440   33.5330   49.9030  F 0  0  0  1  0  1
    1.5236   34.4354   51.4259  H 0  0  0  1  0  1
    5.1754   32.7696   47.2991  H 0  0  0  1  0  1
    6.3732   33.4618   48.4254  H 0  0  0  1  0  1
    5.2838   35.3026   52.3520  H 0  0  0  1  0  1
    3.8782   34.5544   53.1832  H 0  0  0  1  0  1
    3.7028   36.1545   52.3859  H 0  0  0  1  0  1
  1  2  4  0  0  1
  1  6  4  0  0  1
  1  8  1  0  0  2
  2  3  4  0  0  1
  3  4  4  0  0  1
  3  9  1  0  0  2
  4  5  4  0  0  1
  5  6  4  0  0  1
  5  7  1  0  0  2
  9 10  1  0  0  2
  9 11  1  0  0  2
  9 12  1  0  0  2
  2 13  1  0  0  2
  7 14  1  0  0  2
  7 15  1  0  0  2
  8 16  1  0  0  2
  8 17  1  0  0  2
  8 18  1  0  0  2
M  END
> <MOLECULAR_FORMULA>
C6H6N3F3

> <MOLECULAR_WEIGHT>
177.1

> <NUM_HB_ATOMS>
3  

> <NUM_ROTOR>
0  

> <XLOGP2>
1.29 

$$$$
