REMARK  2 active torsions:
REMARK  status: ('A' for Active; 'I' for Inactive)
REMARK    1  A    between atoms: C10_8  and  N1_9 
REMARK    2  A    between atoms: C1_15  and  O_16 
ROOT
ATOM      1  C4  MOL d          18.201  28.027 -19.167  0.00  0.00     0.012 A 
ATOM      2  C5  MOL d          17.763  26.742 -19.402  0.00  0.00     0.035 A 
ATOM      3  C6  MOL d          17.783  25.828 -18.294  0.00  0.00     0.030 A 
ATOM      4  C11 MOL d          19.024  21.746 -16.779  0.00  0.00     0.209 A 
ATOM      5  C7  MOL d          17.383  24.453 -18.484  0.00  0.00     0.121 A 
ATOM      6  C8  MOL d          17.943  23.325 -17.907  0.00  0.00     0.135 A 
ATOM      7  C9  MOL d          17.492  22.082 -18.271  0.00  0.00     0.179 A 
ATOM      8  C10 MOL d          16.050  22.947 -19.778  0.00  0.00     0.722 A 
ATOM      9  N2  MOL d          16.458  24.183 -19.467  0.00  0.00    -0.060 NA
ATOM     10  C3  MOL d          18.698  28.486 -17.967  0.00  0.00     0.022 A 
ATOM     11  N3  MOL d          18.146  21.121 -17.567  0.00  0.00    -0.333 N 
ATOM     12 BR   MOL d          18.095  29.263 -20.579  0.00  0.00    -0.051 Br
ATOM     13  C2  MOL d          18.731  27.620 -16.882  0.00  0.00     0.039 A 
ATOM     14  C1  MOL d          18.299  26.328 -17.064  0.00  0.00     0.081 A 
ATOM     15  N   MOL d          16.546  21.892 -19.201  0.00  0.00    -0.043 NA
ATOM     16  N4  MOL d          18.926  23.063 -16.942  0.00  0.00    -0.238 NA
ATOM     17  H6  MOL d          17.993  20.104 -17.630  0.00  0.00     0.168 HD
ENDROOT
BRANCH  14  18
ATOM     18  O   MOL d          18.248  25.462 -16.029  0.00  0.00    -0.355 OA
ATOM     19  C   MOL d          18.446  25.900 -14.658  0.00  0.00     0.210 C 
ENDBRANCH  14  18
BRANCH   8  20
ATOM     20  N1  MOL d          15.116  22.821 -20.736  0.00  0.00    -0.231 N 
ATOM     21  H3  MOL d          14.727  23.660 -21.189  0.00  0.00     0.174 HD
ATOM     22  H4  MOL d          14.789  21.885 -21.017  0.00  0.00     0.174 HD
ENDBRANCH   8  20
TORSDOF 2
