REMARK  12 active torsions:
REMARK  status: ('A' for Active; 'I' for Inactive)
REMARK    1  A    between atoms: C6_6  and  N6_7 
REMARK    2  A    between atoms: CAX_25  and  N9_10 
REMARK    3  A    between atoms: CAH_15  and  OAB_11 
REMARK    4  A    between atoms: CAT_21  and  OAC_12 
REMARK    5  A    between atoms: CAU_22  and  OAD_13 
REMARK    6  A    between atoms: CAV_23  and  OAE_14 
REMARK    7  A    between atoms: CAT_21  and  CAH_15 
REMARK    8  A    between atoms: CAI_16  and  CAJ_17 
REMARK    9  A    between atoms: SAP_20  and  CAI_16 
REMARK   10  A    between atoms: CAJ_17  and  CAT_21 
REMARK   11  A    between atoms: CAK_18  and  SAP_20 
REMARK   12  A    between atoms: CAW_24  and  CAK_18 
ROOT
ATOM      1  OAO A7D d          13.810  10.721   0.729  0.00  0.00    -0.355 OA
ATOM      2  CAU A7D d          13.880   8.610   1.919  0.00  0.00     0.180 C 
ATOM      3  CAV A7D d          14.589   8.524   0.562  0.00  0.00     0.198 C 
ATOM      4  CAW A7D d          13.880  10.134   2.089  0.00  0.00     0.165 C 
ATOM      5  CAX A7D d          13.825   9.621  -0.206  0.00  0.00     0.262 C 
ENDROOT
BRANCH   5   6
ATOM      6  N9  A7D d          14.586   9.903  -1.400  0.00  0.00    -0.294 N 
ATOM      7  C4  A7D d          14.132   9.720  -2.643  0.00  0.00     0.167 A 
ATOM      8  N3  A7D d          12.944   9.286  -3.157  0.00  0.00    -0.222 NA
ATOM      9  C5  A7D d          15.175  10.086  -3.493  0.00  0.00     0.149 A 
ATOM     10  C2  A7D d          12.757   9.208  -4.475  0.00  0.00     0.237 A 
ATOM     11  N1  A7D d          13.744   9.557  -5.312  0.00  0.00    -0.222 NA
ATOM     12  C6  A7D d          14.951   9.991  -4.864  0.00  0.00     0.155 A 
ATOM     13  N7  A7D d          16.205  10.475  -2.744  0.00  0.00    -0.236 NA
ATOM     14  C8  A7D d          15.843  10.358  -1.463  0.00  0.00     0.214 A 
BRANCH  12  15
ATOM     15  N6  A7D d          15.925  10.326  -5.713  0.00  0.00    -0.382 N 
ATOM     16  H2  A7D d          16.833  10.653  -5.352  0.00  0.00     0.157 HD
ATOM     17  H3  A7D d          15.769  10.258  -6.729  0.00  0.00     0.157 HD
ENDBRANCH  12  15
ENDBRANCH   5   6
BRANCH   3  18
ATOM     18  OAE A7D d          14.512   7.226  -0.060  0.00  0.00    -0.388 OA
ATOM     19  H8  A7D d          13.601   6.999  -0.205  0.00  0.00     0.210 HD
ENDBRANCH   3  18
BRANCH   4  20
ATOM     20  CAK A7D d          15.210  10.542   2.779  0.00  0.00     0.108 C 
BRANCH  20  21
ATOM     21  SAP A7D d          14.976  10.926   4.541  0.00  0.00    -0.166 SA
BRANCH  21  22
ATOM     22  CAI A7D d          14.751   9.262   5.317  0.00  0.00     0.076 C 
BRANCH  22  23
ATOM     23  CAJ A7D d          14.437   9.394   6.828  0.00  0.00     0.044 C 
BRANCH  23  24
ATOM     24  CAT A7D d          14.938   8.206   7.674  0.00  0.00     0.142 C 
BRANCH  24  25
ATOM     25  OAC A7D d          16.363   7.870   7.421  0.00  0.00    -0.393 OA
ATOM     26  H6  A7D d          16.486   7.695   6.495  0.00  0.00     0.210 HD
ENDBRANCH  24  25
BRANCH  24  27
ATOM     27  CAH A7D d          14.663   8.506   9.175  0.00  0.00     0.195 C 
BRANCH  27  28
ATOM     28  OAB A7D d          14.864   9.898   9.521  0.00  0.00    -0.398 OA
ATOM     29  H5  A7D d          14.683  10.023  10.445  0.00  0.00     0.209 HD
ENDBRANCH  27  28
ENDBRANCH  24  27
ENDBRANCH  23  24
ENDBRANCH  22  23
ENDBRANCH  21  22
ENDBRANCH  20  21
ENDBRANCH   4  20
BRANCH   2  30
ATOM     30  OAD A7D d          12.524   8.173   1.827  0.00  0.00    -0.390 OA
ATOM     31  H7  A7D d          12.503   7.270   1.532  0.00  0.00     0.210 HD
ENDBRANCH   2  30
TORSDOF 12
