REMARK  10 active torsions:
REMARK  status: ('A' for Active; 'I' for Inactive)
REMARK    1  A    between atoms: C1_1  and  O1_48 
REMARK    2  A    between atoms: C43_43  and  C3_3 
REMARK    3  A    between atoms: C4_4  and  O12_59 
REMARK    4  A    between atoms: C8_8  and  O2_49 
REMARK    5  A    between atoms: C21_21  and  O10_57 
REMARK    6  A    between atoms: C23_23  and  O9_56 
REMARK    7  A    between atoms: C25_25  and  O7_54 
REMARK    8  A    between atoms: C27_27  and  O6_53 
REMARK    9  A    between atoms: O7_54  and  C35_35 
REMARK   10  A    between atoms: N2_45  and  N3_46 
ROOT
ATOM      1  C1  RFP d         -12.194   6.934 -21.130  0.00  0.00     0.107 A 
ATOM      2  C2  RFP d         -12.805   8.162 -20.879  0.00  0.00     0.084 A 
ATOM      3  C3  RFP d         -12.259   9.014 -19.925  0.00  0.00     0.047 A 
ATOM      4  C4  RFP d         -11.088   8.660 -19.233  0.00  0.00     0.092 A 
ATOM      5  C5  RFP d          -9.315   6.929 -18.786  0.00  0.00     0.064 A 
ATOM      6  C6  RFP d          -8.838   5.669 -19.014  0.00  0.00     0.096 A 
ATOM      7  C7  RFP d          -9.367   4.842 -19.982  0.00  0.00     0.007 A 
ATOM      8  C8  RFP d         -10.452   5.285 -20.676  0.00  0.00     0.088 A 
ATOM      9  C9  RFP d         -11.044   6.545 -20.422  0.00  0.00     0.047 A 
ATOM     10  C10 RFP d         -10.472   7.400 -19.461  0.00  0.00     0.031 A 
ATOM     11  C11 RFP d          -8.491   7.483 -17.663  0.00  0.00     0.225 C 
ATOM     12  C12 RFP d          -7.611   6.368 -17.145  0.00  0.00     0.237 C 
ATOM     13  C13 RFP d          -6.149   6.743 -16.949  0.00  0.00     0.089 C 
ATOM     14  C14 RFP d          -8.742   3.496 -20.260  0.00  0.00     0.054 C 
ATOM     15  C15 RFP d         -14.311   9.460 -22.307  0.00  0.00     0.251 C 
ATOM     16  C16 RFP d         -15.655   9.543 -22.908  0.00  0.00     0.006 C 
ATOM     17  C17 RFP d         -16.819   9.221 -22.316  0.00  0.00     0.012 C 
ATOM     18  C18 RFP d         -17.006   8.791 -20.905  0.00  0.00    -0.003 C 
ATOM     19  C19 RFP d         -18.238   8.388 -20.538  0.00  0.00    -0.020 C 
ATOM     20  C20 RFP d         -18.732   7.874 -19.159  0.00  0.00     0.033 C 
ATOM     21  C21 RFP d         -17.547   7.246 -18.374  0.00  0.00     0.131 C 
ATOM     22  C22 RFP d         -17.937   6.756 -16.961  0.00  0.00     0.040 C 
ATOM     23  C23 RFP d         -16.770   6.087 -16.232  0.00  0.00     0.130 C 
ATOM     24  C24 RFP d         -15.459   6.954 -16.195  0.00  0.00     0.041 C 
ATOM     25  C25 RFP d         -14.340   6.200 -15.388  0.00  0.00     0.144 C 
ATOM     26  C26 RFP d         -12.934   6.819 -15.398  0.00  0.00     0.044 C 
ATOM     27  C27 RFP d         -11.915   5.864 -14.704  0.00  0.00     0.151 C 
ATOM     28  C28 RFP d         -10.441   6.359 -14.702  0.00  0.00     0.029 C 
ATOM     29  C29 RFP d          -9.580   5.749 -15.568  0.00  0.00     0.137 C 
ATOM     30  C30 RFP d         -15.722  10.013 -24.336  0.00  0.00     0.054 C 
ATOM     31  C31 RFP d         -19.316   9.073 -18.400  0.00  0.00     0.017 C 
ATOM     32  C32 RFP d         -19.147   5.775 -17.011  0.00  0.00     0.015 C 
ATOM     33  C33 RFP d         -15.786   8.323 -15.562  0.00  0.00     0.015 C 
ATOM     34  C34 RFP d         -12.552   6.992 -16.866  0.00  0.00     0.015 C 
ATOM     35  N1  RFP d         -13.984   8.407 -21.559  0.00  0.00    -0.320 N 
ATOM     36  O3  RFP d          -7.745   5.356 -18.242  0.00  0.00    -0.305 OA
ATOM     37  O4  RFP d          -8.621   8.580 -17.098  0.00  0.00    -0.286 OA
ATOM     38  O5  RFP d          -8.144   6.086 -15.763  0.00  0.00    -0.319 OA
ATOM     39  O11 RFP d         -13.446  10.265 -22.522  0.00  0.00    -0.268 OA
ATOM     40  H53 RFP d         -14.685   7.699 -21.479  0.00  0.00     0.169 HD
ENDROOT
BRANCH   3  41
ATOM     41  C43 RFP d         -12.970  10.275 -19.710  0.00  0.00     0.155 C 
ATOM     42  N2  RFP d         -12.278  11.357 -19.820  0.00  0.00    -0.189 NA
BRANCH  42  43
ATOM     43  N3  RFP d         -12.897  12.620 -19.588  0.00  0.00    -0.302 N 
ATOM     44  C40 RFP d         -12.732  13.746 -20.503  0.00  0.00     0.172 C 
ATOM     45  C39 RFP d         -11.860  14.691 -19.684  0.00  0.00     0.256 C 
ATOM     46  N4  RFP d         -11.575  13.946 -18.458  0.00  0.00    -0.072 N 
ATOM     47  C38 RFP d         -10.221  13.448 -18.184  0.00  0.00     0.269 C 
ATOM     48  C42 RFP d         -12.669  13.691 -17.534  0.00  0.00     0.256 C 
ATOM     49  H54 RFP d         -11.357  14.804 -17.976  0.00  0.00     0.279 HD
ATOM     50  C41 RFP d         -13.641  12.820 -18.345  0.00  0.00     0.172 C 
ENDBRANCH  42  43
ENDBRANCH   3  41
BRANCH   4  51
ATOM     51  O12 RFP d         -10.554   9.530 -18.327  0.00  0.00    -0.359 OA
ATOM     52  H59 RFP d         -10.541   9.123 -17.469  0.00  0.00     0.217 HD
ENDBRANCH   4  51
BRANCH   1  53
ATOM     53  O1  RFP d         -12.832   6.135 -22.073  0.00  0.00    -0.357 OA
ATOM     54  H55 RFP d         -12.227   5.934 -22.777  0.00  0.00     0.217 HD
ENDBRANCH   1  53
BRANCH   8  55
ATOM     55  O2  RFP d         -10.963   4.469 -21.626  0.00  0.00    -0.359 OA
ATOM     56  H56 RFP d         -11.863   4.258 -21.409  0.00  0.00     0.217 HD
ENDBRANCH   8  55
BRANCH  21  57
ATOM     57  O10 RFP d         -16.993   6.143 -19.083  0.00  0.00    -0.394 OA
ATOM     58  H58 RFP d         -16.226   5.824 -18.622  0.00  0.00     0.210 HD
ENDBRANCH  21  57
BRANCH  27  59
ATOM     59  O6  RFP d         -12.040   4.593 -15.372  0.00  0.00    -0.386 OA
ATOM     60  C37 RFP d         -11.722   3.493 -14.542  0.00  0.00     0.202 C 
ENDBRANCH  27  59
BRANCH  23  61
ATOM     61  O9  RFP d         -16.483   4.798 -16.859  0.00  0.00    -0.395 OA
ATOM     62  H57 RFP d         -16.171   4.941 -17.745  0.00  0.00     0.210 HD
ENDBRANCH  23  61
BRANCH  25  63
ATOM     63  O7  RFP d         -14.736   6.219 -13.985  0.00  0.00    -0.315 OA
BRANCH  63  64
ATOM     64  C35 RFP d         -15.096   5.024 -13.327  0.00  0.00     0.255 C 
ATOM     65  C36 RFP d         -15.522   5.206 -11.892  0.00  0.00     0.126 C 
ATOM     66  O8  RFP d         -14.976   3.959 -13.958  0.00  0.00    -0.266 OA
ENDBRANCH  63  64
ENDBRANCH  25  63
TORSDOF 10
