2hw2_ligand

Created by X-TOOL on Fri Sep 26 17:34:35 2014
118122  0  0  0  0  0  0  0  0999 V2000
  -12.1940    6.9340  -21.1300  C 0  0  0  1  0  3
  -12.8050    8.1620  -20.8790  C 0  0  0  1  0  3
  -12.2590    9.0140  -19.9250  C 0  0  0  1  0  3
  -11.0880    8.6600  -19.2330  C 0  0  0  1  0  3
   -9.3150    6.9290  -18.7860  C 0  0  0  1  0  3
   -8.8380    5.6690  -19.0140  C 0  0  0  1  0  3
   -9.3670    4.8420  -19.9820  C 0  0  0  1  0  3
  -10.4520    5.2850  -20.6760  C 0  0  0  1  0  3
  -11.0440    6.5450  -20.4220  C 0  0  0  1  0  3
  -10.4720    7.4000  -19.4610  C 0  0  0  1  0  3
   -8.4910    7.4830  -17.6630  C 0  0  0  1  0  3
   -7.6110    6.3680  -17.1450  C 0  0  0  1  0  4
   -6.1490    6.7430  -16.9490  C 0  0  0  4  0  4
   -8.7420    3.4960  -20.2600  C 0  0  0  4  0  4
  -14.3110    9.4600  -22.3070  C 0  0  0  1  0  3
  -15.6550    9.5430  -22.9080  C 0  0  0  1  0  3
  -16.8190    9.2210  -22.3160  C 0  0  0  2  0  3
  -17.0060    8.7910  -20.9050  C 0  0  0  2  0  3
  -18.2380    8.3880  -20.5380  C 0  0  0  2  0  3
  -18.7320    7.8740  -19.1590  C 0  0  0  2  0  4
  -17.5470    7.2460  -18.3740  C 0  0  0  2  0  4
  -17.9370    6.7560  -16.9610  C 0  0  0  2  0  4
  -16.7700    6.0870  -16.2320  C 0  0  0  2  0  4
  -15.4590    6.9540  -16.1950  C 0  0  0  2  0  4
  -14.3400    6.2000  -15.3880  C 0  0  0  2  0  4
  -12.9340    6.8190  -15.3980  C 0  0  0  2  0  4
  -11.9150    5.8640  -14.7040  C 0  0  0  2  0  4
  -10.4410    6.3590  -14.7020  C 0  0  0  2  0  3
   -9.5800    5.7490  -15.5680  C 0  0  0  2  0  3
  -15.7220   10.0130  -24.3360  C 0  0  0  4  0  4
  -19.3160    9.0730  -18.4000  C 0  0  0  4  0  4
  -19.1470    5.7750  -17.0110  C 0  0  0  4  0  4
  -15.7860    8.3230  -15.5620  C 0  0  0  4  0  4
  -12.5520    6.9920  -16.8660  C 0  0  0  4  0  4
  -15.0960    5.0240  -13.3270  C 0  0  0  1  0  3
  -15.5220    5.2060  -11.8920  C 0  0  0  4  0  4
  -11.7220    3.4930  -14.5420  C 0  0  0  4  0  4
  -10.2210   13.4480  -18.1840  C 0  0  0  4  0  4
  -11.8600   14.6910  -19.6840  C 0  0  0  3  0  4
  -12.7320   13.7460  -20.5030  C 0  0  0  3  0  4
  -13.6410   12.8200  -18.3450  C 0  0  0  3  0  4
  -12.6690   13.6910  -17.5340  C 0  0  0  3  0  4
  -12.9700   10.2750  -19.7100  C 0  0  0  2  0  3
  -13.9840    8.4070  -21.5590  N 0  0  0  2  0  3
  -12.2780   11.3570  -19.8200  N 0  0  0  1  0  2
  -12.8970   12.6200  -19.5880  N 0  0  0  1  0  3
  -11.5750   13.9460  -18.4580  N 0  3  0  2  0  4
  -12.8320    6.1350  -22.0730  O 0  0  0  2  0  2
  -10.9630    4.4690  -21.6260  O 0  0  0  2  0  2
   -7.7450    5.3560  -18.2420  O 0  0  0  1  0  2
   -8.6210    8.5800  -17.0980  O 0  0  0  1  0  1
   -8.1440    6.0860  -15.7630  O 0  0  0  1  0  2
  -12.0400    4.5930  -15.3720  O 0  0  0  1  0  2
  -14.7360    6.2190  -13.9850  O 0  0  0  1  0  2
  -14.9760    3.9590  -13.9580  O 0  0  0  1  0  1
  -16.4830    4.7980  -16.8590  O 0  0  0  2  0  2
  -16.9930    6.1430  -19.0830  O 0  0  0  2  0  2
  -13.4460   10.2650  -22.5220  O 0  0  0  1  0  1
  -10.5540    9.5300  -18.3270  O 0  0  0  2  0  2
   -5.5942    5.8711  -16.5720  H 0  0  0  1  0  1
   -6.0757    7.5661  -16.2230  H 0  0  0  1  0  1
   -5.7204    7.0627  -17.9103  H 0  0  0  1  0  1
   -7.8843    3.3442  -19.5881  H 0  0  0  1  0  1
   -8.4002    3.4592  -21.3049  H 0  0  0  1  0  1
   -9.4860    2.7040  -20.0894  H 0  0  0  1  0  1
  -17.7148    9.2813  -22.9323  H 0  0  0  1  0  1
  -16.1795    8.8014  -20.1960  H 0  0  0  1  0  1
  -18.9950    8.4286  -21.3199  H 0  0  0  1  0  1
  -19.5129    7.1128  -19.3031  H 0  0  0  1  0  1
  -16.7726    8.0199  -18.2668  H 0  0  0  1  0  1
  -18.2378    7.6385  -16.3773  H 0  0  0  1  0  1
  -17.0826    5.9096  -15.1924  H 0  0  0  1  0  1
  -15.1030    7.1140  -17.2234  H 0  0  0  1  0  1
  -14.2770    5.1683  -15.7643  H 0  0  0  1  0  1
  -12.9406    7.7915  -14.8840  H 0  0  0  1  0  1
  -12.2181    5.7456  -13.6532  H 0  0  0  1  0  1
  -10.1102    7.1571  -14.0390  H 0  0  0  1  0  1
   -9.9825    4.9385  -16.1738  H 0  0  0  1  0  1
  -14.7075   10.2411  -24.6949  H 0  0  0  1  0  1
  -16.3441   10.9182  -24.3953  H 0  0  0  1  0  1
  -16.1632    9.2232  -24.9617  H 0  0  0  1  0  1
  -20.1515    9.4992  -18.9748  H 0  0  0  1  0  1
  -18.5361    9.8370  -18.2655  H 0  0  0  1  0  1
  -19.6791    8.7424  -17.4157  H 0  0  0  1  0  1
  -19.9867    6.2550  -17.5350  H 0  0  0  1  0  1
  -19.4531    5.5178  -15.9863  H 0  0  0  1  0  1
  -18.8552    4.8599  -17.5471  H 0  0  0  1  0  1
  -16.5704    8.8211  -16.1507  H 0  0  0  1  0  1
  -14.8812    8.9485  -15.5533  H 0  0  0  1  0  1
  -16.1396    8.1752  -14.5309  H 0  0  0  1  0  1
  -13.2710    7.6657  -17.3550  H 0  0  0  1  0  1
  -12.5679    6.0128  -17.3669  H 0  0  0  1  0  1
  -11.5419    7.4222  -16.9338  H 0  0  0  1  0  1
  -15.7831    4.2285  -11.4603  H 0  0  0  1  0  1
  -16.3975    5.8706  -11.8509  H 0  0  0  1  0  1
  -14.6961    5.6515  -11.3180  H 0  0  0  1  0  1
  -11.8375    2.5588  -15.1111  H 0  0  0  1  0  1
  -12.3988    3.4801  -13.6749  H 0  0  0  1  0  1
  -10.6824    3.5844  -14.1944  H 0  0  0  1  0  1
   -9.5479   13.7475  -19.0009  H 0  0  0  1  0  1
  -10.2419   12.3507  -18.1098  H 0  0  0  1  0  1
   -9.8589   13.8728  -17.2362  H 0  0  0  1  0  1
  -12.4000   15.6222  -19.4577  H 0  0  0  1  0  1
  -10.9299   14.9277  -20.2215  H 0  0  0  1  0  1
  -12.2266   13.4375  -21.4300  H 0  0  0  1  0  1
  -13.7000   14.2068  -20.7490  H 0  0  0  1  0  1
  -14.5914   13.3431  -18.5268  H 0  0  0  1  0  1
  -13.8397   11.8638  -17.8389  H 0  0  0  1  0  1
  -12.3118   13.1536  -16.6431  H 0  0  0  1  0  1
  -13.1493   14.6317  -17.2268  H 0  0  0  1  0  1
  -14.0317   10.2981  -19.4689  H 0  0  0  1  0  1
  -14.6853    7.6987  -21.4785  H 0  0  0  1  0  1
  -11.3572   14.8040  -17.9758  H 0  0  0  1  0  1
  -12.2271    5.9340  -22.7774  H 0  0  0  1  0  1
  -11.8634    4.2575  -21.4093  H 0  0  0  1  0  1
  -16.1714    4.9405  -17.7450  H 0  0  0  1  0  1
  -16.2260    5.8245  -18.6218  H 0  0  0  1  0  1
  -10.5406    9.1230  -17.4687  H 0  0  0  1  0  1
  2  1  4  0  0  1
  1  9  4  0  0  1
  1 48  1  0  0  2
  3  2  4  0  0  1
  2 44  1  0  0  1
  3  4  4  0  0  1
 43  3  1  0  0  2
  4 10  4  0  0  1
  4 59  1  0  0  2
  5  6  4  0  0  1
 10  5  4  0  0  1
  5 11  1  0  0  1
  6  7  4  0  0  1
  6 50  1  0  0  1
  8  7  4  0  0  1
  7 14  1  0  0  2
  9  8  4  0  0  1
  8 49  1  0  0  2
 10  9  4  0  0  1
 11 12  1  0  0  1
 11 51  2  0  0  2
 12 13  1  0  0  2
 12 50  1  0  0  1
 12 52  1  0  0  1
 15 16  1  0  0  1
 44 15  1  0  0  1
 15 58  2  0  0  2
 16 17  2  0  0  1
 16 30  1  0  0  2
 17 18  1  0  0  1
 18 19  2  0  0  1
 19 20  1  0  0  1
 20 21  1  0  0  1
 20 31  1  0  0  2
 21 22  1  0  0  1
 21 57  1  0  0  2
 22 23  1  0  0  1
 22 32  1  0  0  2
 23 24  1  0  0  1
 23 56  1  0  0  2
 25 24  1  0  0  1
 24 33  1  0  0  2
 26 25  1  0  0  1
 25 54  1  0  0  2
 27 26  1  0  0  1
 26 34  1  0  0  2
 28 27  1  0  0  1
 27 53  1  0  0  2
 29 28  2  0  0  1
 52 29  1  0  0  1
 35 36  1  0  0  2
 54 35  1  0  0  2
 35 55  2  0  0  2
 53 37  1  0  0  2
 47 38  1  0  0  2
 40 39  1  0  0  1
 39 47  1  0  0  1
 46 40  1  0  0  1
 41 42  1  0  0  1
 46 41  1  0  0  1
 42 47  1  0  0  1
 45 43  2  0  0  2
 45 46  1  0  0  2
 13 60  1  0  0  2
 13 61  1  0  0  2
 13 62  1  0  0  2
 14 63  1  0  0  2
 14 64  1  0  0  2
 14 65  1  0  0  2
 17 66  1  0  0  2
 18 67  1  0  0  2
 19 68  1  0  0  2
 20 69  1  0  0  2
 21 70  1  0  0  2
 22 71  1  0  0  2
 23 72  1  0  0  2
 24 73  1  0  0  2
 25 74  1  0  0  2
 26 75  1  0  0  2
 27 76  1  0  0  2
 28 77  1  0  0  2
 29 78  1  0  0  2
 30 79  1  0  0  2
 30 80  1  0  0  2
 30 81  1  0  0  2
 31 82  1  0  0  2
 31 83  1  0  0  2
 31 84  1  0  0  2
 32 85  1  0  0  2
 32 86  1  0  0  2
 32 87  1  0  0  2
 33 88  1  0  0  2
 33 89  1  0  0  2
 33 90  1  0  0  2
 34 91  1  0  0  2
 34 92  1  0  0  2
 34 93  1  0  0  2
 36 94  1  0  0  2
 36 95  1  0  0  2
 36 96  1  0  0  2
 37 97  1  0  0  2
 37 98  1  0  0  2
 37 99  1  0  0  2
 38100  1  0  0  2
 38101  1  0  0  2
 38102  1  0  0  2
 39103  1  0  0  2
 39104  1  0  0  2
 40105  1  0  0  2
 40106  1  0  0  2
 41107  1  0  0  2
 41108  1  0  0  2
 42109  1  0  0  2
 42110  1  0  0  2
 43111  1  0  0  2
 44112  1  0  0  2
 47113  1  0  0  2
 48114  1  0  0  2
 49115  1  0  0  2
 56116  1  0  0  2
 57117  1  0  0  2
 59118  1  0  0  2
M  END
> <MOLECULAR_FORMULA>
C43H59N4O12

> <MOLECULAR_WEIGHT>
823.5

> <NUM_HB_ATOMS>
15 

> <NUM_ROTOR>
3  

> <XLOGP2>
2.56 

$$$$
