REMARK  8 active torsions:
REMARK  status: ('A' for Active; 'I' for Inactive)
REMARK    1  A    between atoms: P_2  and  O4_5 
REMARK    2  A    between atoms: O4_5  and  C4_6 
REMARK    3  A    between atoms: C4_6  and  C3_7 
REMARK    4  A    between atoms: C3_7  and  O3_8 
REMARK    5  A    between atoms: C3_7  and  C2_9 
REMARK    6  A    between atoms: C2_9  and  O2_10 
REMARK    7  A    between atoms: C2_9  and  C1_11 
REMARK       I    between atoms: C1_11  and  N_13 
REMARK    8  A    between atoms: N_13  and  ON_14 
ROOT
ATOM      1  C3  RES d          26.667  -9.486  15.219  0.00  0.00     0.180 C 
ENDROOT
BRANCH   1   2
ATOM      2  C4  RES d          28.051 -10.117  15.225  0.00  0.00     0.217 C 
BRANCH   2   3
ATOM      3  O4  RES d          28.088 -11.123  16.234  0.00  0.00    -0.280 OA
BRANCH   3   4
ATOM      4  P   RES d          29.242 -12.241  16.228  0.00  0.00     0.422 P 
ATOM      5  O7  RES d          30.513 -11.469  16.463  0.00  0.00    -0.617 OA
ATOM      6  O5  RES d          28.847 -13.171  17.345  0.00  0.00    -0.617 OA
ATOM      7  O6  RES d          29.170 -12.864  14.855  0.00  0.00    -0.617 OA
ENDBRANCH   3   4
ENDBRANCH   2   3
ENDBRANCH   1   2
BRANCH   1   8
ATOM      8  O3  RES d          26.460  -8.797  16.444  0.00  0.00    -0.390 OA
ATOM      9  H4  RES d          26.527  -9.410  17.166  0.00  0.00     0.210 HD
ENDBRANCH   1   8
BRANCH   1  10
ATOM     10  C2  RES d          26.480  -8.502  14.068  0.00  0.00     0.242 C 
BRANCH  10  11
ATOM     11  O2  RES d          26.822  -9.104  12.827  0.00  0.00    -0.383 OA
ATOM     12  H6  RES d          26.698  -8.475  12.126  0.00  0.00     0.210 HD
ENDBRANCH  10  11
BRANCH  10  13
ATOM     13  C1  RES d          25.043  -8.073  14.059  0.00  0.00     0.272 C 
ATOM     14  O1  RES d          24.151  -8.904  13.988  0.00  0.00    -0.268 OA
ATOM     15  N   RES d          24.801  -6.772  14.153  0.00  0.00    -0.235 N 
ATOM     16  H7  RES d          25.550  -6.113  14.218  0.00  0.00     0.197 HD
BRANCH  15  17
ATOM     17  ON  RES d          23.469  -6.349  14.159  0.00  0.00    -0.287 OA
ATOM     18  H8  RES d          23.439  -5.402  14.230  0.00  0.00     0.244 HD
ENDBRANCH  15  17
ENDBRANCH  10  13
ENDBRANCH   1  10
TORSDOF 8
