REMARK  6 active torsions:
REMARK  status: ('A' for Active; 'I' for Inactive)
REMARK    1  A    between atoms: CAQ_18  and  NAR_19 
REMARK    2  A    between atoms: CBB_29  and  CAQ_18 
REMARK       I    between atoms: NAR_19  and  CAU_22 
REMARK    3  A    between atoms: SAS_20  and  CAX_25 
REMARK    4  A    between atoms: CAY_26  and  SAS_20 
REMARK    5  A    between atoms: CAZ_27  and  CAT_21 
REMARK    6  A    between atoms: CAU_22  and  CBA_28 
ROOT
ATOM      1 CLAE 03L d          -3.939 -30.338   4.634  0.00  0.00    -0.084 Cl
ATOM      2  CAH 03L d          -0.153 -31.083   3.908  0.00  0.00     0.003 A 
ATOM      3  CAI 03L d          -1.526 -31.189   3.960  0.00  0.00     0.024 A 
ATOM      4  CAJ 03L d           0.480 -29.991   4.481  0.00  0.00     0.019 A 
ATOM      5  CAW 03L d          -2.269 -30.203   4.583  0.00  0.00     0.043 A 
ATOM      6  CAY 03L d          -0.265 -29.001   5.103  0.00  0.00     0.015 A 
ATOM      7  CBB 03L d          -1.643 -29.102   5.153  0.00  0.00    -0.002 A 
ENDROOT
BRANCH   7   8
ATOM      8  CAQ 03L d          -2.468 -28.051   5.839  0.00  0.00     0.164 C 
BRANCH   8   9
ATOM      9  NAR 03L d          -3.325 -28.605   6.888  0.00  0.00    -0.352 N 
ATOM     10  CAU 03L d          -4.716 -28.292   6.972  0.00  0.00     0.253 C 
ATOM     11  OAB 03L d          -5.248 -27.517   6.149  0.00  0.00    -0.268 OA
ATOM     12  H13 03L d          -2.925 -29.221   7.566  0.00  0.00     0.163 HD
BRANCH  10  13
ATOM     13  CBA 03L d          -5.565 -28.956   8.102  0.00  0.00     0.049 A 
ATOM     14  CAL 03L d          -5.564 -30.342   8.180  0.00  0.00     0.018 A 
ATOM     15  CAG 03L d          -6.306 -30.982   9.162  0.00  0.00     0.001 A 
ATOM     16  CAF 03L d          -7.044 -30.228  10.063  0.00  0.00     0.001 A 
ATOM     17  CAK 03L d          -7.049 -28.841   9.985  0.00  0.00     0.019 A 
ATOM     18  CAZ 03L d          -6.308 -28.200   9.005  0.00  0.00     0.056 A 
BRANCH  18  19
ATOM     19  CAT 03L d          -6.324 -26.675   8.934  0.00  0.00     0.210 C 
ATOM     20  OAA 03L d          -5.231 -26.021   8.890  0.00  0.00    -0.644 OA
ATOM     21  OAC 03L d          -7.450 -26.051   8.921  0.00  0.00    -0.644 OA
ENDBRANCH  18  19
ENDBRANCH  10  13
ENDBRANCH   8   9
ENDBRANCH   7   8
BRANCH   6  22
ATOM     22  SAS 03L d           0.578 -27.611   5.833  0.00  0.00    -0.088 SA
BRANCH  22  23
ATOM     23  CAX 03L d           1.808 -28.325   6.863  0.00  0.00     0.027 A 
ATOM     24  CAO 03L d           3.143 -28.318   6.515  0.00  0.00     0.022 A 
ATOM     25  CAM 03L d           4.064 -28.903   7.362  0.00  0.00     0.025 A 
ATOM     26  CAV 03L d           3.640 -29.496   8.542  0.00  0.00     0.035 A 
ATOM     27 CLAD 03L d           4.782 -30.221   9.592  0.00  0.00    -0.084 Cl
ATOM     28  CAN 03L d           2.300 -29.506   8.881  0.00  0.00     0.049 A 
ATOM     29  CAP 03L d           1.386 -28.919   8.033  0.00  0.00     0.052 A 
ATOM     30 CLAF 03L d          -0.294 -28.892   8.400  0.00  0.00    -0.083 Cl
ENDBRANCH  22  23
ENDBRANCH   6  22
TORSDOF 6
