REMARK  10 active torsions:
REMARK  status: ('A' for Active; 'I' for Inactive)
REMARK    1  A    between atoms: O6_8  and  P1_1 
REMARK    2  A    between atoms: P2_5  and  O6_8 
REMARK    3  A    between atoms: P2_5  and  O7_9 
REMARK    4  A    between atoms: O7_9  and  C1_10 
REMARK    5  A    between atoms: C1_10  and  C2_11 
REMARK    6  A    between atoms: C5_17  and  N1_18 
REMARK    7  A    between atoms: C8_22  and  N3_23 
REMARK    8  A    between atoms: C12_29  and  N6_34 
REMARK    9  A    between atoms: C14_31  and  N7_35 
REMARK   10  A    between atoms: C16_33  and  N8_36 
ROOT
ATOM      1  C2  MOL d          27.906   4.331  31.914  0.00  0.00     0.180 C 
ATOM      2  O8  MOL d          28.436   5.514  31.301  0.00  0.00    -0.353 OA
ATOM      3  C3  MOL d          26.736   4.762  32.778  0.00  0.00     0.190 C 
ATOM      4  O9  MOL d          27.049   4.755  34.167  0.00  0.00    -0.337 OA
ATOM      5  C4  MOL d          26.447   6.201  32.413  0.00  0.00     0.206 C 
ATOM      6  O10 MOL d          26.255   6.872  33.647  0.00  0.00    -0.335 OA
ATOM      7  C5  MOL d          27.714   6.685  31.725  0.00  0.00     0.262 C 
ATOM      8  C11 MOL d          26.554   5.978  34.733  0.00  0.00     0.247 A 
ATOM      9  C12 MOL d          27.639   6.616  35.594  0.00  0.00     0.147 A 
ATOM     10  C13 MOL d          27.390   7.006  36.904  0.00  0.00     0.073 A 
ATOM     11  C14 MOL d          26.156   6.815  37.506  0.00  0.00     0.103 A 
ATOM     12  C15 MOL d          25.120   6.226  36.804  0.00  0.00     0.046 A 
ATOM     13  C16 MOL d          25.247   5.787  35.492  0.00  0.00     0.250 A 
ENDROOT
BRANCH   9  14
ATOM     14  N6  MOL d          28.898   6.863  35.133  0.00  0.00    -0.114 N 
ATOM     15  O11 MOL d          29.296   6.529  33.850  0.00  0.00    -0.532 OA
ATOM     16  O12 MOL d          29.848   7.472  35.946  0.00  0.00    -0.532 OA
ENDBRANCH   9  14
BRANCH  13  17
ATOM     17  N8  MOL d          24.115   5.234  34.957  0.00  0.00    -0.141 N 
ATOM     18  O15 MOL d          24.031   4.737  33.658  0.00  0.00    -0.536 OA
ATOM     19  O16 MOL d          22.971   5.140  35.750  0.00  0.00    -0.536 OA
ENDBRANCH  13  17
BRANCH   1  20
ATOM     20  C1  MOL d          27.376   3.377  30.851  0.00  0.00     0.216 C 
BRANCH  20  21
ATOM     21  O7  MOL d          26.150   3.894  30.331  0.00  0.00    -0.287 OA
BRANCH  21  22
ATOM     22  P2  MOL d          25.410   3.250  29.056  0.00  0.00     0.418 P 
ATOM     23  O4  MOL d          26.471   2.885  28.037  0.00  0.00    -0.624 OA
ATOM     24  O5  MOL d          24.328   4.210  28.658  0.00  0.00    -0.624 OA
BRANCH  22  25
ATOM     25  O6  MOL d          24.771   1.918  29.705  0.00  0.00    -0.173 OA
BRANCH  25  26
ATOM     26  P1  MOL d          23.561   1.027  29.143  0.00  0.00     0.431 P 
ATOM     27  O1  MOL d          23.428   1.344  27.672  0.00  0.00    -0.616 OA
ATOM     28  O2  MOL d          24.018  -0.383  29.425  0.00  0.00    -0.616 OA
ATOM     29  O3  MOL d          22.340   1.387  29.952  0.00  0.00    -0.616 OA
ENDBRANCH  25  26
ENDBRANCH  22  25
ENDBRANCH  21  22
ENDBRANCH  20  21
ENDBRANCH   1  20
BRANCH   7  30
ATOM     30  N1  MOL d          27.474   7.653  30.619  0.00  0.00    -0.294 N 
ATOM     31  C6  MOL d          26.670   7.502  29.552  0.00  0.00     0.214 A 
ATOM     32  N2  MOL d          26.740   8.614  28.787  0.00  0.00    -0.236 NA
ATOM     33  C7  MOL d          27.589   9.467  29.385  0.00  0.00     0.149 A 
ATOM     34  C8  MOL d          28.044  10.740  29.067  0.00  0.00     0.155 A 
ATOM     35  C10 MOL d          28.054   8.856  30.540  0.00  0.00     0.167 A 
ATOM     36  N4  MOL d          28.926  11.341  29.901  0.00  0.00    -0.222 NA
ATOM     37  C9  MOL d          29.360  10.745  31.025  0.00  0.00     0.237 A 
ATOM     38  N5  MOL d          28.939   9.508  31.342  0.00  0.00    -0.222 NA
BRANCH  34  39
ATOM     39  N3  MOL d          27.609  11.361  27.939  0.00  0.00    -0.382 N 
ATOM     40  H8  MOL d          27.949  12.305  27.707  0.00  0.00     0.157 HD
ATOM     41  H9  MOL d          26.939  10.887  27.316  0.00  0.00     0.157 HD
ENDBRANCH  34  39
ENDBRANCH   7  30
BRANCH  11  42
ATOM     42  N7  MOL d          25.967   7.218  38.787  0.00  0.00    -0.116 N 
ATOM     43  O13 MOL d          24.738   7.038  39.418  0.00  0.00    -0.532 OA
ATOM     44  O14 MOL d          27.014   7.817  39.480  0.00  0.00    -0.532 OA
ENDBRANCH  11  42
TORSDOF 10
