REMARK  14 active torsions:
REMARK  status: ('A' for Active; 'I' for Inactive)
REMARK    1  A    between atoms: S8_10  and  C5_7 
REMARK    2  A    between atoms: N11_13  and  S8_10 
REMARK    3  A    between atoms: N11_13  and  C12_14 
REMARK    4  A    between atoms: C16_18  and  N11_13 
REMARK    5  A    between atoms: C12_14  and  C13_15 
REMARK    6  A    between atoms: C13_15  and  C15_17 
REMARK    7  A    between atoms: C17_19  and  C16_18 
REMARK    8  A    between atoms: C17_19  and  O18_21 
REMARK    9  A    between atoms: C19_22  and  C17_19 
REMARK   10  A    between atoms: C19_22  and  N20_23 
REMARK   11  A    between atoms: C32_35  and  C19_22 
REMARK       I    between atoms: N20_23  and  C21_24 
REMARK   12  A    between atoms: C21_24  and  O23_26 
REMARK   13  A    between atoms: O23_26  and  C24_27 
REMARK   14  A    between atoms: C38_41  and  C32_35 
ROOT
ATOM      1  C17 K19 d          19.922  29.223  15.706  0.00  0.00     0.155 C 
ENDROOT
BRANCH   1   2
ATOM      2  C16 K19 d          19.048  30.353  16.250  0.00  0.00     0.141 C 
BRANCH   2   3
ATOM      3  N11 K19 d          19.338  31.572  15.478  0.00  0.00    -0.204 NA
BRANCH   3   4
ATOM      4  S8  K19 d          18.045  32.176  14.710  0.00  0.00     0.243 S 
ATOM      5  O9  K19 d          18.581  33.037  13.685  0.00  0.00    -0.206 OA
ATOM      6  O10 K19 d          17.275  31.092  14.197  0.00  0.00    -0.206 OA
BRANCH   4   7
ATOM      7  C5  K19 d          17.140  33.066  15.756  0.00  0.00     0.076 A 
ATOM      8  C4  K19 d          17.301  34.447  15.998  0.00  0.00     0.046 A 
ATOM      9  C3  K19 d          16.551  35.165  16.966  0.00  0.00     0.036 A 
ATOM     10  S1  K19 d          16.667  36.845  17.318  0.00  0.00    -0.081 SA
ATOM     11  C2  K19 d          15.586  34.477  17.709  0.00  0.00     0.074 A 
ATOM     12  C1  K19 d          15.423  36.591  18.504  0.00  0.00     0.167 A 
ATOM     13  N1  K19 d          14.965  35.325  18.593  0.00  0.00    -0.253 NA
ATOM     14  C7  K19 d          15.400  33.119  17.480  0.00  0.00     0.034 A 
ATOM     15  C6  K19 d          16.158  32.421  16.520  0.00  0.00     0.027 A 
ENDBRANCH   4   7
ENDBRANCH   3   4
BRANCH   3  16
ATOM     16  C12 K19 d          20.085  32.599  16.253  0.00  0.00     0.112 C 
BRANCH  16  17
ATOM     17  C13 K19 d          21.585  32.313  16.295  0.00  0.00    -0.005 C 
ATOM     18  C14 K19 d          22.252  32.224  14.921  0.00  0.00     0.011 C 
BRANCH  17  19
ATOM     19  C15 K19 d          22.279  33.360  17.179  0.00  0.00     0.001 C 
ATOM     20  C18 K19 d          22.148  34.768  16.662  0.00  0.00     0.005 C 
ENDBRANCH  17  19
ENDBRANCH  16  17
ENDBRANCH   3  16
ENDBRANCH   2   3
ENDBRANCH   1   2
BRANCH   1  21
ATOM     21  O18 K19 d          19.889  28.094  16.591  0.00  0.00    -0.392 OA
ATOM     22  H19 K19 d          20.436  27.401  16.239  0.00  0.00     0.210 HD
ENDBRANCH   1  21
BRANCH   1  23
ATOM     23  C19 K19 d          19.540  28.764  14.306  0.00  0.00     0.120 C 
BRANCH  23  24
ATOM     24  N20 K19 d          20.641  27.957  13.835  0.00  0.00    -0.329 N 
ATOM     25  C21 K19 d          21.487  28.309  12.878  0.00  0.00     0.361 C 
ATOM     26  O22 K19 d          21.537  29.339  12.223  0.00  0.00    -0.238 OA
ATOM     27  H21 K19 d          20.775  27.064  14.264  0.00  0.00     0.165 HD
BRANCH  25  28
ATOM     28  O23 K19 d          22.443  27.271  12.630  0.00  0.00    -0.296 OA
BRANCH  28  29
ATOM     29  C24 K19 d          23.291  27.390  11.499  0.00  0.00     0.166 C 
ATOM     30  C25 K19 d          24.606  26.787  11.960  0.00  0.00     0.204 C 
ATOM     31  O26 K19 d          24.388  25.385  11.825  0.00  0.00    -0.358 OA
ATOM     32  C27 K19 d          23.502  25.141  10.744  0.00  0.00     0.266 C 
ATOM     33  O28 K19 d          22.506  24.233  11.172  0.00  0.00    -0.361 OA
ATOM     34  C31 K19 d          22.830  26.457  10.399  0.00  0.00     0.075 C 
ATOM     35  C29 K19 d          21.221  24.864  11.220  0.00  0.00     0.171 C 
ATOM     36  C30 K19 d          21.353  26.112  10.362  0.00  0.00     0.038 C 
ENDBRANCH  28  29
ENDBRANCH  25  28
ENDBRANCH  23  24
BRANCH  23  37
ATOM     37  C32 K19 d          18.254  27.949  14.190  0.00  0.00     0.066 C 
BRANCH  37  38
ATOM     38  C38 K19 d          17.994  27.570  12.739  0.00  0.00    -0.056 A 
ATOM     39  C33 K19 d          17.674  28.544  11.803  0.00  0.00     0.007 A 
ATOM     40  C34 K19 d          17.447  28.194  10.472  0.00  0.00     0.001 A 
ATOM     41  C35 K19 d          17.527  26.878  10.075  0.00  0.00     0.000 A 
ATOM     42  C36 K19 d          17.837  25.896  10.998  0.00  0.00     0.001 A 
ATOM     43  C37 K19 d          18.070  26.247  12.317  0.00  0.00     0.007 A 
ENDBRANCH  37  38
ENDBRANCH  23  37
ENDBRANCH   1  23
TORSDOF 14
