REMARK  10 active torsions:
REMARK  status: ('A' for Active; 'I' for Inactive)
REMARK    1  A    between atoms: C2_2  and  NA2_3 
REMARK    2  A    between atoms: C9_13  and  C6_9 
REMARK    3  A    between atoms: N10_14  and  C9_13 
REMARK    4  A    between atoms: C14_18  and  N10_14 
REMARK    5  A    between atoms: C11_15  and  C_21 
REMARK    6  A    between atoms: N_23  and  CA_24 
REMARK    7  A    between atoms: CA_24  and  CB_25 
REMARK    8  A    between atoms: CA_24  and  CT_30 
REMARK    9  A    between atoms: CB_25  and  CG_26 
REMARK   10  A    between atoms: CG_26  and  CD_27 
ROOT
ATOM      1  C11 FOL d          30.751   5.745   6.177  0.00  0.00     0.018 A 
ATOM      2  C12 FOL d          31.726   4.899   6.782  0.00  0.00     0.018 A 
ATOM      3  C13 FOL d          31.417   3.673   7.565  0.00  0.00     0.030 A 
ATOM      4  C14 FOL d          29.999   3.301   7.726  0.00  0.00     0.028 A 
ATOM      5  C15 FOL d          29.117   4.092   7.167  0.00  0.00     0.030 A 
ATOM      6  C16 FOL d          29.485   5.361   6.362  0.00  0.00     0.018 A 
ENDROOT
BRANCH   4   7
ATOM      7  N10 FOL d          29.699   2.174   8.426  0.00  0.00    -0.384 N 
ATOM      8  H7  FOL d          30.473   1.628   8.831  0.00  0.00     0.160 HD
BRANCH   7   9
ATOM      9  C9  FOL d          28.243   1.670   8.645  0.00  0.00     0.180 C 
BRANCH   9  10
ATOM     10  C6  FOL d          27.594   1.182   7.480  0.00  0.00     0.070 A 
ATOM     11  N5  FOL d          28.370   1.046   6.335  0.00  0.00    -0.241 NA
ATOM     12  C4A FOL d          27.652   0.569   5.213  0.00  0.00     0.174 A 
ATOM     13  C4  FOL d          28.304   0.378   3.953  0.00  0.00     0.292 A 
ATOM     14  C8A FOL d          26.371   0.295   5.315  0.00  0.00     0.202 A 
ATOM     15  N3  FOL d          27.585  -0.050   2.965  0.00  0.00    -0.152 N 
ATOM     16  O4  FOL d          29.438   0.588   3.764  0.00  0.00    -0.265 OA
ATOM     17  C2  FOL d          26.271  -0.315   3.089  0.00  0.00     0.703 A 
ATOM     18  H3  FOL d          28.022  -0.189   2.076  0.00  0.00     0.187 HD
ATOM     19  N1  FOL d          25.713  -0.133   4.275  0.00  0.00    -0.043 NA
ATOM     20  N8  FOL d          25.626   0.432   6.472  0.00  0.00    -0.237 NA
ATOM     21  C7  FOL d          26.238   0.833   7.398  0.00  0.00     0.147 A 
BRANCH  17  22
ATOM     22  NA2 FOL d          25.741  -0.688   2.092  0.00  0.00    -0.233 N 
ATOM     23  H1  FOL d          24.736  -0.914   2.096  0.00  0.00     0.174 HD
ATOM     24  H2  FOL d          26.287  -0.785   1.224  0.00  0.00     0.174 HD
ENDBRANCH  17  22
ENDBRANCH   9  10
ENDBRANCH   7   9
ENDBRANCH   4   7
BRANCH   1  25
ATOM     25  C   FOL d          31.103   6.967   5.385  0.00  0.00     0.185 C 
ATOM     26  O   FOL d          32.205   7.775   5.679  0.00  0.00    -0.172 OA
ATOM     27  N   FOL d          30.334   7.271   4.358  0.00  0.00    -0.353 N 
ATOM     28  H12 FOL d          29.651   6.595   4.080  0.00  0.00     0.162 HD
BRANCH  27  29
ATOM     29  CA  FOL d          30.396   8.479   3.615  0.00  0.00     0.185 C 
BRANCH  29  30
ATOM     30  CB  FOL d          30.706   8.146   2.055  0.00  0.00     0.046 C 
BRANCH  30  31
ATOM     31  CG  FOL d          32.023   8.575   1.743  0.00  0.00     0.116 C 
BRANCH  31  32
ATOM     32  CD  FOL d          32.003   8.794   0.478  0.00  0.00     0.172 C 
ATOM     33  OE1 FOL d          31.924  10.234   0.276  0.00  0.00    -0.648 OA
ATOM     34  OE2 FOL d          32.054   7.758  -0.359  0.00  0.00    -0.648 OA
ENDBRANCH  31  32
ENDBRANCH  30  31
ENDBRANCH  29  30
BRANCH  29  35
ATOM     35  CT  FOL d          29.078   9.043   3.508  0.00  0.00     0.196 C 
ATOM     36  O1  FOL d          27.958   8.315   3.516  0.00  0.00    -0.646 OA
ATOM     37  O2  FOL d          29.113  10.230   3.412  0.00  0.00    -0.646 OA
ENDBRANCH  29  35
ENDBRANCH  27  29
ENDBRANCH   1  25
TORSDOF 10
