REMARK  3 active torsions:
REMARK  status: ('A' for Active; 'I' for Inactive)
REMARK    1  A    between atoms: CAK_2  and  CAL_4 
REMARK    2  A    between atoms: CAO_7  and  OAD_8 
REMARK    3  A    between atoms: CAM_14  and  OAC_15 
ROOT
ATOM      1  CAL K2Q d           2.038   0.583  45.222  0.00  0.00     0.020 C 
ATOM      2  CAI K2Q d           1.154   1.686  45.119  0.00  0.00     0.021 C 
ATOM      3  CAG K2Q d           3.267   0.656  45.946  0.00  0.00     0.090 C 
ATOM      4  CAO K2Q d           3.841   1.883  46.420  0.00  0.00     0.108 C 
ATOM      5  CAF K2Q d           4.111   1.837  47.786  0.00  0.00     0.011 C 
ATOM      6  CAE K2Q d           3.335   2.412  48.790  0.00  0.00    -0.002 C 
ATOM      7  CAH K2Q d           2.089   3.057  48.586  0.00  0.00     0.196 C 
ATOM      8  OAJ K2Q d           1.294   2.385  47.550  0.00  0.00    -0.376 OA
ATOM      9  CAN K2Q d           1.545   2.801  46.173  0.00  0.00     0.177 C 
ATOM     10  CAM K2Q d           2.983   3.155  45.993  0.00  0.00     0.189 C 
ENDROOT
BRANCH   1  11
ATOM     11  CAK K2Q d           1.576  -0.622  44.637  0.00  0.00     0.205 C 
ATOM     12  OAA K2Q d           0.533  -0.615  43.874  0.00  0.00    -0.644 OA
ATOM     13  OAB K2Q d           2.237  -1.677  44.792  0.00  0.00    -0.644 OA
ENDBRANCH   1  11
BRANCH   4  14
ATOM     14  OAD K2Q d           5.064   2.088  45.676  0.00  0.00    -0.383 OA
ATOM     15  H4  K2Q d           4.864   2.145  44.749  0.00  0.00     0.211 HD
ENDBRANCH   4  14
BRANCH  10  16
ATOM     16  OAC K2Q d           3.211   3.503  44.571  0.00  0.00    -0.389 OA
ATOM     17  H11 K2Q d           4.125   3.731  44.444  0.00  0.00     0.210 HD
ENDBRANCH  10  16
TORSDOF 3
