REMARK  10 active torsions:
REMARK  status: ('A' for Active; 'I' for Inactive)
REMARK    1  A    between atoms: C8_8  and  C1_1 
REMARK    2  A    between atoms: N7_7  and  C8_8 
REMARK    3  A    between atoms: C28_28  and  N7_7 
REMARK    4  A    between atoms: C8_8  and  C9_9 
REMARK       I    between atoms: C9_9  and  N11_11 
REMARK    5  A    between atoms: C12_12  and  C13_13 
REMARK       I    between atoms: C13_13  and  N15_15 
REMARK    6  A    between atoms: N15_15  and  C16_16 
REMARK    7  A    between atoms: C16_16  and  C17_17 
REMARK    8  A    between atoms: C20_20  and  C23_23 
REMARK    9  A    between atoms: C23_23  and  N25_25 
REMARK   10  A    between atoms: C29_30  and  C28_28 
REMARK       I    between atoms: C29_30  and  N2_33 
ROOT
ATOM      1  C9  MM9 d          17.912 -13.274  22.167  0.00  0.00     0.251 C 
ATOM      2  O0  MM9 d          16.869 -12.692  22.449  0.00  0.00    -0.271 OA
ATOM      3  N11 MM9 d          18.737 -12.698  21.270  0.00  0.00    -0.337 N 
ATOM      4  C12 MM9 d          18.555 -11.507  20.435  0.00  0.00     0.180 C 
ATOM      5  C26 MM9 d          19.744 -11.895  19.547  0.00  0.00     0.055 C 
ATOM      6  C27 MM9 d          19.983 -13.031  20.550  0.00  0.00     0.129 C 
ENDROOT
BRANCH   1   7
ATOM      7  C8  MM9 d          18.200 -14.613  22.803  0.00  0.00     0.281 C 
BRANCH   7   8
ATOM      8  C1  MM9 d          18.758 -14.410  24.235  0.00  0.00     0.026 C 
ATOM      9  C2  MM9 d          18.885 -15.767  24.961  0.00  0.00     0.007 C 
ATOM     10  C3  MM9 d          19.473 -15.588  26.370  0.00  0.00     0.000 C 
ATOM     11  C4  MM9 d          20.828 -14.860  26.312  0.00  0.00     0.000 C 
ATOM     12  C5  MM9 d          20.684 -13.490  25.623  0.00  0.00     0.000 C 
ATOM     13  C6  MM9 d          20.128 -13.697  24.201  0.00  0.00     0.007 C 
ENDBRANCH   7   8
BRANCH   7  14
ATOM     14  N7  MM9 d          16.934 -15.390  22.820  0.00  0.00    -0.054 N 
ATOM     15  H12 MM9 d          16.257 -14.869  23.355  0.00  0.00     0.278 HD
ATOM     16  H13 MM9 d          17.116 -16.271  23.275  0.00  0.00     0.278 HD
BRANCH  14  17
ATOM     17  C28 MM9 d          16.340 -15.677  21.482  0.00  0.00     0.335 C 
BRANCH  17  18
ATOM     18  C29 MM9 d          14.820 -15.691  21.543  0.00  0.00     0.244 C 
ATOM     19  O30 MM9 d          14.273 -15.766  22.639  0.00  0.00    -0.272 OA
ATOM     20  N2  MM9 d          14.038 -15.608  20.416  0.00  0.00    -0.359 N 
ATOM     21  C10 MM9 d          14.610 -15.520  19.060  0.00  0.00     0.152 C 
ATOM     22  C30 MM9 d          12.563 -15.596  20.527  0.00  0.00     0.152 C 
ENDBRANCH  17  18
ENDBRANCH  14  17
ENDBRANCH   7  14
ENDBRANCH   1   7
BRANCH   4  23
ATOM     23  C13 MM9 d          17.181 -11.654  19.801  0.00  0.00     0.240 C 
ATOM     24  O14 MM9 d          16.879 -12.696  19.243  0.00  0.00    -0.271 OA
ATOM     25  N15 MM9 d          16.259 -10.694  19.995  0.00  0.00    -0.355 N 
ATOM     26  H16 MM9 d          16.502  -9.871  20.509  0.00  0.00     0.162 HD
BRANCH  25  27
ATOM     27  C16 MM9 d          14.902 -10.841  19.462  0.00  0.00     0.161 C 
BRANCH  27  28
ATOM     28  C17 MM9 d          13.944 -10.823  20.624  0.00  0.00    -0.040 A 
ATOM     29  C18 MM9 d          13.334  -9.623  20.972  0.00  0.00     0.010 A 
ATOM     30  C19 MM9 d          12.445  -9.574  22.026  0.00  0.00     0.016 A 
ATOM     31  C20 MM9 d          12.215 -10.734  22.787  0.00  0.00     0.007 A 
ATOM     32  C21 MM9 d          12.842 -11.945  22.437  0.00  0.00     0.016 A 
ATOM     33  C22 MM9 d          13.701 -11.978  21.344  0.00  0.00     0.010 A 
BRANCH  31  34
ATOM     34  C23 MM9 d          11.227 -10.689  23.895  0.00  0.00     0.102 C 
ATOM     35  N24 MM9 d          10.934  -9.560  24.477  0.00  0.00    -0.385 N 
ATOM     36  H23 MM9 d          10.248  -9.539  25.244  0.00  0.00     0.157 HD
ATOM     37  H24 MM9 d          11.389  -8.689  24.169  0.00  0.00     0.157 HD
BRANCH  34  38
ATOM     38  N25 MM9 d          10.536 -11.834  24.276  0.00  0.00    -0.385 N 
ATOM     39  H25 MM9 d          10.751 -12.737  23.830  0.00  0.00     0.157 HD
ATOM     40  H26 MM9 d           9.810 -11.779  25.004  0.00  0.00     0.157 HD
ENDBRANCH  34  38
ENDBRANCH  31  34
ENDBRANCH  27  28
ENDBRANCH  25  27
ENDBRANCH   4  23
TORSDOF 10
