3ao1_ligand

Created by X-TOOL on Fri Sep 26 17:34:52 2014
 16 17  0  0  0  0  0  0  0  0999 V2000
   19.6760    8.1270   10.5730  C 0  0  0  2  0  3
   20.8500    7.7520   11.2100  C 0  0  0  1  0  3
   22.1250    8.1560   10.7810  C 0  0  0  2  0  3
   22.2940    8.9750    9.6620  C 0  0  0  2  0  3
   21.1340    9.3620    9.0160  C 0  0  0  1  0  3
   19.8210    8.9430    9.4710  C 0  0  0  1  0  3
   18.8870    9.4690    8.6220  O 0  0  0  1  0  2
   19.5820    9.9360    7.4590  C 0  0  0  3  0  4
   20.9380   10.1230    7.9060  O 0  0  0  1  0  2
   20.7400    6.9580   12.2930  O 0  0  0  2  0  2
   18.7033    7.7983   10.9207  H 0  0  0  1  0  1
   22.9983    7.8245   11.3311  H 0  0  0  1  0  1
   23.2742    9.2880    9.3210  H 0  0  0  1  0  1
   19.1542   10.8853    7.1044  H 0  0  0  1  0  1
   19.5371    9.1896    6.6523  H 0  0  0  1  0  1
   19.8227    6.7727   12.4565  H 0  0  0  1  0  1
  1  2  4  0  0  1
  1  6  4  0  0  1
  2  3  4  0  0  1
  2 10  1  0  0  2
  3  4  4  0  0  1
  4  5  4  0  0  1
  5  6  4  0  0  1
  5  9  1  0  0  1
  6  7  1  0  0  1
  7  8  1  0  0  1
  8  9  1  0  0  1
  1 11  1  0  0  2
  3 12  1  0  0  2
  4 13  1  0  0  2
  8 14  1  0  0  2
  8 15  1  0  0  2
 10 16  1  0  0  2
M  END
> <MOLECULAR_FORMULA>
C7H6O3

> <MOLECULAR_WEIGHT>
138.1

> <NUM_HB_ATOMS>
3  

> <NUM_ROTOR>
0  

> <XLOGP2>
1.23 

$$$$
