REMARK  13 active torsions:
REMARK  status: ('A' for Active; 'I' for Inactive)
REMARK    1  A    between atoms: O1_20  and  C1_1 
REMARK    2  A    between atoms: C4_4  and  C9_9 
REMARK    3  A    between atoms: C8_8  and  C7_7 
REMARK    4  A    between atoms: C7_7  and  O1_20 
REMARK    5  A    between atoms: C10_10  and  C8_8 
REMARK    6  A    between atoms: C9_9  and  N1_22 
REMARK    7  A    between atoms: C9_9  and  N2_23 
REMARK    8  A    between atoms: C8'_18  and  C10_10 
REMARK    9  A    between atoms: O1'_21  and  C1'_11 
REMARK   10  A    between atoms: C4'_14  and  C9'_19 
REMARK   11  A    between atoms: C7'_17  and  C8'_18 
REMARK   12  A    between atoms: C7'_17  and  O1'_21 
REMARK   13  A    between atoms: C9'_19  and  N1'_24 
ROOT
ATOM      1  C10 PNT d         -12.579  23.829  48.801  0.00  0.00     0.004 C 
ENDROOT
BRANCH   1   2
ATOM      2  C8  PNT d         -11.313  23.707  47.956  0.00  0.00     0.027 C 
BRANCH   2   3
ATOM      3  C7  PNT d         -10.631  22.354  48.127  0.00  0.00     0.175 C 
BRANCH   3   4
ATOM      4  O1  PNT d         -10.052  22.338  49.422  0.00  0.00    -0.351 OA
BRANCH   4   5
ATOM      5  C1  PNT d          -9.623  21.183  50.011  0.00  0.00     0.068 A 
ATOM      6  C2  PNT d          -9.636  19.950  49.344  0.00  0.00     0.037 A 
ATOM      7  C3  PNT d          -9.168  18.813  49.985  0.00  0.00     0.018 A 
ATOM      8  C4  PNT d          -8.688  18.913  51.291  0.00  0.00     0.007 A 
ATOM      9  C5  PNT d          -8.659  20.149  51.947  0.00  0.00     0.018 A 
ATOM     10  C6  PNT d          -9.116  21.290  51.306  0.00  0.00     0.037 A 
BRANCH   8  11
ATOM     11  C9  PNT d          -8.187  17.704  52.012  0.00  0.00     0.102 C 
BRANCH  11  12
ATOM     12  N1  PNT d          -8.589  16.553  51.695  0.00  0.00    -0.385 N 
ATOM     13  H19 PNT d          -8.236  15.727  52.200  0.00  0.00     0.157 HD
ATOM     14  H20 PNT d          -9.270  16.438  50.931  0.00  0.00     0.157 HD
ENDBRANCH  11  12
BRANCH  11  15
ATOM     15  N2  PNT d          -7.332  17.857  53.022  0.00  0.00    -0.385 N 
ATOM     16  H21 PNT d          -7.004  18.798  53.281  0.00  0.00     0.157 HD
ATOM     17  H22 PNT d          -6.999  17.034  53.544  0.00  0.00     0.157 HD
ENDBRANCH  11  15
ENDBRANCH   8  11
ENDBRANCH   4   5
ENDBRANCH   3   4
ENDBRANCH   2   3
ENDBRANCH   1   2
BRANCH   1  18
ATOM     18  C8' PNT d         -13.198  25.206  48.592  0.00  0.00     0.027 C 
BRANCH  18  19
ATOM     19  C7' PNT d         -12.539  26.323  49.413  0.00  0.00     0.175 C 
BRANCH  19  20
ATOM     20  O1' PNT d         -12.339  25.940  50.782  0.00  0.00    -0.351 OA
BRANCH  20  21
ATOM     21  C1' PNT d         -13.364  25.595  51.618  0.00  0.00     0.068 A 
ATOM     22  C2' PNT d         -14.597  26.261  51.537  0.00  0.00     0.037 A 
ATOM     23  C3' PNT d         -15.640  25.919  52.385  0.00  0.00     0.018 A 
ATOM     24  C4' PNT d         -15.445  24.915  53.317  0.00  0.00     0.007 A 
ATOM     25  C5' PNT d         -14.213  24.249  53.413  0.00  0.00     0.018 A 
ATOM     26  C6' PNT d         -13.162  24.585  52.555  0.00  0.00     0.037 A 
BRANCH  24  27
ATOM     27  C9' PNT d         -16.563  24.516  54.222  0.00  0.00     0.102 C 
ATOM     28  N2' PNT d         -16.689  23.222  54.532  0.00  0.00    -0.385 N 
ATOM     29  H25 PNT d         -16.003  22.539  54.180  0.00  0.00     0.157 HD
ATOM     30  H26 PNT d         -17.472  22.908  55.123  0.00  0.00     0.157 HD
BRANCH  27  31
ATOM     31  N1' PNT d         -17.389  25.375  54.639  0.00  0.00    -0.385 N 
ATOM     32  H23 PNT d         -18.157  25.090  55.263  0.00  0.00     0.157 HD
ATOM     33  H24 PNT d         -17.295  26.361  54.355  0.00  0.00     0.157 HD
ENDBRANCH  27  31
ENDBRANCH  24  27
ENDBRANCH  20  21
ENDBRANCH  19  20
ENDBRANCH  18  19
ENDBRANCH   1  18
TORSDOF 13
