REMARK  0 active torsions:
REMARK  status: ('A' for Active; 'I' for Inactive)
ROOT
ATOM      1  C9  MOL d          29.356  32.710   8.477  0.00  0.00     0.051 A 
ATOM      2  C8  MOL d          30.339  33.322   9.235  0.00  0.00     0.091 A 
ATOM      3  N7  MOL d          29.809  34.323   9.986  0.00  0.00    -0.360 N 
ATOM      4  C5  MOL d          28.462  34.357   9.709  0.00  0.00     0.130 A 
ATOM      5  C6  MOL d          27.414  35.191  10.192  0.00  0.00     0.275 A 
ATOM      6  O6  MOL d          27.452  36.124  11.019  0.00  0.00    -0.266 OA
ATOM      7  N1  MOL d          26.178  34.843   9.606  0.00  0.00    -0.316 N 
ATOM      8  C2  MOL d          25.959  33.838   8.675  0.00  0.00     0.210 A 
ATOM      9  N3  MOL d          26.953  33.064   8.232  0.00  0.00    -0.242 NA
ATOM     10  C4  MOL d          28.172  33.372   8.779  0.00  0.00     0.091 A 
ATOM     11  H3  MOL d          30.318  34.938  10.637  0.00  0.00     0.165 HD
ATOM     12  H4  MOL d          25.380  35.374   9.890  0.00  0.00     0.170 HD
ENDROOT
TORSDOF 0
