1i80_ligand

Created by X-TOOL on Fri Sep 26 17:34:18 2014
 15 16  0  0  0  0  0  0  0  0999 V2000
   29.3560   32.7100    8.4770  C 0  0  0  2  0  3
   30.3390   33.3220    9.2350  C 0  0  0  2  0  3
   29.8090   34.3230    9.9860  N 0  0  0  2  0  3
   28.4620   34.3570    9.7090  C 0  0  0  1  0  3
   27.4140   35.1910   10.1920  C 0  0  0  1  0  3
   27.4520   36.1240   11.0190  O 0  0  0  1  0  1
   26.1780   34.8430    9.6060  N 0  0  0  2  0  3
   25.9590   33.8380    8.6750  C 0  0  0  2  0  3
   26.9530   33.0640    8.2320  N 0  0  0  1  0  2
   28.1720   33.3720    8.7790  C 0  0  0  1  0  3
   29.4842   31.8790    7.7849  H 0  0  0  1  0  1
   31.3910   33.0405    9.2303  H 0  0  0  1  0  1
   30.3179   34.9378   10.6372  H 0  0  0  1  0  1
   25.3800   35.3742    9.8905  H 0  0  0  1  0  1
   24.9510   33.6762    8.2959  H 0  0  0  1  0  1
 10  1  1  0  0  1
  1  2  2  0  0  1
  2  3  1  0  0  1
  3  4  1  0  0  1
  4 10  2  0  0  1
  4  5  1  0  0  1
  5  7  1  0  0  1
  5  6  2  0  0  2
  7  8  1  0  0  1
  8  9  2  0  0  1
  9 10  1  0  0  1
  1 11  1  0  0  2
  2 12  1  0  0  2
  3 13  1  0  0  2
  7 14  1  0  0  2
  8 15  1  0  0  2
M  END
> <MOLECULAR_FORMULA>
C6H5N3O

> <MOLECULAR_WEIGHT>
135.1

> <NUM_HB_ATOMS>
4  

> <NUM_ROTOR>
0  

> <XLOGP2>
-0.35

$$$$
