REMARK  4 active torsions:
REMARK  status: ('A' for Active; 'I' for Inactive)
REMARK    1  A    between atoms: C1_1  and  C2_2 
REMARK    2  A    between atoms: C2_2  and  O1P_6 
REMARK    3  A    between atoms: N2_3  and  O2_4 
REMARK    4  A    between atoms: O1P_6  and  P_10 
ROOT
ATOM      1  C1  PGH d         -22.228   7.300  12.321  0.00  0.00     0.199 C 
ATOM      2  N2  PGH d         -21.615   6.308  12.949  0.00  0.00    -0.247 N 
ATOM      3  O1  PGH d         -21.537   8.248  11.562  0.00  0.00    -0.173 OA
ATOM      4  H3  PGH d         -22.102   5.787  13.650  0.00  0.00     0.196 HD
ENDROOT
BRANCH   1   5
ATOM      5  C2  PGH d         -23.725   7.409  12.464  0.00  0.00     0.271 C 
BRANCH   5   6
ATOM      6  O1P PGH d         -24.059   8.740  12.808  0.00  0.00    -0.275 OA
BRANCH   6   7
ATOM      7  P   PGH d         -25.605   9.089  13.177  0.00  0.00     0.422 P 
ATOM      8  O2P PGH d         -25.521  10.458  13.858  0.00  0.00    -0.617 OA
ATOM      9  O3P PGH d         -26.163   8.002  14.074  0.00  0.00    -0.617 OA
ATOM     10  O4P PGH d         -26.447   9.216  11.920  0.00  0.00    -0.617 OA
ENDBRANCH   6   7
ENDBRANCH   5   6
ENDBRANCH   1   5
BRANCH   2  11
ATOM     11  O2  PGH d         -20.325   5.994  12.646  0.00  0.00    -0.288 OA
ATOM     12  H4  PGH d         -20.043   5.264  13.185  0.00  0.00     0.244 HD
ENDBRANCH   2  11
TORSDOF 4
