REMARK  15 active torsions:
REMARK  status: ('A' for Active; 'I' for Inactive)
REMARK    1  A    between atoms: C2_2  and  C3_3 
REMARK       I    between atoms: C3_3  and  N2_30 
REMARK    2  A    between atoms: C23_40  and  O4_4 
REMARK    3  A    between atoms: N3_34  and  C10_9 
REMARK    4  A    between atoms: C10_9  and  C11_10 
REMARK    5  A    between atoms: C11_10  and  O2_35 
REMARK    6  A    between atoms: C11_10  and  C12_11 
REMARK    7  A    between atoms: C12_11  and  C13_12 
REMARK    8  A    between atoms: C13_12  and  C21_18 
REMARK    9  A    between atoms: C13_12  and  C14_13 
REMARK   10  A    between atoms: C14_13  and  C15_14 
REMARK       I    between atoms: C21_18  and  N4_39 
REMARK   11  A    between atoms: N4_39  and  C22_19 
REMARK   12  A    between atoms: C26_43  and  C27_21 
REMARK   13  A    between atoms: C27_21  and  C28_44 
REMARK       I    between atoms: N1_28  and  C31_23 
REMARK   14  A    between atoms: C31_23  and  C26_43 
REMARK   15  A    between atoms: N2_30  and  C4_31 
ROOT
ATOM      1  C1  MOL d           9.179  24.072   4.194  0.00  0.00     0.169 C 
ATOM      2  C2  MOL d          10.352  24.965   4.625  0.00  0.00     0.297 C 
ATOM      3  O5  MOL d           7.994  24.619   0.836  0.00  0.00    -0.268 OA
ATOM      4  C8  MOL d          11.513  24.411   2.552  0.00  0.00     0.256 C 
ATOM      5  C9  MOL d          10.320  23.604   2.083  0.00  0.00     0.154 C 
ATOM      6  C31 MOL d           8.032  24.546   2.064  0.00  0.00     0.243 C 
ATOM      7  N1  MOL d           9.125  24.111   2.738  0.00  0.00    -0.345 N 
ATOM      8  N3  MOL d          11.629  24.508   4.013  0.00  0.00    -0.053 N 
ATOM      9  H39 MOL d          11.789  23.571   4.348  0.00  0.00     0.281 HD
ENDROOT
BRANCH   8  10
ATOM     10  C10 MOL d          12.782  25.303   4.456  0.00  0.00     0.267 C 
BRANCH  10  11
ATOM     11  C11 MOL d          13.932  24.312   4.685  0.00  0.00     0.145 C 
BRANCH  11  12
ATOM     12  O2  MOL d          15.143  24.989   4.371  0.00  0.00    -0.394 OA
ATOM     13  H40 MOL d          15.877  24.400   4.503  0.00  0.00     0.210 HD
ENDBRANCH  11  12
BRANCH  11  14
ATOM     14  C12 MOL d          14.016  23.831   6.135  0.00  0.00     0.047 C 
BRANCH  14  15
ATOM     15  C13 MOL d          15.181  22.887   6.456  0.00  0.00     0.084 C 
BRANCH  15  16
ATOM     16  C21 MOL d          14.979  21.507   5.802  0.00  0.00     0.222 C 
ATOM     17  O3  MOL d          13.874  20.964   5.788  0.00  0.00    -0.273 OA
ATOM     18  N4  MOL d          16.082  20.973   5.250  0.00  0.00    -0.353 N 
ATOM     19  H43 MOL d          16.841  21.570   4.990  0.00  0.00     0.163 HD
BRANCH  18  20
ATOM     20  C22 MOL d          16.191  19.527   5.022  0.00  0.00     0.116 C 
ATOM     21  C23 MOL d          17.596  19.015   5.404  0.00  0.00     0.141 C 
ATOM     22  C24 MOL d          17.609  17.738   4.558  0.00  0.00     0.034 C 
ATOM     23  C25 MOL d          16.853  18.006   3.302  0.00  0.00     0.009 C 
ATOM     24  C30 MOL d          15.744  19.014   3.624  0.00  0.00     0.007 C 
ATOM     25  C29 MOL d          15.727  20.116   2.603  0.00  0.00     0.012 C 
BRANCH  21  26
ATOM     26  O4  MOL d          18.574  19.924   4.905  0.00  0.00    -0.394 OA
ATOM     27  H4  MOL d          18.566  20.716   5.430  0.00  0.00     0.210 HD
ENDBRANCH  21  26
ENDBRANCH  18  20
ENDBRANCH  15  16
BRANCH  15  28
ATOM     28  C14 MOL d          15.265  22.756   7.978  0.00  0.00     0.052 C 
BRANCH  28  29
ATOM     29  C15 MOL d          16.379  21.841   8.425  0.00  0.00    -0.057 A 
ATOM     30  C20 MOL d          16.030  20.685   9.132  0.00  0.00     0.007 A 
ATOM     31  C19 MOL d          17.027  19.833   9.604  0.00  0.00     0.001 A 
ATOM     32  C18 MOL d          18.371  20.137   9.337  0.00  0.00     0.000 A 
ATOM     33  C17 MOL d          18.714  21.292   8.611  0.00  0.00     0.001 A 
ATOM     34  C16 MOL d          17.713  22.145   8.152  0.00  0.00     0.007 A 
ENDBRANCH  28  29
ENDBRANCH  15  28
ENDBRANCH  14  15
ENDBRANCH  11  14
ENDBRANCH  10  11
ENDBRANCH   8  10
BRANCH   2  35
ATOM     35  C3  MOL d          10.403  24.980   6.145  0.00  0.00     0.251 C 
ATOM     36  N2  MOL d          10.042  26.167   6.691  0.00  0.00    -0.351 N 
ATOM     37  H32 MOL d           9.824  26.930   6.082  0.00  0.00     0.163 HD
ATOM     38  O1  MOL d          10.729  23.960   6.759  0.00  0.00    -0.271 OA
BRANCH  36  39
ATOM     39  C4  MOL d           9.959  26.375   8.129  0.00  0.00     0.022 C 
ATOM     40  C7  MOL d           8.936  25.395   8.734  0.00  0.00     0.037 C 
ATOM     41  C6  MOL d          11.340  26.205   8.779  0.00  0.00     0.037 C 
ATOM     42  C5  MOL d           9.466  27.818   8.359  0.00  0.00     0.037 C 
ENDBRANCH  36  39
ENDBRANCH   2  35
BRANCH   6  43
ATOM     43  C26 MOL d           6.830  24.945   2.833  0.00  0.00     0.075 C 
BRANCH  43  44
ATOM     44  C27 MOL d           5.554  25.172   2.149  0.00  0.00     0.018 C 
BRANCH  44  45
ATOM     45  C28 MOL d           4.287  25.062   2.854  0.00  0.00    -0.018 A 
ATOM     46  C32 MOL d           3.094  24.992   2.133  0.00  0.00     0.014 A 
ATOM     47  C33 MOL d           1.872  24.944   2.811  0.00  0.00     0.020 A 
ATOM     48  C34 MOL d           1.902  24.968   4.213  0.00  0.00     0.116 A 
ATOM     49  N5  MOL d           3.061  25.013   4.869  0.00  0.00    -0.272 NA
ATOM     50  C35 MOL d           4.232  25.069   4.247  0.00  0.00     0.127 A 
ENDBRANCH  44  45
ENDBRANCH  43  44
ENDBRANCH   6  43
TORSDOF 15
