REMARK  12 active torsions:
REMARK  status: ('A' for Active; 'I' for Inactive)
REMARK    1  A    between atoms: N_1  and  CA_2 
REMARK    2  A    between atoms: CA_2  and  C_3 
REMARK    3  A    between atoms: CA_2  and  CB_5 
REMARK       I    between atoms: C_3  and  N_9 
REMARK    4  A    between atoms: CB_5  and  CG_6 
REMARK    5  A    between atoms: N_9  and  CA_10 
REMARK    6  A    between atoms: CA_10  and  C_11 
REMARK    7  A    between atoms: CA_10  and  CB_13 
REMARK       I    between atoms: C_11  and  N_17 
REMARK    8  A    between atoms: CB_13  and  CG_14 
REMARK    9  A    between atoms: N_17  and  CA_18 
REMARK   10  A    between atoms: CA_18  and  C_19 
REMARK   11  A    between atoms: CA_18  and  CB_21 
REMARK   12  A    between atoms: CB_21  and  CG_22 
ROOT
ATOM      1  CA  LEU d          23.820  -7.466 -14.322  0.00  0.00     0.177 C 
ENDROOT
BRANCH   1   2
ATOM      2  N   LEU d          22.792  -6.434 -14.245  0.00  0.00    -0.346 N 
ATOM      3  C   LEU d          22.191  -5.958 -15.330  0.00  0.00     0.249 C 
ATOM      4  O   LEU d          22.451  -6.348 -16.467  0.00  0.00    -0.271 OA
ATOM      5  H14 LEU d          22.532  -6.074 -13.349  0.00  0.00     0.163 HD
BRANCH   3   6
ATOM      6  CA  LEU d          21.137  -4.880 -15.099  0.00  0.00     0.275 C 
BRANCH   6   7
ATOM      7  N   LEU d          20.898  -4.108 -16.312  0.00  0.00    -0.066 N 
ATOM      8  H1  LEU d          20.199  -3.405 -16.131  0.00  0.00     0.275 HD
ATOM      9  H2  LEU d          20.575  -4.722 -17.043  0.00  0.00     0.275 HD
ATOM     10  H3  LEU d          21.755  -3.663 -16.601  0.00  0.00     0.275 HD
ENDBRANCH   6   7
BRANCH   6  11
ATOM     11  CB  LEU d          19.834  -5.513 -14.604  0.00  0.00     0.046 C 
BRANCH  11  12
ATOM     12  CG  LEU d          18.695  -4.546 -14.275  0.00  0.00    -0.020 C 
ATOM     13  CD1 LEU d          17.417  -5.309 -13.961  0.00  0.00     0.009 C 
ATOM     14  CD2 LEU d          19.077  -3.632 -13.119  0.00  0.00     0.009 C 
ENDBRANCH  11  12
ENDBRANCH   6  11
ENDBRANCH   3   6
ENDBRANCH   1   2
BRANCH   1  15
ATOM     15  C   LEU d          23.206  -8.846 -14.549  0.00  0.00     0.241 C 
ATOM     16  O   LEU d          22.110  -9.132 -14.065  0.00  0.00    -0.271 OA
ATOM     17  N   LEU d          23.928  -9.689 -15.283  0.00  0.00    -0.345 N 
ATOM     18  H25 LEU d          24.826  -9.388 -15.604  0.00  0.00     0.163 HD
BRANCH  17  19
ATOM     19  CA  LEU d          23.477 -11.034 -15.646  0.00  0.00     0.185 C 
BRANCH  19  20
ATOM     20  C   LEU d          22.572 -11.013 -16.875  0.00  0.00     0.196 C 
ATOM     21  O   LEU d          22.643 -11.897 -17.731  0.00  0.00    -0.646 OA
ATOM     22  OXT LEU d          21.757 -10.108 -17.044  0.00  0.00    -0.646 OA
ENDBRANCH  19  20
BRANCH  19  23
ATOM     23  CB  LEU d          22.790 -11.741 -14.471  0.00  0.00     0.040 C 
BRANCH  23  24
ATOM     24  CG  LEU d          22.225 -13.141 -14.737  0.00  0.00    -0.020 C 
ATOM     25  CD1 LEU d          22.143 -13.947 -13.450  0.00  0.00     0.009 C 
ATOM     26  CD2 LEU d          20.863 -13.075 -15.421  0.00  0.00     0.009 C 
ENDBRANCH  23  24
ENDBRANCH  19  23
ENDBRANCH  17  19
ENDBRANCH   1  15
BRANCH   1  27
ATOM     27  CB  LEU d          24.667  -7.466 -13.048  0.00  0.00     0.038 C 
BRANCH  27  28
ATOM     28  CG  LEU d          25.762  -8.528 -12.925  0.00  0.00    -0.020 C 
ATOM     29  CD1 LEU d          26.807  -8.357 -14.017  0.00  0.00     0.009 C 
ATOM     30  CD2 LEU d          26.407  -8.468 -11.550  0.00  0.00     0.009 C 
ENDBRANCH  27  28
ENDBRANCH   1  27
TORSDOF 12
