REMARK  6 active torsions:
REMARK  status: ('A' for Active; 'I' for Inactive)
REMARK    1  A    between atoms: C1_1  and  O1_10 
REMARK    2  A    between atoms: C2_2  and  N2_9 
REMARK    3  A    between atoms: C3_3  and  O3_11 
REMARK    4  A    between atoms: C4_4  and  O4_12 
REMARK    5  A    between atoms: C5_5  and  C6_6 
REMARK    6  A    between atoms: C6_6  and  O6_14 
REMARK       I    between atoms: N2_9  and  C7_7 
ROOT
ATOM      1  C1  NGA d          17.155  -1.241  36.364  0.00  0.00     0.282 C 
ATOM      2  C2  NGA d          16.090  -0.637  35.439  0.00  0.00     0.170 C 
ATOM      3  C3  NGA d          14.713  -1.245  35.722  0.00  0.00     0.177 C 
ATOM      4  C4  NGA d          14.801  -2.767  35.670  0.00  0.00     0.180 C 
ATOM      5  C5  NGA d          15.873  -3.235  36.645  0.00  0.00     0.179 C 
ATOM      6  O5  NGA d          17.148  -2.669  36.279  0.00  0.00    -0.349 OA
ENDROOT
BRANCH   2   7
ATOM      7  N2  NGA d          16.030   0.796  35.650  0.00  0.00    -0.349 N 
ATOM      8  C7  NGA d          16.187   1.633  34.630  0.00  0.00     0.214 C 
ATOM      9  O7  NGA d          16.388   1.256  33.476  0.00  0.00    -0.274 OA
ATOM     10  C8  NGA d          16.110   3.120  34.942  0.00  0.00     0.117 C 
ATOM     11  H11 NGA d          15.870   1.157  36.569  0.00  0.00     0.163 HD
ENDBRANCH   2   7
BRANCH   1  12
ATOM     12  O1  NGA d          16.890  -0.887  37.675  0.00  0.00    -0.369 OA
ATOM     13  H12 NGA d          17.559  -1.252  38.242  0.00  0.00     0.212 HD
ENDBRANCH   1  12
BRANCH   3  14
ATOM     14  O3  NGA d          13.774  -0.782  34.756  0.00  0.00    -0.391 OA
ATOM     15  H13 NGA d          14.060  -1.041  33.888  0.00  0.00     0.210 HD
ENDBRANCH   3  14
BRANCH   4  16
ATOM     16  O4  NGA d          15.141  -3.181  34.355  0.00  0.00    -0.390 OA
ATOM     17  H14 NGA d          14.474  -2.882  33.748  0.00  0.00     0.210 HD
ENDBRANCH   4  16
BRANCH   5  18
ATOM     18  C6  NGA d          16.038  -4.742  36.655  0.00  0.00     0.198 C 
BRANCH  18  19
ATOM     19  O6  NGA d          16.828  -5.156  37.759  0.00  0.00    -0.398 OA
ATOM     20  H15 NGA d          17.687  -4.754  37.701  0.00  0.00     0.209 HD
ENDBRANCH  18  19
ENDBRANCH   5  18
TORSDOF 6
