REMARK  11 active torsions:
REMARK  status: ('A' for Active; 'I' for Inactive)
REMARK    1  A    between atoms: N_1  and  CA_2 
REMARK    2  A    between atoms: CA_2  and  C_3 
REMARK    3  A    between atoms: CA_2  and  CB_6 
REMARK    4  A    between atoms: CB_6  and  CG_7 
REMARK    5  A    between atoms: CG_7  and  SD_8 
REMARK    6  A    between atoms: SD_8  and  C5'_10 
REMARK    7  A    between atoms: C5'_10  and  C4'_11 
REMARK    8  A    between atoms: C3'_13  and  O3'_14 
REMARK    9  A    between atoms: C2'_15  and  O2'_16 
REMARK   10  A    between atoms: C1'_17  and  N9_18 
REMARK   11  A    between atoms: C6_22  and  N6_23 
ROOT
ATOM      1  C4' SAM d           6.643  49.127   6.338  0.00  0.00     0.164 C 
ATOM      2  O4' SAM d           7.648  49.340   7.314  0.00  0.00    -0.355 OA
ATOM      3  C3' SAM d           7.291  49.457   4.996  0.00  0.00     0.180 C 
ATOM      4  C2' SAM d           8.264  50.526   5.403  0.00  0.00     0.198 C 
ATOM      5  C1' SAM d           8.769  49.945   6.705  0.00  0.00     0.262 C 
ENDROOT
BRANCH   1   6
ATOM      6  C5' SAM d           6.092  47.704   6.432  0.00  0.00     0.097 C 
BRANCH   6   7
ATOM      7  SD  SAM d           4.927  47.457   7.806  0.00  0.00    -0.221 SA
ATOM      8  CE  SAM d           4.235  45.858   7.273  0.00  0.00     0.078 C 
BRANCH   7   9
ATOM      9  CG  SAM d           6.082  46.970   9.121  0.00  0.00     0.065 C 
BRANCH   9  10
ATOM     10  CB  SAM d           5.889  47.832  10.369  0.00  0.00     0.053 C 
BRANCH  10  11
ATOM     11  CA  SAM d           6.323  49.284  10.205  0.00  0.00     0.284 C 
BRANCH  11  12
ATOM     12  N   SAM d           7.693  49.482  10.677  0.00  0.00    -0.065 N 
ATOM     13  H1  SAM d           8.319  48.894  10.149  0.00  0.00     0.275 HD
ATOM     14  H2  SAM d           7.750  49.241  11.654  0.00  0.00     0.275 HD
ATOM     15  H3  SAM d           7.955  50.447  10.553  0.00  0.00     0.275 HD
ENDBRANCH  11  12
BRANCH  11  16
ATOM     16  C   SAM d           5.411  50.184  11.022  0.00  0.00     0.204 C 
ATOM     17  O   SAM d           5.761  50.537  12.153  0.00  0.00    -0.646 OA
ATOM     18  OXT SAM d           4.320  50.557  10.574  0.00  0.00    -0.646 OA
ENDBRANCH  11  16
ENDBRANCH  10  11
ENDBRANCH   9  10
ENDBRANCH   7   9
ENDBRANCH   6   7
ENDBRANCH   1   6
BRANCH   3  19
ATOM     19  O3' SAM d           6.397  49.980   4.059  0.00  0.00    -0.390 OA
ATOM     20  H16 SAM d           6.019  50.783   4.398  0.00  0.00     0.210 HD
ENDBRANCH   3  19
BRANCH   5  21
ATOM     21  N9  SAM d           9.705  48.858   6.384  0.00  0.00    -0.294 N 
ATOM     22  C8  SAM d           9.690  47.593   6.915  0.00  0.00     0.214 A 
ATOM     23  N7  SAM d          10.699  46.865   6.362  0.00  0.00    -0.236 NA
ATOM     24  C5  SAM d          11.351  47.646   5.473  0.00  0.00     0.149 A 
ATOM     25  C6  SAM d          12.438  47.421   4.638  0.00  0.00     0.155 A 
ATOM     26  C4  SAM d          10.729  48.902   5.469  0.00  0.00     0.167 A 
ATOM     27  N1  SAM d          12.869  48.435   3.817  0.00  0.00    -0.222 NA
ATOM     28  C2  SAM d          12.245  49.668   3.829  0.00  0.00     0.237 A 
ATOM     29  N3  SAM d          11.176  49.885   4.655  0.00  0.00    -0.222 NA
BRANCH  25  30
ATOM     30  N6  SAM d          13.072  46.257   4.596  0.00  0.00    -0.382 N 
ATOM     31  H21 SAM d          13.874  46.130   3.963  0.00  0.00     0.157 HD
ATOM     32  H22 SAM d          12.762  45.480   5.197  0.00  0.00     0.157 HD
ENDBRANCH  25  30
ENDBRANCH   5  21
BRANCH   4  33
ATOM     33  O2' SAM d           7.571  51.706   5.698  0.00  0.00    -0.388 OA
ATOM     34  H18 SAM d           7.092  51.991   4.929  0.00  0.00     0.210 HD
ENDBRANCH   4  33
TORSDOF 11
