REMARK  12 active torsions:
REMARK  status: ('A' for Active; 'I' for Inactive)
REMARK    1  A    between atoms: C1_1  and  C2_4 
REMARK    2  A    between atoms: C2_4  and  C3_5 
REMARK    3  A    between atoms: C3_5  and  C4_6 
REMARK    4  A    between atoms: C4_6  and  C5_7 
REMARK    5  A    between atoms: C5_7  and  C6_8 
REMARK    6  A    between atoms: C6_8  and  C7_9 
REMARK    7  A    between atoms: C7_9  and  C8_10 
REMARK    8  A    between atoms: C8_10  and  C9_11 
REMARK    9  A    between atoms: C9_11  and  C10_12 
REMARK   10  A    between atoms: C10_12  and  C11_13 
REMARK   11  A    between atoms: C11_13  and  C12_14 
REMARK   12  A    between atoms: C12_14  and  C13_15 
ROOT
ATOM      1  C6  MYR d           3.936  -0.427   6.522  0.00  0.00     0.000 C 
ENDROOT
BRANCH   1   2
ATOM      2  C5  MYR d           3.332   0.205   7.767  0.00  0.00     0.000 C 
BRANCH   2   3
ATOM      3  C4  MYR d           2.626  -0.790   8.670  0.00  0.00     0.001 C 
BRANCH   3   4
ATOM      4  C3  MYR d           1.499  -0.163   9.472  0.00  0.00     0.010 C 
BRANCH   4   5
ATOM      5  C2  MYR d           1.289  -0.850  10.808  0.00  0.00     0.113 C 
BRANCH   5   6
ATOM      6  C1  MYR d           0.177  -0.264  11.655  0.00  0.00     0.172 C 
ATOM      7  O1  MYR d          -0.924  -0.824  11.644  0.00  0.00    -0.648 OA
ATOM      8  O2  MYR d           0.373   0.756  12.339  0.00  0.00    -0.648 OA
ENDBRANCH   5   6
ENDBRANCH   4   5
ENDBRANCH   3   4
ENDBRANCH   2   3
ENDBRANCH   1   2
BRANCH   1   9
ATOM      9  C7  MYR d           5.228   0.282   6.110  0.00  0.00     0.000 C 
BRANCH   9  10
ATOM     10  C8  MYR d           5.832  -0.359   4.852  0.00  0.00     0.000 C 
BRANCH  10  11
ATOM     11  C9  MYR d           6.750   0.598   4.124  0.00  0.00     0.000 C 
BRANCH  11  12
ATOM     12  C10 MYR d           7.377   0.029   2.876  0.00  0.00     0.000 C 
BRANCH  12  13
ATOM     13  C11 MYR d           8.833   0.427   2.701  0.00  0.00     0.000 C 
BRANCH  13  14
ATOM     14  C12 MYR d           8.998   1.225   1.406  0.00  0.00    -0.000 C 
BRANCH  14  15
ATOM     15  C13 MYR d           9.520   0.323   0.294  0.00  0.00    -0.005 C 
ATOM     16  C14 MYR d          10.876   0.789  -0.227  0.00  0.00     0.005 C 
ENDBRANCH  14  15
ENDBRANCH  13  14
ENDBRANCH  12  13
ENDBRANCH  11  12
ENDBRANCH  10  11
ENDBRANCH   9  10
ENDBRANCH   1   9
TORSDOF 12
