REMARK  1 active torsions:
REMARK  status: ('A' for Active; 'I' for Inactive)
REMARK    1  A    between atoms: CAO_5  and  CAQ_6 
ROOT
ATOM      1 CLA  MOL d          25.614  14.426   0.445  0.00  0.00    -0.084 Cl
ATOM      2  CAP MOL d          27.214  15.117   0.230  0.00  0.00     0.035 A 
ATOM      3  CAJ MOL d          27.753  15.183  -1.031  0.00  0.00     0.040 A 
ATOM      4  CAS MOL d          29.024  15.761  -1.189  0.00  0.00     0.025 A 
ATOM      5  CAO MOL d          29.591  15.844  -2.573  0.00  0.00     0.100 C 
ATOM      6  NAL MOL d          30.858  15.687  -2.793  0.00  0.00    -0.156 NA
ATOM      7  NAK MOL d          31.858  15.323  -1.794  0.00  0.00    -0.101 N 
ATOM      8  C23 MOL d          32.982  14.496  -2.169  0.00  0.00     0.200 C 
ATOM      9  CAT MOL d          31.991  16.274  -0.835  0.00  0.00     0.749 A 
ATOM     10  NAV MOL d          31.008  16.811  -0.147  0.00  0.00    -0.128 N 
ATOM     11  CAR MOL d          31.496  17.851   0.557  0.00  0.00     0.147 A 
ATOM     12  CAA MOL d          30.803  18.745   1.525  0.00  0.00     0.094 C 
ATOM     13  NAM MOL d          32.776  17.996   0.241  0.00  0.00    -0.120 NA
ATOM     14  NAN MOL d          33.125  16.975  -0.661  0.00  0.00     0.046 NA
ATOM     15  CAU MOL d          29.739  16.256  -0.079  0.00  0.00     0.071 A 
ATOM     16  CAI MOL d          29.136  16.096   1.184  0.00  0.00     0.033 A 
ATOM     17  CAH MOL d          27.878  15.563   1.351  0.00  0.00     0.026 A 
ENDROOT
BRANCH   5  18
ATOM     18  CAQ MOL d          28.692  16.306  -3.688  0.00  0.00    -0.005 A 
ATOM     19  CAG MOL d          27.529  17.056  -3.449  0.00  0.00     0.014 A 
ATOM     20  CAE MOL d          26.760  17.544  -4.509  0.00  0.00     0.001 A 
ATOM     21  CAC MOL d          27.156  17.300  -5.819  0.00  0.00     0.000 A 
ATOM     22  CAD MOL d          28.339  16.589  -6.052  0.00  0.00     0.001 A 
ATOM     23  CAF MOL d          29.088  16.089  -5.008  0.00  0.00     0.014 A 
ENDBRANCH   5  18
TORSDOF 1
