REMARK  5 active torsions:
REMARK  status: ('A' for Active; 'I' for Inactive)
REMARK    1  A    between atoms: C1_1  and  C3_3 
REMARK    2  A    between atoms: C4_9  and  C1_1 
REMARK    3  A    between atoms: C8_15  and  C4_9 
REMARK    4  A    between atoms: C10_19  and  N3_10 
REMARK    5  A    between atoms: C9_16  and  O4_18 
ROOT
ATOM      1  N1  0J2 d         -12.703  24.397   7.246  0.00  0.00    -0.150 NA
ATOM      2  N2  0J2 d         -13.551  23.833   6.337  0.00  0.00    -0.128 NA
ATOM      3  O3  0J2 d         -14.281  27.913   3.758  0.00  0.00    -0.171 OA
ATOM      4  C5  0J2 d         -14.534  26.580   3.990  0.00  0.00     0.210 A 
ATOM      5  C6  0J2 d         -13.906  25.885   5.089  0.00  0.00     0.104 A 
ATOM      6  N4  0J2 d         -15.387  25.880   3.128  0.00  0.00    -0.165 N 
ATOM      7  C7  0J2 d         -14.164  24.558   5.258  0.00  0.00     0.207 A 
ATOM      8  C8  0J2 d         -12.406  25.673   7.169  0.00  0.00     0.095 A 
ATOM      9  C9  0J2 d         -12.988  26.503   6.078  0.00  0.00     0.111 A 
ATOM     10  N5  0J2 d         -14.989  23.840   4.435  0.00  0.00    -0.042 NA
ATOM     11  C10 0J2 d         -15.618  24.458   3.349  0.00  0.00     0.702 A 
ATOM     12  H9  0J2 d         -15.834  26.352   2.368  0.00  0.00     0.186 HD
ENDROOT
BRANCH   8  13
ATOM     13  C4  0J2 d         -11.440  26.311   8.118  0.00  0.00     0.048 C 
ATOM     14  C2  0J2 d         -10.049  25.923   7.741  0.00  0.00     0.017 C 
BRANCH  13  15
ATOM     15  C1  0J2 d         -11.700  25.900   9.531  0.00  0.00     0.123 C 
BRANCH  15  16
ATOM     16  C3  0J2 d         -13.073  26.324   9.918  0.00  0.00     0.173 C 
ATOM     17  O1  0J2 d         -13.470  27.502   9.670  0.00  0.00    -0.648 OA
ATOM     18  O2  0J2 d         -13.878  25.439  10.302  0.00  0.00    -0.648 OA
ENDBRANCH  15  16
ENDBRANCH  13  15
ENDBRANCH   8  13
BRANCH   9  19
ATOM     19  O4  0J2 d         -12.697  27.847   6.037  0.00  0.00    -0.357 OA
ATOM     20  H10 0J2 d         -13.135  28.242   5.292  0.00  0.00     0.217 HD
ENDBRANCH   9  19
BRANCH  11  21
ATOM     21  N3  0J2 d         -16.457  23.702   2.490  0.00  0.00    -0.233 N 
ATOM     22  H7  0J2 d         -16.920  24.157   1.690  0.00  0.00     0.174 HD
ATOM     23  H8  0J2 d         -16.603  22.698   2.666  0.00  0.00     0.174 HD
ENDBRANCH  11  21
TORSDOF 5
