REMARK  7 active torsions:
REMARK  status: ('A' for Active; 'I' for Inactive)
REMARK    1  A    between atoms: C14_2  and  C15_15 
REMARK    2  A    between atoms: C18_18  and  N19_19 
REMARK    3  A    between atoms: C23_21  and  S24_22 
REMARK    4  A    between atoms: S24_22  and  C25_23 
REMARK    5  A    between atoms: C25_23  and  C26_24 
REMARK    6  A    between atoms: C26_24  and  C27_25 
REMARK    7  A    between atoms: C27_25  and  C28_26 
REMARK       I    between atoms: C28_26  and  N30_28 
ROOT
ATOM      1  C15 WHA d         -27.597  21.913 -18.915  0.00  0.00     0.184 A 
ATOM      2  N16 WHA d         -28.215  20.717 -19.007  0.00  0.00    -0.201 NA
ATOM      3  N17 WHA d         -27.844  22.713 -17.847  0.00  0.00    -0.042 NA
ATOM      4  C18 WHA d         -28.685  22.322 -16.896  0.00  0.00     0.724 A 
ATOM      5  N22 WHA d         -29.272  21.119 -16.952  0.00  0.00    -0.036 NA
ATOM      6  C23 WHA d         -29.071  20.347 -18.036  0.00  0.00     0.208 A 
ENDROOT
BRANCH   1   7
ATOM      7  C14 WHA d         -26.714  22.311 -19.967  0.00  0.00     0.045 A 
ATOM      8  C8  WHA d         -27.130  22.402 -21.321  0.00  0.00    -0.009 A 
ATOM      9  C7  WHA d         -28.467  22.202 -21.723  0.00  0.00     0.013 A 
ATOM     10  C9  WHA d         -26.175  22.769 -22.316  0.00  0.00    -0.008 A 
ATOM     11  C6  WHA d         -28.856  22.324 -23.065  0.00  0.00     0.002 A 
ATOM     12  C5  WHA d         -27.893  22.637 -24.038  0.00  0.00     0.010 A 
ATOM     13  C4  WHA d         -26.556  22.870 -23.675  0.00  0.00    -0.023 A 
ATOM     14  C3  WHA d         -25.572  23.295 -24.642  0.00  0.00     0.207 C 
ATOM     15  O2  WHA d         -24.561  24.149 -24.112  0.00  0.00    -0.382 OA
ATOM     16  C1  WHA d         -23.916  23.462 -22.988  0.00  0.00     0.207 C 
ATOM     17  C10 WHA d         -24.848  23.095 -21.958  0.00  0.00    -0.021 A 
ATOM     18  C11 WHA d         -24.455  23.027 -20.633  0.00  0.00     0.035 A 
ATOM     19  C12 WHA d         -25.367  22.601 -19.661  0.00  0.00     0.049 A 
ATOM     20 CL1  WHA d         -24.754  22.413 -18.040  0.00  0.00    -0.083 Cl
ENDBRANCH   1   7
BRANCH   6  21
ATOM     21  S24 WHA d         -29.856  18.818 -18.059  0.00  0.00    -0.089 SA
BRANCH  21  22
ATOM     22  C25 WHA d         -29.637  18.300 -19.808  0.00  0.00     0.083 C 
BRANCH  22  23
ATOM     23  C26 WHA d         -30.573  19.036 -20.762  0.00  0.00     0.020 C 
BRANCH  23  24
ATOM     24  C27 WHA d         -32.029  18.588 -20.574  0.00  0.00     0.103 C 
BRANCH  24  25
ATOM     25  C28 WHA d         -32.983  19.317 -21.478  0.00  0.00     0.215 C 
ATOM     26  O29 WHA d         -33.508  18.734 -22.432  0.00  0.00    -0.274 OA
ATOM     27  N30 WHA d         -33.215  20.573 -21.137  0.00  0.00    -0.370 N 
ATOM     28  H   WHA d         -33.838  21.133 -21.684  0.00  0.00     0.159 HD
ATOM     29  H   WHA d         -32.768  20.963 -20.332  0.00  0.00     0.159 HD
ENDBRANCH  24  25
ENDBRANCH  23  24
ENDBRANCH  22  23
ENDBRANCH  21  22
ENDBRANCH   6  21
BRANCH   4  30
ATOM     30  N19 WHA d         -28.851  23.100 -15.857  0.00  0.00    -0.231 N 
ATOM     31  H   WHA d         -28.394  24.023 -15.826  0.00  0.00     0.174 HD
ATOM     32  H   WHA d         -29.439  22.790 -15.070  0.00  0.00     0.174 HD
ENDBRANCH   4  30
TORSDOF 7
