REMARK  6 active torsions:
REMARK  status: ('A' for Active; 'I' for Inactive)
REMARK    1  A    between atoms: C15_12  and  O21_13 
REMARK    2  A    between atoms: C1_23  and  C5_24 
REMARK    3  A    between atoms: C1_23  and  O4_28 
REMARK    4  A    between atoms: C5_24  and  C12_26 
REMARK    5  A    between atoms: O4_28  and  C11_29 
REMARK    6  A    between atoms: C11_29  and  C16_31 
ROOT
ATOM      1  O35 MOF d          -5.129 -11.227  30.409  0.00  0.00    -0.293 OA
ATOM      2  C34 MOF d          -4.681 -10.347  29.700  0.00  0.00     0.149 C 
ATOM      3  C33 MOF d          -5.614  -9.325  29.161  0.00  0.00     0.084 C 
ATOM      4  C32 MOF d          -3.283 -10.392  29.226  0.00  0.00     0.053 C 
ATOM      5  C29 MOF d          -2.747  -9.511  28.295  0.00  0.00    -0.066 C 
ATOM      6  C26 MOF d          -1.269  -9.632  27.869  0.00  0.00     0.036 C 
ATOM      7  C24 MOF d          -3.570  -8.337  27.782  0.00  0.00     0.004 C 
ATOM      8  C30 MOF d          -5.032  -8.343  28.208  0.00  0.00     0.023 C 
ATOM      9  C31 MOF d          -2.975  -7.052  28.398  0.00  0.00     0.022 C 
ATOM     10  C19 MOF d          -3.452  -8.404  26.229  0.00  0.00     0.078 C 
ATOM     11 CL25 MOF d          -4.159 -10.012  25.664  0.00  0.00    -0.115 Cl
ATOM     12  C15 MOF d          -4.333  -7.381  25.468  0.00  0.00     0.144 C 
ATOM     13  C14 MOF d          -1.972  -8.370  25.753  0.00  0.00     0.018 C 
ATOM     14  C20 MOF d          -1.247  -9.583  26.319  0.00  0.00     0.011 C 
ATOM     15  C6  MOF d          -1.926  -8.310  24.233  0.00  0.00     0.004 C 
ATOM     16  C9  MOF d          -0.610  -8.417  23.400  0.00  0.00     0.013 C 
ATOM     17  C3  MOF d          -1.036  -8.081  22.022  0.00  0.00     0.026 C 
ATOM     18  C10 MOF d          -0.363  -9.041  21.037  0.00  0.00     0.013 C 
ATOM     19  C2  MOF d          -2.854  -7.333  23.493  0.00  0.00     0.002 C 
ATOM     20  C7  MOF d          -4.328  -7.486  23.995  0.00  0.00     0.046 C 
ATOM     21  C8  MOF d          -2.376  -5.892  23.848  0.00  0.00     0.019 C 
ATOM     22  C1  MOF d          -2.509  -7.658  22.024  0.00  0.00     0.143 C 
ENDROOT
BRANCH  22  23
ATOM     23  C5  MOF d          -2.993  -6.650  21.102  0.00  0.00     0.176 C 
ATOM     24  O13 MOF d          -2.138  -6.003  20.466  0.00  0.00    -0.293 OA
BRANCH  23  25
ATOM     25  C12 MOF d          -4.414  -6.356  21.048  0.00  0.00     0.196 C 
ATOM     26 CL18 MOF d          -4.763  -5.458  19.610  0.00  0.00    -0.122 Cl
ENDBRANCH  23  25
ENDBRANCH  22  23
BRANCH  22  27
ATOM     27  O4  MOF d          -3.247  -8.929  21.858  0.00  0.00    -0.295 OA
BRANCH  27  28
ATOM     28  C11 MOF d          -3.464  -9.339  20.561  0.00  0.00     0.318 C 
ATOM     29  O17 MOF d          -3.235  -8.695  19.544  0.00  0.00    -0.257 OA
BRANCH  28  30
ATOM     30  C16 MOF d          -3.860 -10.748  20.612  0.00  0.00     0.149 A 
ATOM     31  C22 MOF d          -3.955 -11.415  21.738  0.00  0.00     0.045 A 
ATOM     32  C27 MOF d          -4.342 -12.732  21.417  0.00  0.00     0.027 A 
ATOM     33  C28 MOF d          -4.407 -12.795  20.021  0.00  0.00     0.143 A 
ATOM     34  O23 MOF d          -4.113 -11.551  19.479  0.00  0.00    -0.317 OA
ENDBRANCH  28  30
ENDBRANCH  27  28
ENDBRANCH  22  27
BRANCH  12  35
ATOM     35  O21 MOF d          -4.313  -6.040  25.870  0.00  0.00    -0.394 OA
ATOM     36  H12 MOF d          -4.897  -5.536  25.316  0.00  0.00     0.210 HD
ENDBRANCH  12  35
TORSDOF 6
