REMARK  6 active torsions:
REMARK  status: ('A' for Active; 'I' for Inactive)
REMARK    1  A    between atoms: CAU_11  and  CAL_12 
REMARK    2  A    between atoms: CAL_12  and  CAX_13 
REMARK    3  A    between atoms: CAY_14  and  OAF_15 
REMARK    4  A    between atoms: CAY_14  and  CAN_16 
REMARK    5  A    between atoms: CAW_21  and  OAE_22 
REMARK    6  A    between atoms: CAV_23  and  OAD_24 
ROOT
ATOM      1  CAX MOL d          24.180  47.940 -13.124  0.00  0.00     0.108 C 
ATOM      2  CAY MOL d          24.123  48.159 -11.604  0.00  0.00     0.158 C 
ATOM      3  CAO MOL d          22.863  47.347 -13.521  0.00  0.00     0.165 C 
ATOM      4  OAB MOL d          22.915  46.394 -14.289  0.00  0.00    -0.294 OA
ATOM      5  CAW MOL d          21.528  47.944 -13.000  0.00  0.00     0.216 C 
ATOM      6  CAV MOL d          21.560  48.041 -11.475  0.00  0.00     0.157 C 
ATOM      7  CAM MOL d          22.826  48.858 -11.116  0.00  0.00     0.084 C 
ENDROOT
BRANCH   1   8
ATOM      8  CAL MOL d          24.322  49.218 -13.943  0.00  0.00     0.061 C 
BRANCH   8   9
ATOM      9  CAU MOL d          24.524  48.991 -15.463  0.00  0.00     0.026 A 
ATOM     10  CAT MOL d          25.803  48.867 -16.005  0.00  0.00     0.167 A 
ATOM     11  FAK MOL d          26.888  48.907 -15.210  0.00  0.00    -0.202 F 
ATOM     12  CAR MOL d          25.991  48.698 -17.364  0.00  0.00     0.197 A 
ATOM     13  FAI MOL d          27.212  48.584 -17.874  0.00  0.00    -0.199 F 
ATOM     14  CAP MOL d          24.928  48.645 -18.227  0.00  0.00     0.199 A 
ATOM     15  FAG MOL d          25.112  48.468 -19.532  0.00  0.00    -0.199 F 
ATOM     16  CAQ MOL d          23.664  48.741 -17.726  0.00  0.00     0.197 A 
ATOM     17  FAH MOL d          22.645  48.683 -18.581  0.00  0.00    -0.199 F 
ATOM     18  CAS MOL d          23.467  48.923 -16.381  0.00  0.00     0.167 A 
ATOM     19  FAJ MOL d          22.197  49.015 -15.989  0.00  0.00    -0.202 F 
ENDBRANCH   8   9
ENDBRANCH   1   8
BRANCH   2  20
ATOM     20  OAF MOL d          24.226  46.921 -10.917  0.00  0.00    -0.378 OA
ATOM     21  H4  MOL d          25.051  46.505 -11.138  0.00  0.00     0.211 HD
ENDBRANCH   2  20
BRANCH   2  22
ATOM     22  CAN MOL d          25.351  48.974 -11.269  0.00  0.00     0.210 C 
ATOM     23  OAC MOL d          26.423  48.366 -11.294  0.00  0.00    -0.646 OA
ATOM     24  OAA MOL d          25.192  50.164 -10.983  0.00  0.00    -0.646 OA
ENDBRANCH   2  22
BRANCH   5  25
ATOM     25  OAE MOL d          20.405  47.226 -13.512  0.00  0.00    -0.385 OA
ATOM     26  H6  MOL d          19.604  47.612 -13.177  0.00  0.00     0.210 HD
ENDBRANCH   5  25
BRANCH   6  27
ATOM     27  OAD MOL d          20.430  48.793 -11.082  0.00  0.00    -0.392 OA
ATOM     28  H8  MOL d          19.641  48.352 -11.373  0.00  0.00     0.210 HD
ENDBRANCH   6  27
TORSDOF 6
