REMARK  10 active torsions:
REMARK  status: ('A' for Active; 'I' for Inactive)
REMARK    1  A    between atoms: N3B_8  and  PG_1 
REMARK    2  A    between atoms: PB_5  and  N3B_8 
REMARK    3  A    between atoms: O3A_12  and  PB_5 
REMARK    4  A    between atoms: PA_9  and  O3A_12 
REMARK    5  A    between atoms: PA_9  and  O5'_13 
REMARK    6  A    between atoms: O5'_13  and  C5'_14 
REMARK    7  A    between atoms: C5'_14  and  C4'_15 
REMARK    8  A    between atoms: C3'_17  and  O3'_18 
REMARK    9  A    between atoms: C2'_19  and  O2'_20 
REMARK   10  A    between atoms: C1'_21  and  N9_22 
ROOT
ATOM      1  C4' ANP d         -23.935   0.641 -17.980  0.00  0.00     0.180 C 
ATOM      2  O4' ANP d         -23.255   1.014 -16.787  0.00  0.00    -0.353 OA
ATOM      3  C3' ANP d         -24.754   1.863 -18.372  0.00  0.00     0.182 C 
ATOM      4  C2' ANP d         -25.056   2.533 -17.043  0.00  0.00     0.198 C 
ATOM      5  C1' ANP d         -23.876   2.135 -16.167  0.00  0.00     0.262 C 
ENDROOT
BRANCH   1   6
ATOM      6  C5' ANP d         -22.921   0.221 -19.037  0.00  0.00     0.216 C 
BRANCH   6   7
ATOM      7  O5' ANP d         -22.036   1.298 -19.295  0.00  0.00    -0.287 OA
BRANCH   7   8
ATOM      8  PA  ANP d         -21.690   1.730 -20.800  0.00  0.00     0.417 P 
ATOM      9  O1A ANP d         -22.968   1.925 -21.576  0.00  0.00    -0.624 OA
ATOM     10  O2A ANP d         -20.655   2.825 -20.730  0.00  0.00    -0.624 OA
BRANCH   8  11
ATOM     11  O3A ANP d         -20.982   0.368 -21.289  0.00  0.00    -0.186 OA
BRANCH  11  12
ATOM     12  PB  ANP d         -20.366   0.199 -22.766  0.00  0.00     0.379 P 
ATOM     13  O1B ANP d         -20.066  -1.233 -22.966  0.00  0.00    -0.629 OA
ATOM     14  O2B ANP d         -18.979   1.011 -22.829  0.00  0.00    -0.629 OA
BRANCH  12  15
ATOM     15  N3B ANP d         -21.558   0.874 -23.823  0.00  0.00    -0.218 N 
ATOM     16  H1  ANP d         -21.970   1.748 -23.567  0.00  0.00     0.179 HD
BRANCH  15  17
ATOM     17  PG  ANP d         -22.081   0.134 -25.291  0.00  0.00     0.381 P 
ATOM     18  O1G ANP d         -22.975  -1.174 -25.072  0.00  0.00    -0.622 OA
ATOM     19  O2G ANP d         -22.892   1.288 -26.073  0.00  0.00    -0.622 OA
ATOM     20  O3G ANP d         -20.856  -0.277 -26.033  0.00  0.00    -0.622 OA
ENDBRANCH  15  17
ENDBRANCH  12  15
ENDBRANCH  11  12
ENDBRANCH   8  11
ENDBRANCH   7   8
ENDBRANCH   6   7
ENDBRANCH   1   6
BRANCH   3  21
ATOM     21  O3' ANP d         -25.910   1.502 -19.141  0.00  0.00    -0.390 OA
ATOM     22  H6  ANP d         -26.462   0.923 -18.628  0.00  0.00     0.210 HD
ENDBRANCH   3  21
BRANCH   5  23
ATOM     23  N9  ANP d         -22.919   3.261 -16.110  0.00  0.00    -0.294 N 
ATOM     24  C8  ANP d         -21.972   3.566 -17.018  0.00  0.00     0.214 A 
ATOM     25  N7  ANP d         -21.285   4.659 -16.634  0.00  0.00    -0.236 NA
ATOM     26  C5  ANP d         -21.795   5.071 -15.464  0.00  0.00     0.149 A 
ATOM     27  C6  ANP d         -21.529   6.161 -14.503  0.00  0.00     0.155 A 
ATOM     28  C4  ANP d         -22.876   4.143 -15.128  0.00  0.00     0.167 A 
ATOM     29  N6  ANP d         -20.563   7.079 -14.718  0.00  0.00    -0.382 N 
ATOM     30  N1  ANP d         -22.298   6.214 -13.393  0.00  0.00    -0.222 NA
ATOM     31  H11 ANP d         -20.401   7.827 -14.029  0.00  0.00     0.157 HD
ATOM     32  H12 ANP d         -19.988   7.031 -15.571  0.00  0.00     0.157 HD
ATOM     33  C2  ANP d         -23.283   5.324 -13.160  0.00  0.00     0.237 A 
ATOM     34  N3  ANP d         -23.576   4.304 -13.985  0.00  0.00    -0.222 NA
ENDBRANCH   5  23
BRANCH   4  35
ATOM     35  O2' ANP d         -26.232   2.019 -16.428  0.00  0.00    -0.388 OA
ATOM     36  H8  ANP d         -26.976   2.159 -17.002  0.00  0.00     0.210 HD
ENDBRANCH   4  35
TORSDOF 10
