REMARK  3 active torsions:
REMARK  status: ('A' for Active; 'I' for Inactive)
REMARK    1  A    between atoms: P_1  and  O1P_2 
REMARK    2  A    between atoms: O1P_2  and  C2_6 
REMARK    3  A    between atoms: C2_6  and  C1_7 
ROOT
ATOM      1  O1P PGA d           2.019 -18.268 -23.914  0.00  0.00    -0.272 OA
ENDROOT
BRANCH   1   2
ATOM      2  P   PGA d           1.403 -19.738 -23.640  0.00  0.00     0.422 P 
ATOM      3  O2P PGA d           2.362 -20.467 -22.731  0.00  0.00    -0.617 OA
ATOM      4  O3P PGA d           0.045 -19.636 -22.975  0.00  0.00    -0.617 OA
ATOM      5  O4P PGA d           1.247 -20.490 -24.936  0.00  0.00    -0.617 OA
ENDBRANCH   1   2
BRANCH   1   6
ATOM      6  C2  PGA d           3.387 -17.987 -23.665  0.00  0.00     0.295 C 
BRANCH   6   7
ATOM      7  C1  PGA d           3.719 -16.596 -24.164  0.00  0.00     0.198 C 
ATOM      8  O1  PGA d           4.257 -15.728 -23.410  0.00  0.00    -0.646 OA
ATOM      9  O2  PGA d           3.457 -16.321 -25.364  0.00  0.00    -0.646 OA
ENDBRANCH   6   7
ENDBRANCH   1   6
TORSDOF 3
