REMARK  14 active torsions:
REMARK  status: ('A' for Active; 'I' for Inactive)
REMARK    1  A    between atoms: C2_2  and  N1_1 
REMARK    2  A    between atoms: S8_8  and  C5_5 
REMARK    3  A    between atoms: N11_11  and  S8_8 
REMARK    4  A    between atoms: N11_11  and  C12_12 
REMARK    5  A    between atoms: C16_16  and  N11_11 
REMARK    6  A    between atoms: C12_12  and  C13_13 
REMARK    7  A    between atoms: C17_17  and  C16_16 
REMARK    8  A    between atoms: C17_17  and  O18_18 
REMARK    9  A    between atoms: C19_19  and  C17_17 
REMARK   10  A    between atoms: C19_19  and  N20_20 
REMARK   11  A    between atoms: C32_32  and  C19_19 
REMARK       I    between atoms: N20_20  and  C21_21 
REMARK   12  A    between atoms: C21_21  and  O23_23 
REMARK   13  A    between atoms: O23_23  and  C24_24 
REMARK   14  A    between atoms: C38_38  and  C32_32 
ROOT
ATOM      1  C17 MOL d         -10.137  17.420  -0.101  0.00  0.00     0.155 C 
ENDROOT
BRANCH   1   2
ATOM      2  C16 MOL d          -9.690  17.338  -1.552  0.00  0.00     0.141 C 
BRANCH   2   3
ATOM      3  N11 MOL d          -8.439  16.567  -1.571  0.00  0.00    -0.204 NA
BRANCH   3   4
ATOM      4  S8  MOL d          -8.611  15.271  -2.510  0.00  0.00     0.243 S 
ATOM      5  O9  MOL d          -9.904  14.712  -2.232  0.00  0.00    -0.206 OA
ATOM      6  O10 MOL d          -7.539  14.382  -2.181  0.00  0.00    -0.206 OA
BRANCH   4   7
ATOM      7  C5  MOL d          -8.511  15.583  -4.074  0.00  0.00     0.074 A 
ATOM      8  C4  MOL d          -7.261  15.548  -4.677  0.00  0.00     0.027 A 
ATOM      9  C3  MOL d          -7.140  15.818  -6.034  0.00  0.00     0.030 A 
ATOM     10  C2  MOL d          -8.268  16.101  -6.788  0.00  0.00     0.025 A 
ATOM     11  C7  MOL d          -9.525  16.125  -6.191  0.00  0.00     0.030 A 
ATOM     12  C6  MOL d          -9.650  15.858  -4.830  0.00  0.00     0.027 A 
BRANCH  10  13
ATOM     13  N1  MOL d          -8.129  16.351  -8.113  0.00  0.00    -0.399 N 
ATOM     14  H1  MOL d          -7.194  16.331  -8.546  0.00  0.00     0.156 HD
ATOM     15  H2  MOL d          -8.958  16.561  -8.687  0.00  0.00     0.156 HD
ENDBRANCH  10  13
ENDBRANCH   4   7
ENDBRANCH   3   4
BRANCH   3  16
ATOM     16  C12 MOL d          -7.240  17.372  -1.869  0.00  0.00     0.111 C 
BRANCH  16  17
ATOM     17  C13 MOL d          -6.733  18.057  -0.597  0.00  0.00    -0.009 C 
ATOM     18  C14 MOL d          -6.074  17.080   0.371  0.00  0.00     0.011 C 
ATOM     19  C15 MOL d          -5.730  19.168  -0.905  0.00  0.00     0.011 C 
ENDBRANCH  16  17
ENDBRANCH   3  16
ENDBRANCH   2   3
ENDBRANCH   1   2
BRANCH   1  20
ATOM     20  O18 MOL d         -11.211  18.357   0.017  0.00  0.00    -0.392 OA
ATOM     21  H19 MOL d         -11.488  18.406   0.924  0.00  0.00     0.210 HD
ENDBRANCH   1  20
BRANCH   1  22
ATOM     22  C19 MOL d         -10.546  16.049   0.436  0.00  0.00     0.120 C 
BRANCH  22  23
ATOM     23  N20 MOL d         -10.674  16.160   1.875  0.00  0.00    -0.329 N 
ATOM     24  C21 MOL d          -9.940  15.496   2.753  0.00  0.00     0.361 C 
ATOM     25  O22 MOL d          -9.053  14.704   2.469  0.00  0.00    -0.238 OA
ATOM     26  H21 MOL d         -11.369  16.785   2.231  0.00  0.00     0.165 HD
BRANCH  24  27
ATOM     27  O23 MOL d         -10.323  15.745   4.133  0.00  0.00    -0.296 OA
BRANCH  27  28
ATOM     28  C24 MOL d          -9.638  14.989   5.121  0.00  0.00     0.166 C 
ATOM     29  C25 MOL d          -9.242  15.987   6.189  0.00  0.00     0.204 C 
ATOM     30  O26 MOL d         -10.479  16.238   6.846  0.00  0.00    -0.358 OA
ATOM     31  C27 MOL d         -11.296  15.053   6.802  0.00  0.00     0.266 C 
ATOM     32  O28 MOL d         -12.624  15.276   6.291  0.00  0.00    -0.361 OA
ATOM     33  C31 MOL d         -10.624  14.093   5.843  0.00  0.00     0.075 C 
ATOM     34  C29 MOL d         -12.925  14.430   5.186  0.00  0.00     0.171 C 
ATOM     35  C30 MOL d         -11.737  13.498   5.000  0.00  0.00     0.038 C 
ENDBRANCH  27  28
ENDBRANCH  24  27
ENDBRANCH  22  23
BRANCH  22  36
ATOM     36  C32 MOL d         -11.859  15.547  -0.165  0.00  0.00     0.066 C 
BRANCH  36  37
ATOM     37  C38 MOL d         -12.279  14.233   0.461  0.00  0.00    -0.056 A 
ATOM     38  C33 MOL d         -13.416  14.178   1.266  0.00  0.00     0.007 A 
ATOM     39  C34 MOL d         -13.818  12.981   1.852  0.00  0.00     0.001 A 
ATOM     40  C35 MOL d         -13.083  11.822   1.635  0.00  0.00     0.000 A 
ATOM     41  C36 MOL d         -11.953  11.874   0.818  0.00  0.00     0.001 A 
ATOM     42  C37 MOL d         -11.553  13.070   0.232  0.00  0.00     0.007 A 
ENDBRANCH  36  37
ENDBRANCH  22  36
ENDBRANCH   1  22
TORSDOF 14
