REMARK  14 active torsions:
REMARK  status: ('A' for Active; 'I' for Inactive)
REMARK    1  A    between atoms: C_1  and  OA_3 
REMARK       I    between atoms: N_11  and  C_1 
REMARK    2  A    between atoms: OA_3  and  CB_4 
REMARK    3  A    between atoms: CB_4  and  CG_5 
REMARK    4  A    between atoms: CA_12  and  N_11 
REMARK    5  A    between atoms: P_13  and  CA_12 
REMARK    6  A    between atoms: CA_12  and  CB_16 
REMARK    7  A    between atoms: P_13  and  N_23 
REMARK    8  A    between atoms: CB_16  and  CG_17 
REMARK    9  A    between atoms: N_23  and  CA_24 
REMARK   10  A    between atoms: CA_24  and  CB_27 
REMARK   11  A    between atoms: CA_24  and  C_25 
REMARK       I    between atoms: C_25  and  N_31 
REMARK   12  A    between atoms: CB_27  and  CG_28 
REMARK   13  A    between atoms: N_31  and  CA_32 
REMARK   14  A    between atoms: CA_32  and  C_33 
ROOT
ATOM      1  CA  MOL d          50.665  18.643  -6.839  0.00  0.00     0.204 C 
ENDROOT
BRANCH   1   2
ATOM      2  N   MOL d          50.781  19.136  -8.240  0.00  0.00    -0.321 N 
ATOM      3  C   MOL d          50.429  20.387  -8.574  0.00  0.00     0.361 C 
ATOM      4  O   MOL d          49.898  21.252  -7.797  0.00  0.00    -0.238 OA
ATOM      5  H8  MOL d          51.129  18.521  -8.947  0.00  0.00     0.165 HD
BRANCH   3   6
ATOM      6  OA  MOL d          50.795  20.582  -9.889  0.00  0.00    -0.299 OA
BRANCH   6   7
ATOM      7  CB  MOL d          51.006  21.906 -10.406  0.00  0.00     0.219 C 
BRANCH   7   8
ATOM      8  CG  MOL d          50.509  21.767 -11.801  0.00  0.00    -0.034 A 
ATOM      9  CD1 MOL d          50.418  20.618 -12.594  0.00  0.00     0.009 A 
ATOM     10  CE1 MOL d          49.873  20.607 -13.905  0.00  0.00     0.001 A 
ATOM     11  CZ  MOL d          49.363  21.692 -14.478  0.00  0.00     0.000 A 
ATOM     12  CE2 MOL d          49.501  22.746 -13.667  0.00  0.00     0.001 A 
ATOM     13  CD2 MOL d          50.017  22.881 -12.362  0.00  0.00     0.009 A 
ENDBRANCH   7   8
ENDBRANCH   6   7
ENDBRANCH   3   6
ENDBRANCH   1   2
BRANCH   1  14
ATOM     14  P   MOL d          52.032  19.153  -6.064  0.00  0.00     0.229 P 
ATOM     15  OP1 MOL d          53.333  18.540  -6.709  0.00  0.00    -0.650 OA
ATOM     16  OP2 MOL d          52.108  20.732  -5.940  0.00  0.00    -0.650 OA
BRANCH  14  17
ATOM     17  N   MOL d          51.707  18.503  -4.310  0.00  0.00    -0.334 N 
ATOM     18  H17 MOL d          50.788  18.292  -3.978  0.00  0.00     0.164 HD
BRANCH  17  19
ATOM     19  CA  MOL d          52.905  18.332  -3.476  0.00  0.00     0.178 C 
BRANCH  19  20
ATOM     20  CB  MOL d          52.606  18.471  -1.978  0.00  0.00     0.038 C 
BRANCH  20  21
ATOM     21  CG  MOL d          53.837  18.375  -1.107  0.00  0.00    -0.020 C 
ATOM     22  CD1 MOL d          54.692  19.648  -1.245  0.00  0.00     0.009 C 
ATOM     23  CD2 MOL d          53.186  18.197   0.248  0.00  0.00     0.009 C 
ENDBRANCH  20  21
ENDBRANCH  19  20
BRANCH  19  24
ATOM     24  C   MOL d          53.636  16.990  -3.643  0.00  0.00     0.241 C 
ATOM     25  O   MOL d          54.870  16.919  -3.605  0.00  0.00    -0.271 OA
ATOM     26  N   MOL d          52.865  15.926  -3.751  0.00  0.00    -0.345 N 
ATOM     27  H28 MOL d          51.876  16.074  -3.758  0.00  0.00     0.163 HD
BRANCH  26  28
ATOM     28  CA  MOL d          53.343  14.533  -3.863  0.00  0.00     0.181 C 
ATOM     29  CB  MOL d          53.015  13.809  -2.570  0.00  0.00     0.043 C 
BRANCH  28  30
ATOM     30  C   MOL d          52.683  13.822  -5.071  0.00  0.00     0.196 C 
ATOM     31  O   MOL d          51.674  14.310  -5.621  0.00  0.00    -0.646 OA
ATOM     32  OXT MOL d          53.134  12.778  -5.668  0.00  0.00    -0.646 OA
ENDBRANCH  28  30
ENDBRANCH  26  28
ENDBRANCH  19  24
ENDBRANCH  17  19
ENDBRANCH  14  17
ENDBRANCH   1  14
BRANCH   1  33
ATOM     33  CB  MOL d          50.669  17.157  -6.973  0.00  0.00     0.076 C 
BRANCH  33  34
ATOM     34  CG  MOL d          49.373  16.797  -7.670  0.00  0.00    -0.056 A 
ATOM     35  CD1 MOL d          48.217  16.788  -6.879  0.00  0.00     0.007 A 
ATOM     36  CE1 MOL d          46.972  16.487  -7.446  0.00  0.00     0.001 A 
ATOM     37  CZ  MOL d          46.915  16.208  -8.806  0.00  0.00     0.000 A 
ATOM     38  CE2 MOL d          48.093  16.246  -9.607  0.00  0.00     0.001 A 
ATOM     39  CD2 MOL d          49.328  16.560  -9.021  0.00  0.00     0.007 A 
ENDBRANCH  33  34
ENDBRANCH   1  33
TORSDOF 14
