REMARK  5 active torsions:
REMARK  status: ('A' for Active; 'I' for Inactive)
REMARK    1  A    between atoms: CA_2  and  N_1 
REMARK    2  A    between atoms: CA_2  and  CB_5 
REMARK    3  A    between atoms: CA_2  and  C_3 
REMARK    4  A    between atoms: CB_5  and  CG_6 
REMARK    5  A    between atoms: CG_6  and  CD_7 
ROOT
ATOM      1  CA  GLU d          87.744  -7.276 -11.334  0.00  0.00     0.283 C 
ENDROOT
BRANCH   1   2
ATOM      2  N   GLU d          88.261  -7.660  -9.990  0.00  0.00    -0.065 N 
ATOM      3  H1  GLU d          87.781  -8.486  -9.669  0.00  0.00     0.275 HD
ATOM      4  H2  GLU d          88.103  -6.905  -9.341  0.00  0.00     0.275 HD
ATOM      5  H3  GLU d          89.249  -7.849 -10.052  0.00  0.00     0.275 HD
ENDBRANCH   1   2
BRANCH   1   6
ATOM      6  CB  GLU d          86.234  -7.012 -11.267  0.00  0.00     0.054 C 
BRANCH   6   7
ATOM      7  CG  GLU d          85.437  -8.194 -10.746  0.00  0.00     0.116 C 
BRANCH   7   8
ATOM      8  CD  GLU d          83.937  -7.944 -10.707  0.00  0.00     0.172 C 
ATOM      9  OE2 GLU d          83.260  -8.567  -9.862  0.00  0.00    -0.648 OA
ATOM     10  OE1 GLU d          83.425  -7.140 -11.520  0.00  0.00    -0.648 OA
ENDBRANCH   7   8
ENDBRANCH   6   7
ENDBRANCH   1   6
BRANCH   1  11
ATOM     11  C   GLU d          88.474  -6.030 -11.811  0.00  0.00     0.204 C 
ATOM     12  O   GLU d          88.969  -5.292 -10.943  0.00  0.00    -0.646 OA
ATOM     13  OXT GLU d          88.543  -5.801 -13.033  0.00  0.00    -0.646 OA
ENDBRANCH   1  11
TORSDOF 5
