REMARK  2 active torsions:
REMARK  status: ('A' for Active; 'I' for Inactive)
REMARK    1  A    between atoms: C2_4  and  C6_10 
REMARK    2  A    between atoms: N3_13  and  C1_5 
ROOT
ATOM      1  C10 MOL d         -16.845 -11.419  72.396  0.00  0.00     0.020 A 
ATOM      2  C5  MOL d         -17.145 -12.357  71.434  0.00  0.00     0.021 A 
ATOM      3  C9  MOL d         -16.758 -10.109  71.975  0.00  0.00     0.118 A 
ATOM      4  C2  MOL d         -17.350 -11.953  70.129  0.00  0.00     0.088 A 
ATOM      5  C1  MOL d         -17.265 -10.605  69.783  0.00  0.00     0.120 A 
ATOM      6  N4  MOL d         -16.963  -9.690  70.715  0.00  0.00    -0.248 NA
ENDROOT
BRANCH   5   7
ATOM      7  N3  MOL d         -17.491 -10.207  68.417  0.00  0.00    -0.264 NA
ATOM      8  C7  MOL d         -18.885 -10.252  67.987  0.00  0.00     0.124 C 
ATOM      9  C14 MOL d         -18.825 -10.334  66.466  0.00  0.00     0.247 C 
ATOM     10  N16 MOL d         -18.096  -9.188  65.851  0.00  0.00    -0.073 N 
ATOM     11  C15 MOL d         -16.801  -8.901  66.480  0.00  0.00     0.247 C 
ATOM     12  H12 MOL d         -18.675  -8.366  65.927  0.00  0.00     0.277 HD
ATOM     13  H13 MOL d         -17.937  -9.398  64.878  0.00  0.00     0.277 HD
ATOM     14  C8  MOL d         -16.868  -8.955  68.014  0.00  0.00     0.124 C 
ENDBRANCH   5   7
BRANCH   4  15
ATOM     15  C6  MOL d         -17.685 -13.021  69.139  0.00  0.00     0.420 C 
ATOM     16  F11 MOL d         -17.217 -14.204  69.556  0.00  0.00    -0.166 F 
ATOM     17  F12 MOL d         -19.001 -13.202  68.922  0.00  0.00    -0.166 F 
ATOM     18  F13 MOL d         -17.217 -12.845  67.882  0.00  0.00    -0.166 F 
ENDBRANCH   4  15
TORSDOF 2
