REMARK  11 active torsions:
REMARK  status: ('A' for Active; 'I' for Inactive)
REMARK    1  A    between atoms: N_1  and  CA_2 
REMARK    2  A    between atoms: CA_2  and  CB_3 
REMARK    3  A    between atoms: CA_2  and  C_6 
REMARK    4  A    between atoms: CB_3  and  CG_4 
REMARK    5  A    between atoms: CG_4  and  SD_5 
REMARK    6  A    between atoms: SD_5  and  C5'_9 
REMARK    7  A    between atoms: C5'_9  and  C4'_10 
REMARK    8  A    between atoms: C3'_12  and  O3'_13 
REMARK    9  A    between atoms: C2'_14  and  O2'_15 
REMARK   10  A    between atoms: C1'_16  and  N9_17 
REMARK   11  A    between atoms: C6_21  and  N6_22 
ROOT
ATOM      1  C4' SAH d           5.748   8.602  19.434  0.00  0.00     0.165 C 
ATOM      2  O4' SAH d           5.132   7.895  18.374  0.00  0.00    -0.355 OA
ATOM      3  C3' SAH d           7.236   8.613  19.106  0.00  0.00     0.180 C 
ATOM      4  C2' SAH d           7.429   7.244  18.505  0.00  0.00     0.198 C 
ATOM      5  C1' SAH d           6.082   6.988  17.845  0.00  0.00     0.262 C 
ENDROOT
BRANCH   1   6
ATOM      6  C5' SAH d           5.173  10.003  19.567  0.00  0.00     0.108 C 
BRANCH   6   7
ATOM      7  SD  SAH d           5.481  11.061  18.135  0.00  0.00    -0.166 SA
BRANCH   7   8
ATOM      8  CG  SAH d           3.711  11.006  17.865  0.00  0.00     0.076 C 
BRANCH   8   9
ATOM      9  CB  SAH d           3.073  12.329  18.229  0.00  0.00     0.054 C 
BRANCH   9  10
ATOM     10  CA  SAH d           1.871  12.541  17.337  0.00  0.00     0.284 C 
BRANCH  10  11
ATOM     11  N   SAH d           2.133  13.674  16.456  0.00  0.00    -0.065 N 
ATOM     12  H1  SAH d           2.965  13.495  15.916  0.00  0.00     0.275 HD
ATOM     13  H2  SAH d           2.264  14.506  17.009  0.00  0.00     0.275 HD
ATOM     14  H3  SAH d           1.351  13.804  15.834  0.00  0.00     0.275 HD
ENDBRANCH  10  11
BRANCH  10  15
ATOM     15  C   SAH d           0.627  12.729  18.192  0.00  0.00     0.204 C 
ATOM     16  O   SAH d           0.051  11.759  18.684  0.00  0.00    -0.646 OA
ATOM     17  OXT SAH d           0.175  13.853  18.413  0.00  0.00    -0.646 OA
ENDBRANCH  10  15
ENDBRANCH   9  10
ENDBRANCH   8   9
ENDBRANCH   7   8
ENDBRANCH   6   7
ENDBRANCH   1   6
BRANCH   3  18
ATOM     18  O3' SAH d           8.004   8.794  20.261  0.00  0.00    -0.390 OA
ATOM     19  H13 SAH d           7.831   8.085  20.869  0.00  0.00     0.210 HD
ENDBRANCH   3  18
BRANCH   5  20
ATOM     20  N9  SAH d           6.201   7.203  16.386  0.00  0.00    -0.294 N 
ATOM     21  C8  SAH d           5.626   8.172  15.615  0.00  0.00     0.214 A 
ATOM     22  N7  SAH d           5.998   7.979  14.330  0.00  0.00    -0.236 NA
ATOM     23  C5  SAH d           6.802   6.894  14.274  0.00  0.00     0.149 A 
ATOM     24  C6  SAH d           7.462   6.252  13.230  0.00  0.00     0.155 A 
ATOM     25  C4  SAH d           6.933   6.401  15.566  0.00  0.00     0.167 A 
ATOM     26  N1  SAH d           8.231   5.145  13.519  0.00  0.00    -0.222 NA
ATOM     27  C2  SAH d           8.357   4.677  14.809  0.00  0.00     0.237 A 
ATOM     28  N3  SAH d           7.690   5.319  15.834  0.00  0.00    -0.222 NA
BRANCH  24  29
ATOM     29  N6  SAH d           7.363   6.692  11.971  0.00  0.00    -0.382 N 
ATOM     30  H18 SAH d           7.860   6.202  11.214  0.00  0.00     0.157 HD
ATOM     31  H19 SAH d           6.790   7.521  11.759  0.00  0.00     0.157 HD
ENDBRANCH  24  29
ENDBRANCH   5  20
BRANCH   4  32
ATOM     32  O2' SAH d           7.610   6.278  19.524  0.00  0.00    -0.388 OA
ATOM     33  H15 SAH d           8.377   6.502  20.038  0.00  0.00     0.210 HD
ENDBRANCH   4  32
TORSDOF 11
