REMARK  7 active torsions:
REMARK  status: ('A' for Active; 'I' for Inactive)
REMARK    1  A    between atoms: C22_3  and  N26_26 
REMARK    2  A    between atoms: C12_15  and  C03_7 
REMARK    3  A    between atoms: C06_10  and  N07_11 
REMARK    4  A    between atoms: N13_16  and  C12_15 
REMARK    5  A    between atoms: C12_15  and  C14_17 
REMARK       I    between atoms: C18_21  and  N13_16 
REMARK       I    between atoms: C14_17  and  N16_19 
REMARK    6  A    between atoms: N16_19  and  O17_20 
REMARK    7  A    between atoms: C18_21  and  C19_22 
ROOT
ATOM      1  C12 R5X d          87.690  73.738  31.102  0.00  0.00     0.212 C 
ENDROOT
BRANCH   1   2
ATOM      2  C03 R5X d          86.443  73.129  31.298  0.00  0.00    -0.026 A 
ATOM      3  C02 R5X d          85.557  73.812  32.125  0.00  0.00     0.012 A 
ATOM      4  C01 R5X d          84.291  73.314  32.385  0.00  0.00     0.032 A 
ATOM      5  C06 R5X d          83.895  72.119  31.807  0.00  0.00     0.058 A 
ATOM      6  C05 R5X d          84.774  71.429  30.973  0.00  0.00     0.032 A 
ATOM      7  C04 R5X d          86.051  71.931  30.710  0.00  0.00     0.012 A 
BRANCH   5   8
ATOM      8  N07 R5X d          82.674  71.660  32.076  0.00  0.00    -0.245 N 
ATOM      9  N08 R5X d          82.061  70.823  31.474  0.00  0.00    -0.180 NA
ATOM     10  C09 R5X d          80.872  70.635  32.047  0.00  0.00     0.140 A 
ATOM     11  C10 R5X d          80.797  71.451  33.088  0.00  0.00     0.040 A 
ATOM     12  C11 R5X d          81.948  72.105  33.103  0.00  0.00     0.120 A 
ENDBRANCH   5   8
ENDBRANCH   1   2
BRANCH   1  13
ATOM     13  N13 R5X d          88.846  72.888  30.768  0.00  0.00    -0.340 N 
ATOM     14  C18 R5X d          89.658  72.344  31.684  0.00  0.00     0.252 C 
ATOM     15  O20 R5X d          89.492  72.428  32.899  0.00  0.00    -0.268 OA
ATOM     16  H   R5X d          89.035  72.707  29.803  0.00  0.00     0.164 HD
BRANCH  14  17
ATOM     17  C19 R5X d          90.771  71.705  31.149  0.00  0.00     0.034 A 
ATOM     18  C21 R5X d          91.532  70.820  31.905  0.00  0.00     0.046 A 
ATOM     19  C22 R5X d          92.653  70.217  31.342  0.00  0.00     0.026 A 
ATOM     20  C23 R5X d          93.023  70.510  30.033  0.00  0.00     0.029 A 
ATOM     21  C24 R5X d          92.270  71.406  29.283  0.00  0.00     0.003 A 
ATOM     22  C25 R5X d          91.150  72.006  29.845  0.00  0.00     0.017 A 
BRANCH  19  23
ATOM     23  N26 R5X d          93.376  69.357  32.057  0.00  0.00    -0.399 N 
ATOM     24  H   R5X d          93.105  69.138  33.026  0.00  0.00     0.156 HD
ATOM     25  H   R5X d          94.206  68.911  31.641  0.00  0.00     0.156 HD
ENDBRANCH  19  23
ENDBRANCH  14  17
ENDBRANCH   1  13
BRANCH   1  26
ATOM     26  C14 R5X d          87.587  74.791  30.002  0.00  0.00     0.268 C 
ATOM     27  O15 R5X d          87.233  74.491  28.863  0.00  0.00    -0.269 OA
ATOM     28  N16 R5X d          87.941  76.023  30.384  0.00  0.00    -0.235 N 
ATOM     29  H   R5X d          88.235  76.216  31.320  0.00  0.00     0.197 HD
BRANCH  28  30
ATOM     30  O17 R5X d          87.881  77.034  29.410  0.00  0.00    -0.287 OA
ATOM     31  H   R5X d          88.460  76.813  28.690  0.00  0.00     0.244 HD
ENDBRANCH  28  30
ENDBRANCH   1  26
TORSDOF 7
