REMARK  6 active torsions:
REMARK  status: ('A' for Active; 'I' for Inactive)
REMARK    1  A    between atoms: C02_2  and  N12_12 
REMARK    2  A    between atoms: C03_3  and  C25_25 
REMARK    3  A    between atoms: C05_5  and  C06_6 
REMARK    4  A    between atoms: C07_7  and  C08_8 
REMARK       I    between atoms: N12_12  and  C13_13 
REMARK    5  A    between atoms: N12_12  and  N14_14 
REMARK    6  A    between atoms: C13_13  and  C15_15 
ROOT
ATOM      1  C01 MOL d           9.171  33.092  73.798  0.00  0.00     0.061 A 
ATOM      2  C02 MOL d           7.811  33.478  74.099  0.00  0.00     0.092 A 
ATOM      3  C03 MOL d           6.969  33.080  73.056  0.00  0.00     0.111 A 
ATOM      4  S04 MOL d           7.808  32.307  71.790  0.00  0.00    -0.072 SA
ATOM      5  C05 MOL d           9.298  32.459  72.577  0.00  0.00     0.061 A 
ENDROOT
BRANCH   2   6
ATOM      6  N12 MOL d           7.357  34.129  75.273  0.00  0.00    -0.140 N 
ATOM      7  C13 MOL d           7.307  35.527  75.380  0.00  0.00     0.253 C 
ATOM      8  O16 MOL d           6.917  36.123  76.389  0.00  0.00    -0.271 OA
BRANCH   7   9
ATOM      9  C15 MOL d           7.813  36.314  74.164  0.00  0.00     0.080 C 
ATOM     10  C17 MOL d           6.949  37.545  73.844  0.00  0.00     0.014 C 
ATOM     11  C18 MOL d           7.560  38.345  72.687  0.00  0.00     0.005 C 
ATOM     12  C19 MOL d           8.991  38.794  73.031  0.00  0.00    -0.019 C 
ATOM     13  C20 MOL d           9.867  37.591  73.392  0.00  0.00     0.005 C 
ATOM     14  C22 MOL d           9.629  39.580  71.880  0.00  0.00     0.010 C 
ATOM     15  C21 MOL d           9.245  36.742  74.501  0.00  0.00     0.014 C 
ENDBRANCH   7   9
BRANCH   6  16
ATOM     16  N14 MOL d           6.922  33.375  76.382  0.00  0.00     0.009 N 
ATOM     17  C23 MOL d           5.581  32.810  76.290  0.00  0.00     0.299 C 
ATOM     18  C24 MOL d           7.949  32.479  76.902  0.00  0.00     0.299 C 
ATOM     19  H11 MOL d           6.824  34.066  77.109  0.00  0.00     0.308 HD
ENDBRANCH   6  16
ENDBRANCH   2   6
BRANCH   3  20
ATOM     20  C25 MOL d           5.551  33.208  72.813  0.00  0.00     0.219 C 
ATOM     21  O26 MOL d           4.904  32.577  71.988  0.00  0.00    -0.643 OA
ATOM     22  O27 MOL d           4.995  34.171  73.589  0.00  0.00    -0.643 OA
ENDBRANCH   3  20
BRANCH   5  23
ATOM     23  C06 MOL d          10.495  31.965  71.986  0.00  0.00    -0.059 C 
ATOM     24  C07 MOL d          11.463  31.528  71.432  0.00  0.00    -0.092 C 
BRANCH  24  25
ATOM     25  C08 MOL d          12.642  30.994  70.722  0.00  0.00     0.013 C 
ATOM     26  C09 MOL d          13.899  31.621  71.347  0.00  0.00     0.028 C 
ATOM     27  C10 MOL d          12.696  29.461  70.831  0.00  0.00     0.028 C 
ATOM     28  C11 MOL d          12.565  31.396  69.237  0.00  0.00     0.028 C 
ENDBRANCH  24  25
ENDBRANCH   5  23
TORSDOF 6
