REMARK  5 active torsions:
REMARK  status: ('A' for Active; 'I' for Inactive)
REMARK    1  A    between atoms: CA_2  and  N_1 
REMARK    2  A    between atoms: CA_2  and  C_3 
REMARK    3  A    between atoms: CA_2  and  CB_5 
REMARK    4  A    between atoms: CB_5  and  CG_6 
REMARK    5  A    between atoms: CG_6  and  CD_7 
REMARK       I    between atoms: CD_7  and  NE2_9 
ROOT
ATOM      1  CA  GLN d           0.708  11.689  15.257  0.00  0.00     0.283 C 
ENDROOT
BRANCH   1   2
ATOM      2  C   GLN d          -0.623  11.657  14.528  0.00  0.00     0.204 C 
ATOM      3  O   GLN d          -1.593  11.109  15.085  0.00  0.00    -0.646 OA
ATOM      4  O1  GLN d          -0.744  12.173  13.385  0.00  0.00    -0.646 OA
ENDBRANCH   1   2
BRANCH   1   5
ATOM      5  CB  GLN d           0.785  12.950  16.114  0.00  0.00     0.053 C 
BRANCH   5   6
ATOM      6  CG  GLN d           1.987  12.961  17.039  0.00  0.00     0.105 C 
BRANCH   6   7
ATOM      7  CD  GLN d           1.823  13.953  18.166  0.00  0.00     0.215 C 
ATOM      8  OE1 GLN d           1.921  13.614  19.358  0.00  0.00    -0.274 OA
ATOM      9  NE2 GLN d           1.614  15.194  17.796  0.00  0.00    -0.370 N 
ATOM     10  H9  GLN d           1.496  15.908  18.486  0.00  0.00     0.159 HD
ATOM     11  H10 GLN d           1.573  15.426  16.824  0.00  0.00     0.159 HD
ENDBRANCH   6   7
ENDBRANCH   5   6
ENDBRANCH   1   5
BRANCH   1  12
ATOM     12  N   GLN d           1.841  11.676  14.302  0.00  0.00    -0.065 N 
ATOM     13  H1  GLN d           2.710  11.698  14.812  0.00  0.00     0.275 HD
ATOM     14  H2  GLN d           1.784  12.483  13.701  0.00  0.00     0.275 HD
ATOM     15  H3  GLN d           1.800  10.838  13.743  0.00  0.00     0.275 HD
ENDBRANCH   1  12
TORSDOF 5
