REMARK  8 active torsions:
REMARK  status: ('A' for Active; 'I' for Inactive)
REMARK    1  A    between atoms: S32_2  and  C29_5 
REMARK    2  A    between atoms: C28_10  and  C27_11 
REMARK    3  A    between atoms: C15_17  and  N2_18 
REMARK    4  A    between atoms: C12_23  and  N1_24 
REMARK    5  A    between atoms: N1_24  and  S1_25 
REMARK    6  A    between atoms: S1_25  and  C6_28 
REMARK    7  A    between atoms: C6_28  and  C5_29 
REMARK    8  A    between atoms: C5_29  and  C4_30 
ROOT
ATOM      1  N2  GSV d           6.161   5.322  20.722  0.00  0.00    -0.313 N 
ATOM      2  C50 GSV d           6.754   6.440  21.226  0.00  0.00     0.247 C 
ATOM      3  O3  GSV d           7.905   6.807  21.064  0.00  0.00    -0.271 OA
ATOM      4  C14 GSV d           4.786   5.148  21.170  0.00  0.00     0.135 C 
ATOM      5  C13 GSV d           4.392   6.580  21.533  0.00  0.00     0.056 C 
ATOM      6  C12 GSV d           5.719   7.190  22.022  0.00  0.00     0.187 C 
ENDROOT
BRANCH   1   7
ATOM      7  C15 GSV d           6.811   4.428  19.835  0.00  0.00     0.076 A 
ATOM      8  C22 GSV d           7.533   4.889  18.699  0.00  0.00     0.144 A 
ATOM      9  C26 GSV d           8.171   4.008  17.810  0.00  0.00     0.057 A 
ATOM     10  F   GSV d           7.603   6.214  18.486  0.00  0.00    -0.204 F 
ATOM     11  C27 GSV d           8.086   2.628  18.081  0.00  0.00    -0.021 A 
ATOM     12  C24 GSV d           7.359   2.155  19.212  0.00  0.00     0.014 A 
ATOM     13  C21 GSV d           6.718   3.038  20.099  0.00  0.00     0.034 A 
BRANCH  11  14
ATOM     14  C28 GSV d           8.740   1.632  17.175  0.00  0.00    -0.004 A 
ATOM     15  C29 GSV d           8.143   1.159  15.991  0.00  0.00     0.070 A 
ATOM     16  C31 GSV d           8.837   0.211  15.200  0.00  0.00     0.024 A 
ATOM     17  C34 GSV d          10.115  -0.260  15.585  0.00  0.00     0.002 A 
ATOM     18  C33 GSV d          10.718   0.214  16.769  0.00  0.00     0.001 A 
ATOM     19  C30 GSV d          10.024   1.154  17.557  0.00  0.00     0.014 A 
BRANCH  15  20
ATOM     20  S32 GSV d           6.513   1.695  15.448  0.00  0.00     0.172 S 
ATOM     21  C35 GSV d           5.398   1.759  16.825  0.00  0.00     0.167 C 
ATOM     22  O37 GSV d           6.546   3.010  14.900  0.00  0.00    -0.223 OA
ATOM     23  O36 GSV d           6.105   0.618  14.610  0.00  0.00    -0.223 OA
ENDBRANCH  15  20
ENDBRANCH  11  14
ENDBRANCH   1   7
BRANCH   6  24
ATOM     24  N1  GSV d           5.807   8.615  21.750  0.00  0.00    -0.302 N 
ATOM     25  H16 GSV d           5.512   8.946  20.854  0.00  0.00     0.173 HD
BRANCH  24  26
ATOM     26  S1  GSV d           6.357   9.693  22.823  0.00  0.00     0.249 S 
ATOM     27  O2  GSV d           6.429  10.872  22.008  0.00  0.00    -0.201 OA
ATOM     28  O1  GSV d           5.553   9.654  23.999  0.00  0.00    -0.201 OA
BRANCH  26  29
ATOM     29  C6  GSV d           7.936   9.170  23.346  0.00  0.00     0.132 C 
BRANCH  29  30
ATOM     30  C5  GSV d           8.073   8.707  24.732  0.00  0.00     0.032 C 
BRANCH  30  31
ATOM     31  C4  GSV d           9.333   8.203  25.328  0.00  0.00     0.007 A 
ATOM     32  S2  GSV d          10.828   8.459  24.542  0.00  0.00    -0.078 SA
ATOM     33  C1  GSV d          11.606   7.665  25.814  0.00  0.00     0.075 A 
ATOM     34  C2  GSV d          10.757   7.218  26.857  0.00  0.00     0.033 A 
ATOM     35 CL   GSV d          13.321   7.458  25.771  0.00  0.00    -0.076 Cl
ATOM     36  C3  GSV d           9.402   7.539  26.564  0.00  0.00     0.021 A 
ENDBRANCH  30  31
ENDBRANCH  29  30
ENDBRANCH  26  29
ENDBRANCH  24  26
ENDBRANCH   6  24
TORSDOF 8
