REMARK  15 active torsions:
REMARK  status: ('A' for Active; 'I' for Inactive)
REMARK    1  A    between atoms: C1_1  and  O1_36 
REMARK    2  A    between atoms: O1_36  and  C5_5 
REMARK       I    between atoms: C5_5  and  N1_32 
REMARK    3  A    between atoms: N1_32  and  C6_6 
REMARK    4  A    between atoms: C6_6  and  C14_14 
REMARK    5  A    between atoms: C6_6  and  C7_7 
REMARK    6  A    between atoms: C7_7  and  C8_8 
REMARK    7  A    between atoms: C14_14  and  O3_38 
REMARK    8  A    between atoms: C14_14  and  C15_15 
REMARK    9  A    between atoms: C15_15  and  C16_16 
REMARK   10  A    between atoms: C16_16  and  C24_24 
REMARK   11  A    between atoms: C16_16  and  C17_17 
REMARK   12  A    between atoms: C17_17  and  C18_18 
REMARK       I    between atoms: C24_24  and  N2_33 
REMARK   13  A    between atoms: N2_33  and  C25_25 
REMARK   14  A    between atoms: C25_25  and  C29_29 
REMARK   15  A    between atoms: C25_25  and  C26_26 
ROOT
ATOM      1  C16 IM1 d          61.902  18.327  23.370  0.00  0.00     0.084 C 
ENDROOT
BRANCH   1   2
ATOM      2  C15 IM1 d          62.462  19.703  23.664  0.00  0.00     0.048 C 
BRANCH   2   3
ATOM      3  C14 IM1 d          61.883  19.997  25.035  0.00  0.00     0.142 C 
BRANCH   3   4
ATOM      4  C6  IM1 d          62.083  21.325  25.724  0.00  0.00     0.119 C 
BRANCH   4   5
ATOM      5  N1  IM1 d          63.341  21.352  26.448  0.00  0.00    -0.329 N 
ATOM      6  C5  IM1 d          63.451  21.284  27.798  0.00  0.00     0.361 C 
ATOM      7  O2  IM1 d          62.517  21.178  28.605  0.00  0.00    -0.238 OA
ATOM      8  H39 IM1 d          64.184  21.426  25.915  0.00  0.00     0.165 HD
BRANCH   6   9
ATOM      9  O1  IM1 d          64.725  21.318  28.379  0.00  0.00    -0.294 OA
BRANCH   9  10
ATOM     10  C1  IM1 d          65.637  22.389  28.264  0.00  0.00     0.061 C 
ATOM     11  C4  IM1 d          66.569  22.251  27.045  0.00  0.00     0.046 C 
ATOM     12  C3  IM1 d          64.944  23.747  28.178  0.00  0.00     0.046 C 
ATOM     13  C2  IM1 d          66.469  22.390  29.551  0.00  0.00     0.046 C 
ENDBRANCH   9  10
ENDBRANCH   6   9
ENDBRANCH   4   5
BRANCH   4  14
ATOM     14  C7  IM1 d          61.988  22.448  24.667  0.00  0.00     0.066 C 
BRANCH  14  15
ATOM     15  C8  IM1 d          60.602  23.089  24.659  0.00  0.00    -0.056 A 
ATOM     16  C13 IM1 d          59.866  23.183  23.472  0.00  0.00     0.007 A 
ATOM     17  C12 IM1 d          58.579  23.735  23.486  0.00  0.00     0.001 A 
ATOM     18  C11 IM1 d          58.015  24.199  24.677  0.00  0.00     0.000 A 
ATOM     19  C10 IM1 d          58.737  24.114  25.867  0.00  0.00     0.001 A 
ATOM     20  C9  IM1 d          60.029  23.562  25.861  0.00  0.00     0.007 A 
ENDBRANCH  14  15
ENDBRANCH   4  14
ENDBRANCH   3   4
BRANCH   3  21
ATOM     21  O3  IM1 d          60.476  19.798  24.985  0.00  0.00    -0.393 OA
ATOM     22  H42 IM1 d          60.289  18.970  24.558  0.00  0.00     0.210 HD
ENDBRANCH   3  21
ENDBRANCH   2   3
ENDBRANCH   1   2
BRANCH   1  23
ATOM     23  C24 IM1 d          62.746  17.114  23.593  0.00  0.00     0.222 C 
ATOM     24  O4  IM1 d          63.944  16.947  23.327  0.00  0.00    -0.273 OA
ATOM     25  N2  IM1 d          61.974  16.225  24.197  0.00  0.00    -0.349 N 
ATOM     26  H40 IM1 d          61.012  16.416  24.392  0.00  0.00     0.163 HD
BRANCH  25  27
ATOM     27  C25 IM1 d          62.580  14.971  24.561  0.00  0.00     0.157 C 
BRANCH  27  28
ATOM     28  C29 IM1 d          61.794  13.838  23.951  0.00  0.00     0.126 A 
ATOM     29  N4  IM1 d          60.587  13.428  24.219  0.00  0.00    -0.244 NA
ATOM     30  C31 IM1 d          60.408  12.423  23.280  0.00  0.00     0.136 A 
ATOM     31  C30 IM1 d          61.551  12.291  22.479  0.00  0.00     0.109 A 
ATOM     32  N3  IM1 d          62.430  13.236  22.946  0.00  0.00    -0.351 N 
ATOM     33  H41 IM1 d          63.377  13.437  22.595  0.00  0.00     0.166 HD
ENDBRANCH  27  28
BRANCH  27  34
ATOM     34  C26 IM1 d          62.679  14.971  26.120  0.00  0.00     0.008 C 
ATOM     35  C28 IM1 d          63.369  16.219  26.670  0.00  0.00     0.012 C 
ATOM     36  C27 IM1 d          63.628  13.895  26.531  0.00  0.00     0.012 C 
ENDBRANCH  27  34
ENDBRANCH  25  27
ENDBRANCH   1  23
BRANCH   1  37
ATOM     37  C17 IM1 d          61.372  18.175  21.986  0.00  0.00     0.052 C 
BRANCH  37  38
ATOM     38  C18 IM1 d          62.154  18.593  20.815  0.00  0.00    -0.057 A 
ATOM     39  C23 IM1 d          61.893  19.849  20.264  0.00  0.00     0.007 A 
ATOM     40  C22 IM1 d          62.531  20.206  19.085  0.00  0.00     0.001 A 
ATOM     41  C21 IM1 d          63.418  19.303  18.486  0.00  0.00     0.000 A 
ATOM     42  C20 IM1 d          63.666  18.054  19.069  0.00  0.00     0.001 A 
ATOM     43  C19 IM1 d          63.028  17.686  20.252  0.00  0.00     0.007 A 
ENDBRANCH  37  38
ENDBRANCH   1  37
TORSDOF 15
