REMARK  3 active torsions:
REMARK  status: ('A' for Active; 'I' for Inactive)
REMARK    1  A    between atoms: C13_2  and  C15_3 
REMARK       I    between atoms: C13_2  and  N12_12 
REMARK    2  A    between atoms: N12_12  and  C8_13 
REMARK    3  A    between atoms: C6_18  and  C2_19 
ROOT
ATOM      1  O14 MOL d          -9.147  55.414  13.736  0.00  0.00    -0.267 OA
ATOM      2  C13 MOL d          -8.748  55.488  12.570  0.00  0.00     0.258 C 
ATOM      3  N12 MOL d          -7.661  54.867  12.123  0.00  0.00    -0.323 N 
ATOM      4  H6  MOL d          -7.439  54.984  11.155  0.00  0.00     0.169 HD
ENDROOT
BRANCH   3   5
ATOM      5  C8  MOL d          -6.792  54.059  12.885  0.00  0.00     0.035 A 
ATOM      6  C7  MOL d          -5.448  53.997  12.508  0.00  0.00     0.045 A 
ATOM      7  C6  MOL d          -4.559  53.248  13.273  0.00  0.00     0.017 A 
ATOM      8  C11 MOL d          -4.976  52.513  14.384  0.00  0.00     0.015 A 
ATOM      9  C10 MOL d          -6.321  52.566  14.704  0.00  0.00     0.003 A 
ATOM     10  C9  MOL d          -7.252  53.306  13.980  0.00  0.00     0.029 A 
BRANCH   7  11
ATOM     11  C2  MOL d          -3.151  53.212  12.868  0.00  0.00     0.198 A 
ATOM     12  N3  MOL d          -2.146  52.887  13.668  0.00  0.00    -0.136 NA
ATOM     13  N4  MOL d          -0.998  52.933  12.952  0.00  0.00     0.022 NA
ATOM     14  N5  MOL d          -1.292  53.331  11.690  0.00  0.00    -0.200 N 
ATOM     15  N1  MOL d          -2.678  53.473  11.637  0.00  0.00    -0.139 NA
ATOM     16  H11 MOL d          -0.625  53.496  10.923  0.00  0.00     0.208 HD
ENDBRANCH   7  11
ENDBRANCH   3   5
BRANCH   2  17
ATOM     17  C15 MOL d          -9.475  56.348  11.594  0.00  0.00     0.061 A 
ATOM     18  C20 MOL d          -9.139  56.371  10.241  0.00  0.00     0.078 A 
ATOM     19  N21 MOL d          -8.237  55.664   9.473  0.00  0.00    -0.348 N 
ATOM     20  C19 MOL d          -9.857  57.229   9.373  0.00  0.00     0.085 A 
ATOM     21  C22 MOL d          -8.369  56.106   8.213  0.00  0.00     0.208 A 
ATOM     22  H1  MOL d          -7.587  54.937   9.803  0.00  0.00     0.167 HD
ATOM     23  N23 MOL d          -9.372  57.008   8.121  0.00  0.00    -0.242 NA
ATOM     24  C18 MOL d         -10.860  58.070   9.860  0.00  0.00     0.034 A 
ATOM     25  C17 MOL d         -11.152  58.024  11.223  0.00  0.00     0.003 A 
ATOM     26  C16 MOL d         -10.463  57.186  12.065  0.00  0.00     0.019 A 
ENDBRANCH   2  17
TORSDOF 3
