REMARK  9 active torsions:
REMARK  status: ('A' for Active; 'I' for Inactive)
REMARK    1  A    between atoms: C7_15  and  C1_1 
REMARK    2  A    between atoms: N1_2  and  C5_11 
REMARK    3  A    between atoms: C11_21  and  N1_2 
REMARK    4  A    between atoms: C17_27  and  O1_3 
REMARK    5  A    between atoms: N8_18  and  C4_9 
REMARK    6  A    between atoms: N8_18  and  C13_23 
REMARK    7  A    between atoms: C15_25  and  N8_18 
REMARK    8  A    between atoms: C13_23  and  C14_24 
REMARK    9  A    between atoms: C15_25  and  C17_27 
ROOT
ATOM      1  N1  EML d          -2.804  32.875  78.979  0.00  0.00    -0.331 N 
ATOM      2  H1  EML d          -2.537  33.227  78.049  0.00  0.00     0.168 HD
ENDROOT
BRANCH   1   3
ATOM      3  C5  EML d          -3.739  31.851  79.028  0.00  0.00     0.176 A 
ATOM      4  C6  EML d          -4.248  31.273  77.863  0.00  0.00     0.181 A 
ATOM      5  N2  EML d          -4.014  31.609  76.524  0.00  0.00    -0.237 NA
ATOM      6  N3  EML d          -5.163  30.268  77.983  0.00  0.00    -0.299 N 
ATOM      7  C9  EML d          -4.820  30.745  75.873  0.00  0.00     0.150 A 
ATOM      8  C7  EML d          -5.558  29.878  76.721  0.00  0.00     0.071 A 
ATOM      9  C2  EML d          -5.639  29.771  79.177  0.00  0.00     0.126 A 
ATOM     10  C3  EML d          -5.161  30.347  80.330  0.00  0.00     0.049 A 
ATOM     11  N7  EML d          -4.248  31.387  80.225  0.00  0.00    -0.231 NA
ATOM     12  C19 EML d          -5.583  29.875  81.678  0.00  0.00     0.072 C 
BRANCH   8  13
ATOM     13  C1  EML d          -6.609  28.849  76.349  0.00  0.00     0.029 A 
ATOM     14  C8  EML d          -7.764  28.598  77.085  0.00  0.00     0.153 A 
ATOM     15  N5  EML d          -8.402  27.632  76.393  0.00  0.00    -0.187 NA
ATOM     16  N4  EML d          -7.737  27.278  75.278  0.00  0.00    -0.289 N 
ATOM     17  C10 EML d          -6.615  27.996  75.204  0.00  0.00     0.124 A 
ATOM     18  H6  EML d          -8.043  26.570  74.595  0.00  0.00     0.188 HD
ENDBRANCH   8  13
ENDBRANCH   1   3
BRANCH   1  19
ATOM     19  C11 EML d          -2.195  33.468  80.087  0.00  0.00     0.096 A 
ATOM     20  S1  EML d          -2.440  33.080  81.757  0.00  0.00     0.029 SA
ATOM     21  N6  EML d          -1.484  34.149  82.375  0.00  0.00    -0.212 NA
ATOM     22  C14 EML d          -0.893  34.865  81.391  0.00  0.00     0.071 A 
ATOM     23  C12 EML d          -1.264  34.513  80.093  0.00  0.00     0.068 A 
BRANCH  22  24
ATOM     24  C13 EML d           0.102  35.941  81.761  0.00  0.00     0.295 C 
BRANCH  24  25
ATOM     25  N8  EML d          -0.008  36.543  83.147  0.00  0.00    -0.056 N 
ATOM     26  H8  EML d          -0.640  35.870  83.552  0.00  0.00     0.281 HD
BRANCH  25  27
ATOM     27  C4  EML d           1.149  36.344  84.023  0.00  0.00     0.232 C 
ATOM     28  C16 EML d           1.930  35.062  84.015  0.00  0.00     0.034 C 
ENDBRANCH  25  27
BRANCH  25  29
ATOM     29  C15 EML d          -0.809  37.765  83.387  0.00  0.00     0.142 C 
ATOM     30  C18 EML d          -1.840  38.043  82.348  0.00  0.00     0.048 C 
ATOM     31  C20 EML d           0.068  39.049  83.402  0.00  0.00     0.048 C 
BRANCH  29  32
ATOM     32  C17 EML d          -1.715  37.635  84.633  0.00  0.00     0.202 C 
BRANCH  32  33
ATOM     33  O1  EML d          -1.981  36.259  84.964  0.00  0.00    -0.398 OA
ATOM     34  H2  EML d          -2.539  36.221  85.732  0.00  0.00     0.209 HD
ENDBRANCH  32  33
ENDBRANCH  29  32
ENDBRANCH  25  29
ENDBRANCH  24  25
ENDBRANCH  22  24
ENDBRANCH   1  19
TORSDOF 9
