REMARK  7 active torsions:
REMARK  status: ('A' for Active; 'I' for Inactive)
REMARK    1  A    between atoms: C1_1  and  C6_6 
REMARK    2  A    between atoms: C7_7  and  C2_2 
REMARK    3  A    between atoms: N4_4  and  C33_33 
REMARK       I    between atoms: C6_6  and  N11_11 
REMARK       I    between atoms: N8_8  and  C7_7 
REMARK    4  A    between atoms: C19_19  and  N8_8 
REMARK    5  A    between atoms: N11_11  and  C12_12 
REMARK    6  A    between atoms: N25_25  and  C21_21 
REMARK    7  A    between atoms: C33_33  and  C34_34 
ROOT
ATOM      1  C1  XBV d          10.439  66.750   4.002  0.00  0.00     0.118 C 
ATOM      2  C2  XBV d           9.693  66.331   2.726  0.00  0.00     0.118 C 
ATOM      3  C3  XBV d           8.930  67.600   2.289  0.00  0.00     0.250 C 
ATOM      4  N4  XBV d           9.858  68.686   2.736  0.00  0.00    -0.064 N 
ATOM      5  C5  XBV d          10.408  68.291   4.056  0.00  0.00     0.250 C 
ATOM      6  H5  XBV d          10.610  68.779   2.071  0.00  0.00     0.280 HD
ENDROOT
BRANCH   2   7
ATOM      7  C7  XBV d           8.741  65.194   3.030  0.00  0.00     0.229 C 
ATOM      8  N8  XBV d           9.250  64.004   2.857  0.00  0.00    -0.324 N 
ATOM      9  H8  XBV d          10.213  63.955   2.590  0.00  0.00     0.169 HD
ATOM     10  O9  XBV d           7.611  65.369   3.460  0.00  0.00    -0.273 OA
BRANCH   8  11
ATOM     11  C19 XBV d           8.562  62.781   3.013  0.00  0.00     0.073 A 
ATOM     12  C20 XBV d           7.735  62.477   4.100  0.00  0.00     0.035 A 
ATOM     13  C23 XBV d           7.153  61.207   4.155  0.00  0.00     0.032 A 
ATOM     14  C21 XBV d           7.455  60.276   3.156  0.00  0.00     0.045 A 
ATOM     15  C22 XBV d           8.291  60.586   2.073  0.00  0.00     0.074 A 
ATOM     16  C24 XBV d           8.807  61.887   2.008  0.00  0.00     0.145 A 
ATOM     17  F32 XBV d           9.630  62.206   0.998  0.00  0.00    -0.204 F 
BRANCH  14  18
ATOM     18  N25 XBV d           6.900  58.961   3.155  0.00  0.00    -0.290 N 
ATOM     19  C26 XBV d           7.401  57.992   4.038  0.00  0.00     0.100 A 
ATOM     20  C29 XBV d           6.906  56.723   4.032  0.00  0.00     0.018 A 
ATOM     21  C27 XBV d           5.873  56.368   3.156  0.00  0.00     0.007 A 
ATOM     22  C28 XBV d           5.363  57.304   2.283  0.00  0.00     0.075 A 
ATOM     23  C30 XBV d           5.869  58.653   2.259  0.00  0.00     0.252 A 
ATOM     24  O31 XBV d           5.445  59.508   1.471  0.00  0.00    -0.268 OA
ENDBRANCH  14  18
ENDBRANCH   8  11
ENDBRANCH   2   7
BRANCH   1  25
ATOM     25  C6  XBV d          11.829  66.169   4.075  0.00  0.00     0.230 C 
ATOM     26  O10 XBV d          12.511  65.980   3.079  0.00  0.00    -0.273 OA
ATOM     27  N11 XBV d          12.317  65.979   5.322  0.00  0.00    -0.311 N 
ATOM     28  H9  XBV d          11.771  66.366   6.065  0.00  0.00     0.170 HD
BRANCH  27  29
ATOM     29  C12 XBV d          13.479  65.316   5.710  0.00  0.00     0.129 A 
ATOM     30  N13 XBV d          14.029  64.414   4.880  0.00  0.00    -0.242 NA
ATOM     31  C16 XBV d          15.062  63.618   5.265  0.00  0.00     0.142 A 
ATOM     32  C14 XBV d          15.557  63.692   6.582  0.00  0.00     0.051 A 
ATOM     33  C15 XBV d          14.980  64.616   7.475  0.00  0.00     0.029 A 
ATOM     34 CL1  XBV d          16.803  62.623   7.147  0.00  0.00    -0.083 Cl
ATOM     35  C17 XBV d          13.922  65.417   7.037  0.00  0.00     0.052 A 
ENDBRANCH  27  29
ENDBRANCH   1  25
BRANCH   4  36
ATOM     36  C33 XBV d           9.153  69.974   2.840  0.00  0.00     0.305 C 
BRANCH  36  37
ATOM     37  C34 XBV d          10.131  71.150   2.839  0.00  0.00     0.378 C 
ATOM     38  F35 XBV d          11.132  71.017   3.806  0.00  0.00    -0.213 F 
ATOM     39  F36 XBV d          10.790  71.122   1.628  0.00  0.00    -0.213 F 
ENDBRANCH  36  37
ENDBRANCH   4  36
TORSDOF 7
