3f3t_ligand

Created by X-TOOL on Fri Sep 26 17:34:46 2014
 55 58  0  0  0  0  0  0  0  0999 V2000
   -5.3160   35.3030   -9.1670  C 0  0  0  1  0  3
   -5.2040   35.0410  -10.5340  C 0  0  0  2  0  3
   -6.1790   35.5510  -11.3950  C 0  0  0  2  0  3
   -7.2460   36.3230  -10.9300  C 0  0  0  2  0  3
   -7.3510   36.5850   -9.5690  C 0  0  0  2  0  3
   -6.4010   36.0790   -8.6920  C 0  0  0  1  0  3
   -6.5370   36.3470   -7.3330  C 0  0  0  2  0  3
   -5.5930   35.8300   -6.4480  C 0  0  0  2  0  3
   -4.5190   35.0780   -6.9020  C 0  0  0  2  0  3
   -4.3570   34.7970   -8.2690  C 0  0  0  1  0  3
   -3.3200   34.0400   -8.7110  N 0  0  0  2  0  3
   -2.8390   32.9920   -8.0100  C 0  0  0  1  0  3
   -3.3070   32.6940   -6.9070  O 0  0  0  1  0  1
   -1.8200   32.3100   -8.5620  N 0  0  0  2  0  3
   -1.1910   31.2560   -7.9900  C 0  0  0  1  0  3
   -1.7670   30.2030   -7.3820  C 0  0  0  2  0  3
   -0.7350   29.4500   -6.9680  C 0  0  0  1  0  3
   -0.7610   28.0740   -6.2210  C 0  0  0  1  0  4
   -1.4560   27.0300   -7.1120  C 0  0  0  4  0  4
    0.6670   27.6190   -5.9250  C 0  0  0  4  0  4
   -1.4570   28.1530   -4.8590  C 0  0  0  4  0  4
    0.4010   30.0380   -7.3350  N 0  0  0  1  0  2
    0.1480   31.0980   -7.9140  N 0  0  0  1  0  3
    1.1320   31.8850   -8.3950  C 0  0  0  1  0  3
    1.1860   33.2460   -8.1640  C 0  0  0  2  0  3
    2.1700   31.3200   -9.1490  C 0  0  0  2  0  3
    3.2300   32.0820   -9.6820  C 0  0  0  2  0  3
    3.2610   33.4540   -9.4390  C 0  0  0  2  0  3
    2.2330   34.0250   -8.6840  C 0  0  0  1  0  3
    2.2460   35.3370   -8.4280  N 0  0  0  3  0  3
   -4.3779   34.4542  -10.9191  H 0  0  0  1  0  1
   -6.1051   35.3412  -12.4559  H 0  0  0  1  0  1
   -7.9834   36.7132  -11.6222  H 0  0  0  1  0  1
   -8.1731   37.1833   -9.1930  H 0  0  0  1  0  1
   -7.3630   36.9475   -6.9694  H 0  0  0  1  0  1
   -5.6996   36.0187   -5.3859  H 0  0  0  1  0  1
   -3.7932   34.7012   -6.1905  H 0  0  0  1  0  1
   -2.8972   34.2675   -9.5882  H 0  0  0  1  0  1
   -1.5025   32.6036   -9.4637  H 0  0  0  1  0  1
   -2.8304   30.0058   -7.2544  H 0  0  0  1  0  1
   -1.4774   26.0606   -6.5925  H 0  0  0  1  0  1
   -0.9023   26.9274   -8.0569  H 0  0  0  1  0  1
   -2.4852   27.3554   -7.3236  H 0  0  0  1  0  1
    1.1648   28.3649   -5.2879  H 0  0  0  1  0  1
    1.2217   27.5145   -6.8691  H 0  0  0  1  0  1
    0.6427   26.6501   -5.4047  H 0  0  0  1  0  1
   -2.4988   28.4776   -4.9979  H 0  0  0  1  0  1
   -0.9299   28.8761   -4.2192  H 0  0  0  1  0  1
   -1.4423   27.1621   -4.3817  H 0  0  0  1  0  1
    0.4099   33.7192   -7.5734  H 0  0  0  1  0  1
    2.1572   30.2513   -9.3301  H 0  0  0  1  0  1
    4.0075   31.6087  -10.2707  H 0  0  0  1  0  1
    4.0666   34.0661   -9.8280  H 0  0  0  1  0  1
    1.4897   35.7607   -7.8718  H 0  0  0  1  0  1
    3.0123   35.9242   -8.7869  H 0  0  0  1  0  1
  1  2  4  0  0  1
  1  6  4  0  0  1
  1 10  4  0  0  1
  2  3  4  0  0  1
  3  4  4  0  0  1
  4  5  4  0  0  1
  5  6  4  0  0  1
  6  7  4  0  0  1
  7  8  4  0  0  1
  8  9  4  0  0  1
  9 10  4  0  0  1
 10 11  1  0  0  2
 11 12  1  0  0  2
 12 13  2  0  0  2
 12 14  1  0  0  2
 14 15  1  0  0  2
 15 16  2  0  0  1
 15 23  1  0  0  1
 16 17  1  0  0  1
 17 18  1  0  0  2
 17 22  2  0  0  1
 18 19  1  0  0  2
 18 20  1  0  0  2
 18 21  1  0  0  2
 22 23  1  0  0  1
 23 24  1  0  0  2
 24 25  4  0  0  1
 24 26  4  0  0  1
 25 29  4  0  0  1
 26 27  4  0  0  1
 27 28  4  0  0  1
 28 29  4  0  0  1
 29 30  1  0  0  2
  2 31  1  0  0  2
  3 32  1  0  0  2
  4 33  1  0  0  2
  5 34  1  0  0  2
  7 35  1  0  0  2
  8 36  1  0  0  2
  9 37  1  0  0  2
 11 38  1  0  0  2
 14 39  1  0  0  2
 16 40  1  0  0  2
 19 41  1  0  0  2
 19 42  1  0  0  2
 19 43  1  0  0  2
 20 44  1  0  0  2
 20 45  1  0  0  2
 20 46  1  0  0  2
 21 47  1  0  0  2
 21 48  1  0  0  2
 21 49  1  0  0  2
 25 50  1  0  0  2
 26 51  1  0  0  2
 27 52  1  0  0  2
 28 53  1  0  0  2
 30 54  1  0  0  2
 30 55  1  0  0  2
M  END
> <MOLECULAR_FORMULA>
C24H25N5O

> <MOLECULAR_WEIGHT>
399.3

> <NUM_HB_ATOMS>
6  

> <NUM_ROTOR>
0  

> <XLOGP2>
4.26 

$$$$
