REMARK  2 active torsions:
REMARK  status: ('A' for Active; 'I' for Inactive)
REMARK    1  A    between atoms: C13_13  and  C14_14 
REMARK    2  A    between atoms: C20_20  and  N21_21 
ROOT
ATOM      1  C1  B2L d          -3.148  11.309   1.513  0.00  0.00     0.207 C 
ATOM      2  O2  B2L d          -3.900  10.197   2.089  0.00  0.00    -0.382 OA
ATOM      3  C3  B2L d          -3.749   9.013   1.229  0.00  0.00     0.207 C 
ATOM      4  C4  B2L d          -2.447   8.698   0.792  0.00  0.00    -0.023 A 
ATOM      5  C5  B2L d          -2.116   7.382   0.449  0.00  0.00     0.010 A 
ATOM      6  C6  B2L d          -0.821   7.085   0.011  0.00  0.00     0.002 A 
ATOM      7  C7  B2L d           0.157   8.086  -0.023  0.00  0.00     0.013 A 
ATOM      8  C8  B2L d          -0.145   9.419   0.338  0.00  0.00    -0.012 A 
ATOM      9  C9  B2L d          -1.470   9.720   0.742  0.00  0.00    -0.008 A 
ATOM     10  C10 B2L d          -1.830  11.048   1.070  0.00  0.00    -0.023 A 
ATOM     11  C11 B2L d          -0.866  12.068   1.044  0.00  0.00     0.011 A 
ATOM     12  C12 B2L d           0.433  11.772   0.613  0.00  0.00     0.015 A 
ATOM     13  C13 B2L d           0.817  10.461   0.273  0.00  0.00     0.004 A 
ENDROOT
BRANCH  13  14
ATOM     14  C14 B2L d           2.139  10.286  -0.167  0.00  0.00     0.089 A 
ATOM     15  N15 B2L d           3.158  10.777   0.579  0.00  0.00    -0.063 NA
ATOM     16  C20 B2L d           4.439  10.712   0.160  0.00  0.00     0.721 A 
ATOM     17  N19 B2L d           4.740  10.154  -1.028  0.00  0.00    -0.068 NA
ATOM     18  C17 B2L d           3.766   9.693  -1.847  0.00  0.00     0.052 A 
ATOM     19  C16 B2L d           2.430   9.769  -1.444  0.00  0.00     0.060 A 
ATOM     20  C18 B2L d           4.141   9.049  -3.198  0.00  0.00     0.071 C 
BRANCH  16  21
ATOM     21  N21 B2L d           5.418  11.168   0.938  0.00  0.00    -0.231 N 
ATOM     22  H14 B2L d           5.196  11.596   1.848  0.00  0.00     0.174 HD
ATOM     23  H15 B2L d           6.398  11.093   0.630  0.00  0.00     0.174 HD
ENDBRANCH  16  21
ENDBRANCH  13  14
TORSDOF 2
