REMARK  6 active torsions:
REMARK  status: ('A' for Active; 'I' for Inactive)
REMARK    1  A    between atoms: C3_3  and  N7_7 
REMARK    2  A    between atoms: N7_7  and  C12_12 
REMARK       I    between atoms: N9_9  and  C13_13 
REMARK       I    between atoms: C13_13  and  N16_16 
REMARK    3  A    between atoms: N16_16  and  C21_21 
REMARK    4  A    between atoms: C21_21  and  C26_26 
REMARK    5  A    between atoms: C21_21  and  C27_27 
REMARK    6  A    between atoms: C27_27  and  N30_30 
ROOT
ATOM      1  C1  X4Z d          20.018  20.503  61.240  0.00  0.00     0.034 A 
ATOM      2  C2  X4Z d          20.228  21.648  61.966  0.00  0.00     0.067 A 
ATOM      3  C3  X4Z d          19.536  19.589  62.207  0.00  0.00     0.159 A 
ATOM      4  C4  X4Z d          20.280  20.706  59.801  0.00  0.00     0.173 C 
ATOM      5  C5  X4Z d          20.766  22.816  61.166  0.00  0.00     0.074 C 
ATOM      6  N6  X4Z d          19.908  21.511  63.262  0.00  0.00    -0.277 N 
ATOM      7  N8  X4Z d          19.456  20.180  63.418  0.00  0.00    -0.156 NA
ATOM      8  N9  X4Z d          20.624  22.189  59.796  0.00  0.00    -0.315 N 
ATOM      9  C10 X4Z d          19.836  24.023  61.414  0.00  0.00     0.045 C 
ATOM     10  C11 X4Z d          22.199  23.173  61.621  0.00  0.00     0.045 C 
ATOM     11  C13 X4Z d          20.777  22.918  58.654  0.00  0.00     0.320 C 
ATOM     12  N16 X4Z d          20.603  22.313  57.489  0.00  0.00    -0.333 N 
ATOM     13  O17 X4Z d          21.086  24.107  58.701  0.00  0.00    -0.247 OA
ATOM     14  H3  X4Z d          19.978  22.231  63.996  0.00  0.00     0.189 HD
ATOM     15  H11 X4Z d          20.386  21.337  57.465  0.00  0.00     0.165 HD
ENDROOT
BRANCH  12  16
ATOM     16  C21 X4Z d          20.728  23.074  56.213  0.00  0.00     0.145 C 
BRANCH  16  17
ATOM     17  C26 X4Z d          22.093  23.516  55.799  0.00  0.00    -0.034 A 
ATOM     18  C28 X4Z d          22.218  24.604  54.878  0.00  0.00     0.009 A 
ATOM     19  C31 X4Z d          23.511  25.032  54.454  0.00  0.00     0.001 A 
ATOM     20  C33 X4Z d          24.668  24.369  54.960  0.00  0.00     0.000 A 
ATOM     21  C32 X4Z d          24.560  23.283  55.885  0.00  0.00     0.001 A 
ATOM     22  C29 X4Z d          23.263  22.859  56.302  0.00  0.00     0.009 A 
ENDBRANCH  16  17
BRANCH  16  23
ATOM     23  C27 X4Z d          20.019  22.325  55.029  0.00  0.00     0.263 C 
BRANCH  23  24
ATOM     24  N30 X4Z d          18.541  22.324  55.080  0.00  0.00    -0.076 N 
ATOM     25  C34 X4Z d          17.877  21.821  56.295  0.00  0.00     0.269 C 
ATOM     26  C35 X4Z d          18.055  21.520  53.937  0.00  0.00     0.269 C 
ATOM     27  H22 X4Z d          18.244  23.280  54.960  0.00  0.00     0.279 HD
ENDBRANCH  23  24
ENDBRANCH  16  23
ENDBRANCH  12  16
BRANCH   3  28
ATOM     28  N7  X4Z d          19.225  18.186  61.912  0.00  0.00    -0.323 N 
ATOM     29  H4  X4Z d          18.439  17.820  62.469  0.00  0.00     0.169 HD
BRANCH  28  30
ATOM     30  C12 X4Z d          19.740  17.283  61.079  0.00  0.00     0.150 A 
ATOM     31  C14 X4Z d          19.258  15.966  61.125  0.00  0.00     0.079 A 
ATOM     32  C18 X4Z d          19.837  15.027  60.202  0.00  0.00     0.080 A 
ATOM     33  S19 X4Z d          18.077  15.202  62.080  0.00  0.00    -0.096 SA
ATOM     34  N22 X4Z d          20.839  15.486  59.335  0.00  0.00    -0.233 NA
ATOM     35  C23 X4Z d          19.252  13.728  60.348  0.00  0.00     0.040 A 
ATOM     36  C20 X4Z d          21.261  16.766  59.348  0.00  0.00     0.125 A 
ATOM     37  N15 X4Z d          20.715  17.656  60.210  0.00  0.00    -0.215 NA
ATOM     38  C25 X4Z d          22.311  17.221  58.441  0.00  0.00     0.093 C 
ATOM     39  C24 X4Z d          18.259  13.680  61.356  0.00  0.00     0.053 A 
ENDBRANCH  28  30
ENDBRANCH   3  28
TORSDOF 6
