REMARK  10 active torsions:
REMARK  status: ('A' for Active; 'I' for Inactive)
REMARK    1  A    between atoms: C6_2  and  O6_1 
REMARK    2  A    between atoms: C5_3  and  C6_2 
REMARK    3  A    between atoms: C4_5  and  O4_6 
REMARK    4  A    between atoms: C3_7  and  O3_8 
REMARK    5  A    between atoms: C2_9  and  O2_10 
REMARK    6  A    between atoms: C7_12  and  O7_11 
REMARK    7  A    between atoms: C8_13  and  C7_12 
REMARK    8  A    between atoms: C10_15  and  C9_14 
REMARK    9  A    between atoms: O1_19  and  C13_18 
REMARK   10  A    between atoms: O1_19  and  C1_20 
ROOT
ATOM      1  C5  HNW d          16.654   1.005  11.368  0.00  0.00     0.179 C 
ATOM      2  O5  HNW d          15.369   0.342  11.644  0.00  0.00    -0.348 OA
ATOM      3  C4  HNW d          17.494   0.188  10.369  0.00  0.00     0.180 C 
ATOM      4  C3  HNW d          17.590  -1.168  10.777  0.00  0.00     0.183 C 
ATOM      5  C2  HNW d          16.268  -1.786  11.021  0.00  0.00     0.205 C 
ATOM      6  C1  HNW d          15.480  -0.981  12.077  0.00  0.00     0.298 C 
ENDROOT
BRANCH   6   7
ATOM      7  O1  HNW d          16.218  -1.115  13.237  0.00  0.00    -0.318 OA
BRANCH   7   8
ATOM      8  C13 HNW d          15.792  -0.475  14.398  0.00  0.00     0.072 A 
ATOM      9  C14 HNW d          16.657  -0.466  15.416  0.00  0.00     0.038 A 
ATOM     10  C15 HNW d          16.331   0.159  16.635  0.00  0.00     0.023 A 
ATOM     11  C10 HNW d          15.089   0.733  16.754  0.00  0.00     0.018 A 
ATOM     12  C11 HNW d          14.216   0.724  15.730  0.00  0.00     0.023 A 
ATOM     13  C12 HNW d          14.546   0.106  14.523  0.00  0.00     0.038 A 
BRANCH  11  14
ATOM     14  C9  HNW d          14.725   1.395  18.003  0.00  0.00    -0.065 C 
ATOM     15  C8  HNW d          14.440   1.921  19.058  0.00  0.00    -0.075 C 
BRANCH  15  16
ATOM     16  C7  HNW d          14.019   2.662  20.330  0.00  0.00     0.258 C 
BRANCH  16  17
ATOM     17  O7  HNW d          14.686   2.287  21.487  0.00  0.00    -0.389 OA
ATOM     18  H11 HNW d          14.360   2.797  22.219  0.00  0.00     0.210 HD
ENDBRANCH  16  17
ENDBRANCH  15  16
ENDBRANCH  11  14
ENDBRANCH   7   8
ENDBRANCH   6   7
BRANCH   5  19
ATOM     19  O2  HNW d          15.563  -1.847   9.856  0.00  0.00    -0.388 OA
ATOM     20  H10 HNW d          16.042  -2.370   9.224  0.00  0.00     0.210 HD
ENDBRANCH   5  19
BRANCH   1  21
ATOM     21  C6  HNW d          16.379   2.361  10.911  0.00  0.00     0.198 C 
BRANCH  21  22
ATOM     22  O6  HNW d          15.634   2.459   9.732  0.00  0.00    -0.398 OA
ATOM     23  H1  HNW d          14.790   2.041   9.856  0.00  0.00     0.209 HD
ENDBRANCH  21  22
ENDBRANCH   1  21
BRANCH   4  24
ATOM     24  O3  HNW d          18.298  -1.971   9.805  0.00  0.00    -0.390 OA
ATOM     25  H8  HNW d          17.837  -1.940   8.975  0.00  0.00     0.210 HD
ENDBRANCH   4  24
BRANCH   3  26
ATOM     26  O4  HNW d          18.783   0.805  10.315  0.00  0.00    -0.390 OA
ATOM     27  H6  HNW d          19.335   0.329   9.706  0.00  0.00     0.210 HD
ENDBRANCH   3  26
TORSDOF 10
