REMARK  2 active torsions:
REMARK  status: ('A' for Active; 'I' for Inactive)
REMARK    1  A    between atoms: NAJ_2  and  SAK_4 
REMARK    2  A    between atoms: SAK_4  and  CAI_7 
ROOT
ATOM      1  SAK 0OC d          13.079   9.611   9.226  0.00  0.00     0.260 S 
ATOM      2  OAC 0OC d          12.420  11.009   9.013  0.00  0.00    -0.200 OA
ATOM      3  OAD 0OC d          12.319   8.550  10.009  0.00  0.00    -0.200 OA
ENDROOT
BRANCH   1   4
ATOM      4  NAJ 0OC d          13.795   8.957   7.700  0.00  0.00    -0.315 N 
ATOM      5  CAA 0OC d          13.816   9.884   6.556  0.00  0.00     0.162 C 
ATOM      6  CAB 0OC d          13.708   7.510   7.526  0.00  0.00     0.162 C 
ENDBRANCH   1   4
BRANCH   1   7
ATOM      7  CAI 0OC d          14.671   9.922  10.025  0.00  0.00     0.086 A 
ATOM      8  CAF 0OC d          15.516   8.922  10.426  0.00  0.00     0.033 A 
ATOM      9  CAE 0OC d          16.720   9.309  11.003  0.00  0.00     0.051 A 
ATOM     10  SAH 0OC d          16.522  11.095  11.020  0.00  0.00    -0.112 SA
ATOM     11  CAG 0OC d          14.969  11.215  10.288  0.00  0.00     0.074 A 
ENDBRANCH   1   7
TORSDOF 2
