REMARK  9 active torsions:
REMARK  status: ('A' for Active; 'I' for Inactive)
REMARK    1  A    between atoms: O3A_8  and  PB_1 
REMARK    2  A    between atoms: PA_5  and  O3A_8 
REMARK    3  A    between atoms: PA_5  and  O5_9 
REMARK    4  A    between atoms: O5_9  and  C5_10 
REMARK    5  A    between atoms: C5_10  and  C4_11 
REMARK    6  A    between atoms: C3_13  and  O3_14 
REMARK    7  A    between atoms: C2_15  and  O2_16 
REMARK    8  A    between atoms: C1_17  and  N9_18 
REMARK    9  A    between atoms: C6_22  and  N6_23 
ROOT
ATOM      1  C4  ADP d         -11.443  97.552  19.902  0.00  0.00     0.180 C 
ATOM      2  O4  ADP d         -12.553  96.818  20.479  0.00  0.00    -0.353 OA
ATOM      3  C3  ADP d         -10.284  96.572  19.982  0.00  0.00     0.182 C 
ATOM      4  C2  ADP d         -10.527  95.907  21.333  0.00  0.00     0.198 C 
ATOM      5  C1  ADP d         -12.056  95.824  21.361  0.00  0.00     0.262 C 
ENDROOT
BRANCH   5   6
ATOM      6  N9  ADP d         -12.549  94.518  20.923  0.00  0.00    -0.294 N 
ATOM      7  C8  ADP d         -12.672  94.034  19.644  0.00  0.00     0.214 A 
ATOM      8  N7  ADP d         -13.119  92.803  19.587  0.00  0.00    -0.236 NA
ATOM      9  C5  ADP d         -13.308  92.455  20.918  0.00  0.00     0.149 A 
ATOM     10  C6  ADP d         -13.767  91.277  21.533  0.00  0.00     0.155 A 
ATOM     11  C4  ADP d         -12.970  93.505  21.750  0.00  0.00     0.167 A 
ATOM     12  N1  ADP d         -13.840  91.260  22.884  0.00  0.00    -0.222 NA
ATOM     13  C2  ADP d         -13.478  92.359  23.558  0.00  0.00     0.237 A 
ATOM     14  N3  ADP d         -13.033  93.525  23.093  0.00  0.00    -0.222 NA
BRANCH  10  15
ATOM     15  N6  ADP d         -14.134  90.182  20.857  0.00  0.00    -0.382 N 
ATOM     16  H10 ADP d         -14.462  89.349  21.366  0.00  0.00     0.157 HD
ATOM     17  H11 ADP d         -14.088  90.172  19.828  0.00  0.00     0.157 HD
ENDBRANCH  10  15
ENDBRANCH   5   6
BRANCH   4  18
ATOM     18  O2  ADP d         -10.070  96.677  22.427  0.00  0.00    -0.388 OA
ATOM     19  H7  ADP d          -9.135  96.821  22.343  0.00  0.00     0.210 HD
ENDBRANCH   4  18
BRANCH   1  20
ATOM     20  C5  ADP d         -11.823  98.004  18.515  0.00  0.00     0.216 C 
BRANCH  20  21
ATOM     21  O5  ADP d         -12.092  96.880  17.691  0.00  0.00    -0.287 OA
BRANCH  21  22
ATOM     22  PA  ADP d         -11.571  96.826  16.187  0.00  0.00     0.418 P 
ATOM     23  O1A ADP d         -11.361  98.229  15.741  0.00  0.00    -0.624 OA
ATOM     24  O2A ADP d         -12.489  95.943  15.421  0.00  0.00    -0.624 OA
BRANCH  22  25
ATOM     25  O3A ADP d         -10.151  96.095  16.201  0.00  0.00    -0.173 OA
BRANCH  25  26
ATOM     26  PB  ADP d          -8.770  96.875  16.066  0.00  0.00     0.431 P 
ATOM     27  O1B ADP d          -8.835  97.675  14.816  0.00  0.00    -0.616 OA
ATOM     28  O2B ADP d          -7.687  95.875  16.228  0.00  0.00    -0.616 OA
ATOM     29  O3B ADP d          -8.676  97.894  17.288  0.00  0.00    -0.616 OA
ENDBRANCH  25  26
ENDBRANCH  22  25
ENDBRANCH  21  22
ENDBRANCH  20  21
ENDBRANCH   1  20
BRANCH   3  30
ATOM     30  O3  ADP d          -9.036  97.255  19.942  0.00  0.00    -0.390 OA
ATOM     31  H5  ADP d          -8.969  97.742  19.129  0.00  0.00     0.210 HD
ENDBRANCH   3  30
TORSDOF 9
