REMARK  5 active torsions:
REMARK  status: ('A' for Active; 'I' for Inactive)
REMARK    1  A    between atoms: C10_10  and  C5_5 
REMARK    2  A    between atoms: C7_7  and  C14_14 
REMARK    3  A    between atoms: C8_8  and  N17_17 
REMARK    4  A    between atoms: N17_17  and  S18_18 
REMARK    5  A    between atoms: S18_18  and  C20_20 
ROOT
ATOM      1  C1  CCT d          12.930  30.871  73.555  0.00  0.00     0.023 A 
ATOM      2  C2  CCT d          12.904  29.594  72.915  0.00  0.00     0.044 A 
ATOM      3  C3  CCT d          11.675  28.876  72.876  0.00  0.00     0.023 A 
ATOM      4  C4  CCT d          10.504  29.416  73.455  0.00  0.00     0.014 A 
ATOM      5  C5  CCT d          10.520  30.692  74.092  0.00  0.00    -0.019 A 
ATOM      6  C6  CCT d          11.753  31.411  74.134  0.00  0.00     0.014 A 
ATOM      7  C12 CCT d          14.083  29.040  72.318  0.00  0.00     0.099 C 
ATOM      8  N13 CCT d          15.043  28.581  71.811  0.00  0.00    -0.191 NA
ENDROOT
BRANCH   5   9
ATOM      9  C10 CCT d           9.277  31.234  74.669  0.00  0.00     0.018 A 
ATOM     10  C9  CCT d           9.108  32.061  75.768  0.00  0.00     0.051 A 
ATOM     11  C8  CCT d           7.733  32.392  76.033  0.00  0.00     0.068 A 
ATOM     12  C7  CCT d           6.884  31.797  75.111  0.00  0.00     0.109 A 
ATOM     13  S11 CCT d           7.757  30.874  73.982  0.00  0.00    -0.080 SA
BRANCH  11  14
ATOM     14  N17 CCT d           7.301  33.237  77.137  0.00  0.00    -0.279 N 
ATOM     15  H6  CCT d           6.417  33.069  77.573  0.00  0.00     0.179 HD
BRANCH  14  16
ATOM     16  S18 CCT d           8.282  34.502  77.689  0.00  0.00     0.263 S 
ATOM     17  O26 CCT d           9.481  33.897  78.252  0.00  0.00    -0.200 OA
ATOM     18  O27 CCT d           7.483  35.183  78.686  0.00  0.00    -0.200 OA
BRANCH  16  19
ATOM     19  C20 CCT d           8.733  35.682  76.427  0.00  0.00     0.085 A 
ATOM     20  C19 CCT d           7.775  36.467  75.711  0.00  0.00    -0.039 A 
ATOM     21  C24 CCT d           8.246  37.387  74.720  0.00  0.00     0.008 A 
ATOM     22  C25 CCT d           6.286  36.367  75.952  0.00  0.00     0.050 C 
ATOM     23  C23 CCT d           9.635  37.525  74.450  0.00  0.00     0.001 A 
ATOM     24  C22 CCT d          10.578  36.740  75.166  0.00  0.00     0.002 A 
ATOM     25  C21 CCT d          10.125  35.830  76.146  0.00  0.00     0.026 A 
ENDBRANCH  16  19
ENDBRANCH  14  16
ENDBRANCH  11  14
BRANCH  12  26
ATOM     26  C14 CCT d           5.402  31.944  75.107  0.00  0.00     0.219 C 
ATOM     27  O15 CCT d           4.768  31.230  74.313  0.00  0.00    -0.643 OA
ATOM     28  O16 CCT d           4.868  32.787  75.871  0.00  0.00    -0.643 OA
ENDBRANCH  12  26
ENDBRANCH   5   9
TORSDOF 5
