REMARK  3 active torsions:
REMARK  status: ('A' for Active; 'I' for Inactive)
REMARK       I    between atoms: CAM_13  and  NAJ_10 
REMARK    1  A    between atoms: NAJ_10  and  SAR_18 
REMARK    2  A    between atoms: CAN_14  and  OAL_12 
REMARK    3  A    between atoms: CAM_13  and  CAO_15 
ROOT
ATOM      1  CAF A8D d          14.686  10.160  -4.768  0.00  0.00     0.039 A 
ATOM      2  CAG A8D d          15.685  10.458  -3.823  0.00  0.00     0.033 A 
ATOM      3  CAH A8D d          13.097   9.972  -2.952  0.00  0.00     0.050 A 
ATOM      4  CAI A8D d          14.139  10.401  -0.728  0.00  0.00     0.049 A 
ATOM      5  NAK A8D d          16.171  10.782  -1.472  0.00  0.00    -0.351 N 
ATOM      6  CAN A8D d          13.371   9.915  -4.352  0.00  0.00     0.069 A 
ATOM      7  CAO A8D d          15.397  10.717  -0.358  0.00  0.00     0.103 A 
ATOM      8  CAP A8D d          14.115  10.249  -2.070  0.00  0.00    -0.004 A 
ATOM      9  CAQ A8D d          15.383  10.502  -2.525  0.00  0.00     0.043 A 
ATOM     10  H12 A8D d          17.176  11.005  -1.504  0.00  0.00     0.166 HD
ENDROOT
BRANCH   7  11
ATOM     11  CAM A8D d          15.873  10.974   0.911  0.00  0.00     0.281 C 
ATOM     12  OAC A8D d          17.038  11.377   1.080  0.00  0.00    -0.265 OA
ATOM     13  NAJ A8D d          14.993  10.807   1.947  0.00  0.00    -0.249 N 
ATOM     14  H11 A8D d          14.066  10.475   1.772  0.00  0.00     0.182 HD
BRANCH  13  15
ATOM     15  SAR A8D d          15.506  11.182   3.593  0.00  0.00     0.229 S 
ATOM     16  CAB A8D d          14.282  10.541   4.706  0.00  0.00     0.186 C 
ATOM     17  OAD A8D d          16.801  10.492   3.829  0.00  0.00    -0.206 OA
ATOM     18  OAE A8D d          15.736  12.705   3.640  0.00  0.00    -0.206 OA
ENDBRANCH  13  15
ENDBRANCH   7  11
BRANCH   6  19
ATOM     19  OAL A8D d          12.486   9.588  -5.344  0.00  0.00    -0.356 OA
ATOM     20  CAA A8D d          11.040   9.566  -5.206  0.00  0.00     0.210 C 
ENDBRANCH   6  19
TORSDOF 3
