REMARK  18 active torsions:
REMARK  status: ('A' for Active; 'I' for Inactive)
REMARK    1  A    between atoms: CBB_7  and  CBP_6 
REMARK    2  A    between atoms: OBJ_8  and  CBB_7 
REMARK    3  A    between atoms: CBM_9  and  OBJ_8 
REMARK       I    between atoms: NBI_11  and  CBM_9 
REMARK    4  A    between atoms: CBX_12  and  NBI_11 
REMARK    5  A    between atoms: CBX_12  and  CBE_13 
REMARK    6  A    between atoms: PBY_20  and  CBX_12 
REMARK    7  A    between atoms: CBE_13  and  CBQ_14 
REMARK    8  A    between atoms: CBF_36  and  PBY_20 
REMARK    9  A    between atoms: N_23  and  CA_24 
REMARK       I    between atoms: CBN_38  and  N_23 
REMARK   10  A    between atoms: CA_24  and  C_25 
REMARK   11  A    between atoms: CA_24  and  CB_28 
REMARK   12  A    between atoms: CB_28  and  CG_29 
REMARK   13  A    between atoms: CZ_32  and  OH_33 
REMARK   14  A    between atoms: CBV_37  and  CBF_36 
REMARK   15  A    between atoms: CBV_37  and  CBN_38 
REMARK   16  A    between atoms: CBV_37  and  CBC_40 
REMARK   17  A    between atoms: CBC_40  and  CBS_41 
REMARK   18  A    between atoms: CBU_45  and  CBT_46 
ROOT
ATOM      1  CBV MOL d           2.478 -15.655 -23.349  0.00  0.00     0.093 C 
ENDROOT
BRANCH   1   2
ATOM      2  CBF MOL d           1.082 -15.992 -23.943  0.00  0.00     0.120 C 
BRANCH   2   3
ATOM      3  PBY MOL d           0.052 -17.125 -22.957  0.00  0.00     0.130 P 
ATOM      4  OAG MOL d           0.280 -18.592 -23.514  0.00  0.00    -0.666 OA
ATOM      5  OAD MOL d           0.147 -17.060 -21.472  0.00  0.00    -0.666 OA
BRANCH   3   6
ATOM      6  CBX MOL d          -1.689 -16.717 -23.410  0.00  0.00     0.182 C 
BRANCH   6   7
ATOM      7  NBI MOL d          -2.544 -17.610 -22.637  0.00  0.00    -0.322 N 
ATOM      8  CBM MOL d          -3.141 -18.720 -23.102  0.00  0.00     0.361 C 
ATOM      9  OAB MOL d          -3.041 -19.149 -24.259  0.00  0.00    -0.238 OA
ATOM     10  H8  MOL d          -2.700 -17.376 -21.677  0.00  0.00     0.165 HD
BRANCH   8  11
ATOM     11  OBJ MOL d          -3.962 -19.324 -22.200  0.00  0.00    -0.299 OA
BRANCH  11  12
ATOM     12  CBB MOL d          -4.087 -20.739 -22.106  0.00  0.00     0.219 C 
BRANCH  12  13
ATOM     13  CBP MOL d          -4.728 -21.179 -20.942  0.00  0.00    -0.034 A 
ATOM     14  CAQ MOL d          -4.238 -20.774 -19.695  0.00  0.00     0.009 A 
ATOM     15  CAK MOL d          -4.875 -21.187 -18.526  0.00  0.00     0.001 A 
ATOM     16  CAH MOL d          -6.006 -22.001 -18.598  0.00  0.00     0.000 A 
ATOM     17  CAL MOL d          -6.507 -22.398 -19.838  0.00  0.00     0.001 A 
ATOM     18  CAR MOL d          -5.870 -21.986 -21.011  0.00  0.00     0.009 A 
ENDBRANCH  12  13
ENDBRANCH  11  12
ENDBRANCH   8  11
ENDBRANCH   6   7
BRANCH   6  19
ATOM     19  CBE MOL d          -2.069 -15.251 -23.042  0.00  0.00     0.074 C 
BRANCH  19  20
ATOM     20  CBQ MOL d          -3.574 -14.909 -23.284  0.00  0.00    -0.056 A 
ATOM     21  CAS MOL d          -4.016 -14.471 -24.535  0.00  0.00     0.007 A 
ATOM     22  CAM MOL d          -5.365 -14.165 -24.773  0.00  0.00     0.001 A 
ATOM     23  CAI MOL d          -6.308 -14.282 -23.752  0.00  0.00     0.000 A 
ATOM     24  CAN MOL d          -5.873 -14.725 -22.501  0.00  0.00     0.001 A 
ATOM     25  CAT MOL d          -4.518 -15.033 -22.264  0.00  0.00     0.007 A 
ENDBRANCH  19  20
ENDBRANCH   6  19
ENDBRANCH   3   6
ENDBRANCH   2   3
ENDBRANCH   1   2
BRANCH   1  26
ATOM     26  CBN MOL d           2.331 -14.641 -22.190  0.00  0.00     0.223 C 
ATOM     27  N   MOL d           3.317 -14.601 -21.277  0.00  0.00    -0.346 N 
ATOM     28  H17 MOL d           4.062 -15.267 -21.320  0.00  0.00     0.163 HD
ATOM     29  OAC MOL d           1.383 -13.851 -22.183  0.00  0.00    -0.273 OA
BRANCH  27  30
ATOM     30  CA  MOL d           3.306 -13.574 -20.205  0.00  0.00     0.189 C 
BRANCH  30  31
ATOM     31  C   MOL d           3.815 -12.263 -20.824  0.00  0.00     0.197 C 
ATOM     32  OXT MOL d           4.195 -12.314 -22.015  0.00  0.00    -0.646 OA
ATOM     33  O   MOL d           3.817 -11.239 -20.107  0.00  0.00    -0.646 OA
ENDBRANCH  30  31
BRANCH  30  34
ATOM     34  CB  MOL d           4.130 -13.950 -18.957  0.00  0.00     0.074 C 
BRANCH  34  35
ATOM     35  CG  MOL d           5.284 -14.935 -19.183  0.00  0.00    -0.056 A 
ATOM     36  CD1 MOL d           6.589 -14.480 -19.385  0.00  0.00     0.010 A 
ATOM     37  CE1 MOL d           7.632 -15.395 -19.574  0.00  0.00     0.037 A 
ATOM     38  CZ  MOL d           7.364 -16.768 -19.556  0.00  0.00     0.065 A 
ATOM     39  CE2 MOL d           6.061 -17.219 -19.348  0.00  0.00     0.037 A 
ATOM     40  CD2 MOL d           5.027 -16.304 -19.158  0.00  0.00     0.010 A 
BRANCH  38  41
ATOM     41  OH  MOL d           8.361 -17.689 -19.743  0.00  0.00    -0.361 OA
ATOM     42  H23 MOL d           7.995 -18.564 -19.698  0.00  0.00     0.217 HD
ENDBRANCH  38  41
ENDBRANCH  34  35
ENDBRANCH  30  34
ENDBRANCH  27  30
ENDBRANCH   1  26
BRANCH   1  43
ATOM     43  CBC MOL d           3.246 -16.930 -22.968  0.00  0.00     0.082 C 
BRANCH  43  44
ATOM     44  CBS MOL d           4.788 -16.859 -23.011  0.00  0.00     0.082 A 
ATOM     45  CBA MOL d           5.646 -15.843 -23.130  0.00  0.00     0.069 A 
ATOM     46  CBU MOL d           6.906 -16.329 -23.086  0.00  0.00     0.097 A 
ATOM     47  NBG MOL d           6.874 -17.649 -22.922  0.00  0.00    -0.128 NA
ATOM     48  OBK MOL d           5.515 -18.000 -22.877  0.00  0.00    -0.217 OA
BRANCH  46  49
ATOM     49  CBT MOL d           8.094 -15.614 -23.153  0.00  0.00    -0.005 A 
ATOM     50  CAU MOL d           8.094 -14.230 -23.347  0.00  0.00     0.014 A 
ATOM     51  CAO MOL d           9.314 -13.544 -23.390  0.00  0.00     0.001 A 
ATOM     52  CAJ MOL d          10.516 -14.236 -23.221  0.00  0.00     0.000 A 
ATOM     53  CAP MOL d          10.523 -15.619 -23.019  0.00  0.00     0.001 A 
ATOM     54  CAV MOL d           9.308 -16.309 -22.978  0.00  0.00     0.014 A 
ENDBRANCH  46  49
ENDBRANCH  43  44
ENDBRANCH   1  43
TORSDOF 18
