REMARK  3 active torsions:
REMARK  status: ('A' for Active; 'I' for Inactive)
REMARK    1  A    between atoms: C3_3  and  C7_10 
REMARK    2  A    between atoms: C5_5  and  N2_8 
REMARK    3  A    between atoms: C6_6  and  N1_7 
ROOT
ATOM      1  C1  UFV d          90.951  88.859 -41.631  0.00  0.00     0.040 A 
ATOM      2  C2  UFV d          92.171  89.480 -41.443  0.00  0.00     0.037 A 
ATOM      3  C3  UFV d          92.371  90.777 -41.877  0.00  0.00     0.051 A 
ATOM      4  C4  UFV d          91.333  91.433 -42.518  0.00  0.00     0.047 A 
ATOM      5  C5  UFV d          90.103  90.809 -42.718  0.00  0.00     0.054 A 
ATOM      6  C6  UFV d          89.903  89.505 -42.270  0.00  0.00     0.070 A 
ATOM      7 BR   UFV d          90.683  87.056 -40.976  0.00  0.00    -0.049 Br
ENDROOT
BRANCH   3   8
ATOM      8  C7  UFV d          93.691  91.449 -41.681  0.00  0.00     0.417 C 
ATOM      9  F1  UFV d          94.169  91.811 -42.866  0.00  0.00    -0.166 F 
ATOM     10  F2  UFV d          94.536  90.609 -41.097  0.00  0.00    -0.166 F 
ATOM     11  F3  UFV d          93.580  92.520 -40.900  0.00  0.00    -0.166 F 
ENDBRANCH   3   8
BRANCH   5  12
ATOM     12  N2  UFV d          89.045  91.505 -43.376  0.00  0.00    -0.397 N 
ATOM     13  H5  UFV d          89.191  92.469 -43.708  0.00  0.00     0.156 HD
ATOM     14  H6  UFV d          88.135  91.043 -43.519  0.00  0.00     0.156 HD
ENDBRANCH   5  12
BRANCH   6  15
ATOM     15  N1  UFV d          88.658  88.827 -42.476  0.00  0.00    -0.396 N 
ATOM     16  H3  UFV d          88.534  87.863 -42.136  0.00  0.00     0.156 HD
ATOM     17  H4  UFV d          87.887  89.304 -42.965  0.00  0.00     0.156 HD
ENDBRANCH   6  15
TORSDOF 3
