REMARK  4 active torsions:
REMARK  status: ('A' for Active; 'I' for Inactive)
REMARK    1  A    between atoms: C1_7  and  C18_4 
REMARK    2  A    between atoms: C10_18  and  C11_10 
REMARK    3  A    between atoms: C14_15  and  O17_16 
REMARK    4  A    between atoms: C10_18  and  C9_19 
ROOT
ATOM      1  N5  F47 d          18.226  10.799  39.210  0.00  0.00    -0.041 N 
ATOM      2  N7  F47 d          17.667  11.291  37.200  0.00  0.00     0.047 NA
ATOM      3  C1  F47 d          18.037  12.232  41.150  0.00  0.00     0.106 A 
ATOM      4  C2  F47 d          17.494  13.209  40.252  0.00  0.00     0.170 A 
ATOM      5  C6  F47 d          17.702  11.793  38.441  0.00  0.00     0.769 A 
ATOM      6  N3  F47 d          17.341  12.975  38.951  0.00  0.00    -0.069 NA
ATOM      7  C9  F47 d          18.495   9.748  38.478  0.00  0.00     0.173 A 
ATOM      8  N4  F47 d          18.401  11.027  40.629  0.00  0.00    -0.149 NA
ATOM      9  N8  F47 d          18.166  10.029  37.275  0.00  0.00    -0.117 NA
ENDROOT
BRANCH   7  10
ATOM     10  C10 F47 d          19.090   8.452  39.013  0.00  0.00     0.121 C 
BRANCH  10  11
ATOM     11  C11 F47 d          20.496   8.509  39.452  0.00  0.00    -0.051 A 
ATOM     12  C12 F47 d          21.588   8.496  38.489  0.00  0.00     0.010 A 
ATOM     13  C13 F47 d          22.939   8.549  38.925  0.00  0.00     0.037 A 
ATOM     14  C14 F47 d          23.272   8.614  40.271  0.00  0.00     0.065 A 
ATOM     15  C15 F47 d          22.199   8.629  41.238  0.00  0.00     0.037 A 
ATOM     16  C16 F47 d          20.802   8.578  40.857  0.00  0.00     0.010 A 
BRANCH  14  17
ATOM     17  O17 F47 d          24.622   8.661  40.630  0.00  0.00    -0.361 OA
ATOM     18  H7  F47 d          25.158   8.641  39.846  0.00  0.00     0.217 HD
ENDBRANCH  14  17
ENDBRANCH  10  11
ENDBRANCH   7  10
BRANCH   3  19
ATOM     19  C18 F47 d          18.229  12.483  42.627  0.00  0.00    -0.004 A 
ATOM     20  C23 F47 d          17.627  13.624  43.275  0.00  0.00     0.017 A 
ATOM     21  C22 F47 d          17.858  13.796  44.644  0.00  0.00     0.043 A 
ATOM     22  C21 F47 d          18.641  12.892  45.336  0.00  0.00     0.116 A 
ATOM     23  F24 F47 d          18.822  13.134  46.686  0.00  0.00    -0.206 F 
ATOM     24  C20 F47 d          19.249  11.759  44.733  0.00  0.00     0.043 A 
ATOM     25  C19 F47 d          19.028  11.568  43.357  0.00  0.00     0.017 A 
ENDBRANCH   3  19
TORSDOF 4
