REMARK  2 active torsions:
REMARK  status: ('A' for Active; 'I' for Inactive)
REMARK    1  A    between atoms: N1_3  and  C4_6 
REMARK    2  A    between atoms: C4_6  and  C5_7 
ROOT
ATOM      1  C5  MOL d           8.662  14.445 -17.251  0.00  0.00    -0.040 A 
ATOM      2  C6  MOL d           7.310  14.453 -17.239  0.00  0.00     0.009 A 
ATOM      3  C7  MOL d           9.377  15.340 -18.031  0.00  0.00     0.009 A 
ATOM      4  C8  MOL d           6.568  15.375 -17.988  0.00  0.00     0.001 A 
ATOM      5  C9  MOL d           8.702  16.322 -18.750  0.00  0.00     0.001 A 
ATOM      6  C10 MOL d           7.294  16.302 -18.688  0.00  0.00     0.000 A 
ENDROOT
BRANCH   1   7
ATOM      7  C4  MOL d           9.462  13.460 -16.518  0.00  0.00     0.167 C 
BRANCH   7   8
ATOM      8  N1  MOL d           8.919  13.174 -15.145  0.00  0.00    -0.346 N 
ATOM      9  C1  MOL d           8.663  11.959 -14.669  0.00  0.00     0.111 A 
ATOM     10  C2  MOL d           8.332  12.065 -13.369  0.00  0.00     0.135 A 
ATOM     11  N2  MOL d           8.384  13.399 -13.038  0.00  0.00    -0.255 NA
ATOM     12  C3  MOL d           8.776  14.035 -14.116  0.00  0.00     0.209 A 
ENDBRANCH   7   8
ENDBRANCH   1   7
TORSDOF 2
