3r6c_ligand

Created by X-TOOL on Fri Sep 26 17:34:55 2014
 35 38  0  0  0  0  0  0  0  0999 V2000
   10.3760   -6.1330   24.6970  C 0  0  0  4  0  4
    2.6230   -4.8880   30.0280  O 0  0  0  1  0  1
    4.1220   -4.1620   27.6140  O 0  0  0  1  0  1
    2.8150   -6.6300   28.6580  O 0  0  0  1  0  1
    4.3780   -5.9230   25.9140  O 0  0  0  1  0  1
   10.5520   -7.1870   28.7120  C 0  0  0  2  0  3
   10.5110   -6.7710   27.3790  C 0  0  0  2  0  3
    9.4060   -7.1530   29.5060  C 0  0  0  2  0  3
    4.7010   -6.6210   31.2930  C 0  0  0  2  0  3
    6.9980   -5.8390   27.0790  C 0  0  0  2  0  3
    7.5680   -7.2840   33.2050  C 0  0  0  3  0  4
    9.2160   -5.8790   25.5240  O 0  0  0  1  0  2
    6.1660   -7.5030   33.0910  O 0  0  0  1  0  2
    8.0440   -7.5620   31.8670  O 0  0  0  1  0  2
    3.2760   -5.8030   29.4990  C 0  5  0  1  0  3
    5.8870   -7.0600   31.8450  C 0  0  0  1  0  3
    9.3170   -6.3130   26.8290  C 0  0  0  1  0  3
    4.6620   -6.1910   29.9830  C 0  0  0  1  0  3
    5.8260   -5.8060   27.8130  C 0  0  0  1  0  3
    7.0390   -7.0930   31.0760  C 0  0  0  1  0  3
    8.1780   -6.2880   27.6360  C 0  0  0  1  0  3
    8.1990   -6.7000   28.9710  C 0  0  0  1  0  3
    5.8130   -6.2150   29.1690  C 0  0  0  1  0  3
    7.0200   -6.6620   29.7410  C 0  0  0  1  0  3
    4.7720   -5.3390   27.1420  C 0  5  0  1  0  3
   10.1935   -5.7505   23.6819  H 0  0  0  1  0  1
   10.5645   -7.2158   24.6524  H 0  0  0  1  0  1
   11.2518   -5.6258   25.1280  H 0  0  0  1  0  1
   11.4857   -7.5404   29.1342  H 0  0  0  1  0  1
   11.4091   -6.8049   26.7729  H 0  0  0  1  0  1
    9.4526   -7.4785   30.5389  H 0  0  0  1  0  1
    3.7968   -6.6140   31.8909  H 0  0  0  1  0  1
    6.9893   -5.5061   26.0474  H 0  0  0  1  0  1
    8.0184   -7.9708   33.9367  H 0  0  0  1  0  1
    7.7848   -6.2453   33.4951  H 0  0  0  1  0  1
 12  1  1  0  0  2
 15  2  2  0  0  2
 25  3  2  0  0  2
 15  4  2  0  0  2
 25  5  2  0  0  2
  7  6  4  0  0  1
  6  8  4  0  0  1
 17  7  4  0  0  1
  8 22  4  0  0  1
  9 16  4  0  0  1
 18  9  4  0  0  1
 19 10  4  0  0  1
 10 21  4  0  0  1
 13 11  1  0  0  1
 14 11  1  0  0  1
 17 12  1  0  0  2
 16 13  1  0  0  1
 20 14  1  0  0  1
 18 15  1  0  0  2
 16 20  4  0  0  1
 21 17  4  0  0  1
 23 18  4  0  0  1
 19 23  4  0  0  1
 19 25  1  0  0  2
 20 24  4  0  0  1
 21 22  4  0  0  1
 22 24  4  0  0  1
 23 24  4  0  0  1
  1 26  1  0  0  2
  1 27  1  0  0  2
  1 28  1  0  0  2
  6 29  1  0  0  2
  7 30  1  0  0  2
  8 31  1  0  0  2
  9 32  1  0  0  2
 10 33  1  0  0  2
 11 34  1  0  0  2
 11 35  1  0  0  2
M  END
> <MOLECULAR_FORMULA>
C18H10O7

> <MOLECULAR_WEIGHT>
338.2

> <NUM_HB_ATOMS>
7  

> <NUM_ROTOR>
1  

> <XLOGP2>
2.81 

$$$$
