REMARK  6 active torsions:
REMARK  status: ('A' for Active; 'I' for Inactive)
REMARK    1  A    between atoms: CBE_2  and  NBF_4 
REMARK    2  A    between atoms: C6_10  and  NAC_11 
REMARK    3  A    between atoms: CAZ_13  and  CAY_14 
REMARK    4  A    between atoms: CAW_23  and  OAT_24 
REMARK    5  A    between atoms: OAT_24  and  CAP_25 
REMARK    6  A    between atoms: CAP_25  and  CAV_26 
ROOT
ATOM      1  CAY I76 d          13.123  15.023  63.877  0.00  0.00    -0.004 A 
ATOM      2  CAO I76 d          12.627  14.367  65.003  0.00  0.00     0.026 A 
ATOM      3  CAI I76 d          12.215  15.775  63.103  0.00  0.00     0.015 A 
ATOM      4  CAK I76 d          10.855  15.813  63.426  0.00  0.00     0.013 A 
ATOM      5  CBA I76 d          10.364  15.128  64.522  0.00  0.00    -0.023 A 
ATOM      6  CAN I76 d           9.016  15.170  64.833  0.00  0.00     0.049 A 
ATOM      7  CBB I76 d          11.266  14.412  65.327  0.00  0.00    -0.025 A 
ATOM      8  CAJ I76 d          10.791  13.728  66.427  0.00  0.00     0.015 A 
ATOM      9  CAH I76 d           9.442  13.765  66.738  0.00  0.00     0.037 A 
ATOM     10  CAW I76 d           8.544  14.489  65.943  0.00  0.00     0.070 A 
ENDROOT
BRANCH   1  11
ATOM     11  CAZ I76 d          14.486  15.010  63.505  0.00  0.00     0.105 A 
ATOM     12  NAS I76 d          15.247  16.071  63.193  0.00  0.00    -0.169 NA
ATOM     13  NBF I76 d          16.395  15.705  62.879  0.00  0.00    -0.247 N 
ATOM     14  C4  I76 d          16.524  14.388  62.905  0.00  0.00     0.164 A 
ATOM     15  N3  I76 d          17.570  13.581  62.650  0.00  0.00    -0.222 NA
ATOM     16  C5  I76 d          15.295  13.870  63.307  0.00  0.00     0.088 A 
ATOM     17  C2  I76 d          17.431  12.271  62.775  0.00  0.00     0.237 A 
ATOM     18  N1  I76 d          16.280  11.715  63.141  0.00  0.00    -0.224 NA
ATOM     19  C6  I76 d          15.195  12.477  63.418  0.00  0.00     0.139 A 
BRANCH  13  20
ATOM     20  CBE I76 d          17.516  16.588  62.477  0.00  0.00     0.104 C 
ATOM     21  CAA I76 d          17.533  17.872  63.304  0.00  0.00     0.034 C 
ATOM     22  CAB I76 d          17.414  16.915  60.969  0.00  0.00     0.034 C 
ENDBRANCH  13  20
BRANCH  19  23
ATOM     23  NAC I76 d          14.069  11.845  63.777  0.00  0.00    -0.383 N 
ATOM     24  H9  I76 d          13.221  12.388  63.996  0.00  0.00     0.157 HD
ATOM     25  H10 I76 d          14.051  10.817  63.834  0.00  0.00     0.157 HD
ENDBRANCH  19  23
ENDBRANCH   1  11
BRANCH  10  26
ATOM     26  OAT I76 d           7.230  14.470  66.322  0.00  0.00    -0.347 OA
BRANCH  26  27
ATOM     27  CAP I76 d           6.145  14.877  65.439  0.00  0.00     0.214 C 
BRANCH  27  28
ATOM     28  CAV I76 d           4.888  15.065  66.069  0.00  0.00    -0.033 A 
ATOM     29  CAM I76 d           3.824  15.687  65.408  0.00  0.00     0.033 A 
ATOM     30  CAU I76 d           2.629  15.880  66.093  0.00  0.00     0.034 A 
ATOM     31 CLD  I76 d           1.321  16.641  65.272  0.00  0.00    -0.084 Cl
ATOM     32  CAF I76 d           2.461  15.482  67.410  0.00  0.00     0.024 A 
ATOM     33  CAE I76 d           3.526  14.871  68.074  0.00  0.00     0.002 A 
ATOM     34  CAG I76 d           4.712  14.680  67.398  0.00  0.00     0.009 A 
ENDBRANCH  27  28
ENDBRANCH  26  27
ENDBRANCH  10  26
TORSDOF 6
