REMARK  9 active torsions:
REMARK  status: ('A' for Active; 'I' for Inactive)
REMARK    1  A    between atoms: P1_1  and  O1_5 
REMARK    2  A    between atoms: O1_5  and  C1_6 
REMARK    3  A    between atoms: C1_6  and  C2_7 
REMARK    4  A    between atoms: C2_7  and  O2_8 
REMARK    5  A    between atoms: C3_9  and  O3_10 
REMARK    6  A    between atoms: C4_11  and  O4_12 
REMARK    7  A    between atoms: C5_13  and  C6_15 
REMARK    8  A    between atoms: C6_15  and  O6_16 
REMARK    9  A    between atoms: O6_16  and  P2_17 
ROOT
ATOM      1  C2  FBP d          11.992  -0.750   4.246  0.00  0.00     0.213 C 
ATOM      2  C3  FBP d          13.041   0.199   4.789  0.00  0.00     0.213 C 
ATOM      3  C4  FBP d          13.878  -0.722   5.648  0.00  0.00     0.183 C 
ATOM      4  C5  FBP d          13.856  -1.960   4.769  0.00  0.00     0.181 C 
ATOM      5  O5  FBP d          12.688  -1.932   3.953  0.00  0.00    -0.341 OA
ENDROOT
BRANCH   1   6
ATOM      6  C1  FBP d          11.193  -0.239   3.050  0.00  0.00     0.253 C 
BRANCH   6   7
ATOM      7  O1  FBP d          11.982  -0.007   1.909  0.00  0.00    -0.277 OA
BRANCH   7   8
ATOM      8  P1  FBP d          11.418   1.053   0.833  0.00  0.00     0.422 P 
ATOM      9  O1P FBP d          11.105   2.334   1.589  0.00  0.00    -0.617 OA
ATOM     10  O2P FBP d          10.190   0.519   0.115  0.00  0.00    -0.617 OA
ATOM     11  O3P FBP d          12.497   1.305  -0.212  0.00  0.00    -0.617 OA
ENDBRANCH   7   8
ENDBRANCH   6   7
ENDBRANCH   1   6
BRANCH   1  12
ATOM     12  O2  FBP d          11.067  -1.068   5.313  0.00  0.00    -0.362 OA
ATOM     13  H3  FBP d          11.552  -1.373   6.071  0.00  0.00     0.213 HD
ENDBRANCH   1  12
BRANCH   2  14
ATOM     14  O3  FBP d          12.505   1.258   5.536  0.00  0.00    -0.387 OA
ATOM     15  H5  FBP d          12.025   0.909   6.278  0.00  0.00     0.210 HD
ENDBRANCH   2  14
BRANCH   3  16
ATOM     16  O4  FBP d          15.198  -0.242   5.683  0.00  0.00    -0.390 OA
ATOM     17  H7  FBP d          15.729  -0.817   6.222  0.00  0.00     0.210 HD
ENDBRANCH   3  16
BRANCH   4  18
ATOM     18  C6  FBP d          13.999  -3.271   5.492  0.00  0.00     0.217 C 
BRANCH  18  19
ATOM     19  O6  FBP d          13.991  -4.262   4.489  0.00  0.00    -0.280 OA
BRANCH  19  20
ATOM     20  P2  FBP d          14.276  -5.783   4.842  0.00  0.00     0.422 P 
ATOM     21  O4P FBP d          15.671  -5.907   5.414  0.00  0.00    -0.617 OA
ATOM     22  O5P FBP d          14.092  -6.564   3.559  0.00  0.00    -0.617 OA
ATOM     23  O6P FBP d          13.240  -6.152   5.860  0.00  0.00    -0.617 OA
ENDBRANCH  19  20
ENDBRANCH  18  19
ENDBRANCH   4  18
TORSDOF 9
