REMARK  3 active torsions:
REMARK  status: ('A' for Active; 'I' for Inactive)
REMARK    1  A    between atoms: C7_2  and  C2_4 
REMARK    2  A    between atoms: C4_8  and  O11_9 
REMARK    3  A    between atoms: C3_10  and  N10_11 
ROOT
ATOM      1  C2  MOL d           7.309  31.016  21.591  0.00  0.00     0.069 A 
ATOM      2  C1  MOL d           6.755  32.121  20.921  0.00  0.00     0.021 A 
ATOM      3  C6  MOL d           6.414  31.989  19.559  0.00  0.00     0.004 A 
ATOM      4  C5  MOL d           6.628  30.812  18.883  0.00  0.00     0.039 A 
ATOM      5  C4  MOL d           7.194  29.728  19.552  0.00  0.00     0.092 A 
ATOM      6  C3  MOL d           7.553  29.818  20.943  0.00  0.00     0.076 A 
ENDROOT
BRANCH   1   7
ATOM      7  C7  MOL d           7.591  31.168  23.052  0.00  0.00     0.211 C 
ATOM      8  O8  MOL d           8.160  30.258  23.694  0.00  0.00    -0.644 OA
ATOM      9  O9  MOL d           7.189  32.236  23.611  0.00  0.00    -0.644 OA
ENDBRANCH   1   7
BRANCH   6  10
ATOM     10  N10 MOL d           8.188  28.684  21.498  0.00  0.00    -0.396 N 
ATOM     11  H5  MOL d           8.470  28.685  22.489  0.00  0.00     0.156 HD
ATOM     12  H6  MOL d           8.369  27.857  20.912  0.00  0.00     0.156 HD
ENDBRANCH   6  10
BRANCH   5  13
ATOM     13  O11 MOL d           7.398  28.541  18.940  0.00  0.00    -0.358 OA
ATOM     14  H4  MOL d           7.790  27.932  19.555  0.00  0.00     0.217 HD
ENDBRANCH   5  13
TORSDOF 3
