REMARK  7 active torsions:
REMARK  status: ('A' for Active; 'I' for Inactive)
REMARK    1  A    between atoms: O5'_1  and  C5'_2 
REMARK    2  A    between atoms: C5'_2  and  C4'_3 
REMARK    3  A    between atoms: C3'_4  and  O3'_5 
REMARK    4  A    between atoms: N4'_6  and  C7_10 
REMARK    5  A    between atoms: C2'_8  and  O2'_9 
REMARK    6  A    between atoms: C7_10  and  C9_11 
REMARK    7  A    between atoms: C6_16  and  N6_17 
ROOT
ATOM      1  C7  AGV d           6.601  21.497  20.824  0.00  0.00     0.278 C 
ENDROOT
BRANCH   1   2
ATOM      2  N4' AGV d           6.777  20.099  20.180  0.00  0.00    -0.056 N 
ATOM      3  C4' AGV d           6.690  19.970  18.675  0.00  0.00     0.243 C 
ATOM      4  C3' AGV d           6.711  18.447  18.484  0.00  0.00     0.181 C 
ATOM      5  C2' AGV d           6.211  17.857  19.810  0.00  0.00     0.174 C 
ATOM      6  C1' AGV d           5.944  18.983  20.726  0.00  0.00     0.270 C 
ATOM      7  H7  AGV d           7.729  19.862  20.410  0.00  0.00     0.281 HD
BRANCH   3   8
ATOM      8  C5' AGV d           5.485  20.652  18.045  0.00  0.00     0.200 C 
BRANCH   8   9
ATOM      9  O5' AGV d           5.581  22.070  17.897  0.00  0.00    -0.399 OA
ATOM     10  H1  AGV d           4.785  22.400  17.497  0.00  0.00     0.209 HD
ENDBRANCH   8   9
ENDBRANCH   3   8
BRANCH   4  11
ATOM     11  O3' AGV d           8.017  17.985  18.143  0.00  0.00    -0.391 OA
ATOM     12  H6  AGV d           8.623  18.211  18.838  0.00  0.00     0.210 HD
ENDBRANCH   4  11
BRANCH   5  13
ATOM     13  O2' AGV d           7.171  16.983  20.436  0.00  0.00    -0.391 OA
ATOM     14  H11 AGV d           7.973  17.464  20.605  0.00  0.00     0.210 HD
ENDBRANCH   5  13
ENDBRANCH   1   2
BRANCH   1  15
ATOM     15  C9  AGV d           5.217  21.744  21.347  0.00  0.00     0.014 A 
ATOM     16  C8  AGV d           4.258  22.483  20.696  0.00  0.00     0.099 A 
ATOM     17  N7  AGV d           3.135  22.493  21.457  0.00  0.00    -0.360 N 
ATOM     18  C5  AGV d           3.329  21.762  22.612  0.00  0.00     0.107 A 
ATOM     19  H15 AGV d           2.261  22.978  21.208  0.00  0.00     0.165 HD
ATOM     20  C4  AGV d           4.642  21.289  22.548  0.00  0.00     0.098 A 
ATOM     21  C6  AGV d           2.499  21.439  23.694  0.00  0.00     0.151 A 
ATOM     22  N3  AGV d           5.141  20.555  23.557  0.00  0.00    -0.239 NA
ATOM     23  C2  AGV d           4.300  20.288  24.574  0.00  0.00     0.236 A 
ATOM     24  N1  AGV d           3.038  20.684  24.679  0.00  0.00    -0.223 NA
BRANCH  21  25
ATOM     25  N6  AGV d           1.224  21.821  23.780  0.00  0.00    -0.382 N 
ATOM     26  H16 AGV d           0.661  21.554  24.600  0.00  0.00     0.157 HD
ATOM     27  H17 AGV d           0.803  22.383  23.026  0.00  0.00     0.157 HD
ENDBRANCH  21  25
ENDBRANCH   1  15
TORSDOF 7
