REMARK  10 active torsions:
REMARK  status: ('A' for Active; 'I' for Inactive)
REMARK    1  A    between atoms: C1_1  and  C7_7 
REMARK    2  A    between atoms: C7_7  and  N1_8 
REMARK    3  A    between atoms: C8_12  and  C1'_13 
REMARK    4  A    between atoms: C3'_15  and  C31'_16 
REMARK    5  A    between atoms: C31'_16  and  C32'_17 
REMARK    6  A    between atoms: C31'_16  and  C42'_20 
REMARK    7  A    between atoms: C42'_20  and  C43'_21 
REMARK    8  A    between atoms: C5'_25  and  C1''_28 
REMARK    9  A    between atoms: C6'_26  and  O6'_27 
REMARK   10  A    between atoms: C2''_29  and  O2''_34 
ROOT
ATOM      1  C1' MOL d          43.249  -2.092  31.619  0.00  0.00     0.044 A 
ATOM      2  C2' MOL d          42.892  -3.229  32.365  0.00  0.00     0.026 A 
ATOM      3  C3' MOL d          42.623  -3.166  33.734  0.00  0.00    -0.041 A 
ATOM      4  C4' MOL d          42.720  -1.960  34.372  0.00  0.00     0.023 A 
ATOM      5  C5' MOL d          43.073  -0.816  33.724  0.00  0.00     0.011 A 
ATOM      6  C6' MOL d          43.329  -0.875  32.348  0.00  0.00     0.090 A 
ENDROOT
BRANCH   1   7
ATOM      7  C8  MOL d          43.526  -2.169  30.219  0.00  0.00     0.142 A 
ATOM      8  N3  MOL d          43.927  -1.147  29.527  0.00  0.00    -0.338 N 
ATOM      9  C4  MOL d          44.112  -1.570  28.321  0.00  0.00     0.062 A 
ATOM     10  H8  MOL d          44.070  -0.187  29.872  0.00  0.00     0.167 HD
ATOM     11  C3  MOL d          44.524  -0.907  27.185  0.00  0.00     0.033 A 
ATOM     12  C5  MOL d          43.789  -2.872  28.325  0.00  0.00     0.086 A 
ATOM     13  C2  MOL d          44.594  -1.659  25.997  0.00  0.00     0.017 A 
ATOM     14  C1  MOL d          44.279  -3.053  25.951  0.00  0.00     0.009 A 
ATOM     15  C6  MOL d          43.859  -3.665  27.173  0.00  0.00     0.049 A 
ATOM     16  N4  MOL d          43.413  -3.296  29.520  0.00  0.00    -0.228 NA
BRANCH  14  17
ATOM     17  C7  MOL d          44.353  -3.773  24.740  0.00  0.00     0.102 C 
ATOM     18  N2  MOL d          44.865  -3.200  23.667  0.00  0.00    -0.385 N 
ATOM     19  H6  MOL d          45.207  -2.229  23.715  0.00  0.00     0.157 HD
ATOM     20  H7  MOL d          44.923  -3.723  22.782  0.00  0.00     0.157 HD
BRANCH  17  21
ATOM     21  N1  MOL d          43.912  -5.016  24.690  0.00  0.00    -0.385 N 
ATOM     22  H4  MOL d          43.964  -5.546  23.808  0.00  0.00     0.157 HD
ATOM     23  H5  MOL d          43.516  -5.456  25.533  0.00  0.00     0.157 HD
ENDBRANCH  17  21
ENDBRANCH  14  17
ENDBRANCH   1   7
BRANCH   6  24
ATOM     24  O6' MOL d          43.626   0.298  31.668  0.00  0.00    -0.359 OA
ATOM     25  H14 MOL d          43.775   0.102  30.750  0.00  0.00     0.217 HD
ENDBRANCH   6  24
BRANCH   3  26
ATOM     26  C31 MOL d          42.229  -4.439  34.527  0.00  0.00     0.129 C 
BRANCH  26  27
ATOM     27  C32 MOL d          40.786  -4.723  34.064  0.00  0.00     0.182 C 
ATOM     28  O33 MOL d          40.687  -5.497  33.119  0.00  0.00    -0.647 OA
ATOM     29  O34 MOL d          39.860  -4.165  34.637  0.00  0.00    -0.647 OA
ENDBRANCH  26  27
BRANCH  26  30
ATOM     30  C42 MOL d          42.380  -4.292  36.148  0.00  0.00     0.133 C 
BRANCH  30  31
ATOM     31  C43 MOL d          43.228  -5.421  36.850  0.00  0.00     0.173 C 
ATOM     32  O44 MOL d          43.069  -6.588  36.512  0.00  0.00    -0.648 OA
ATOM     33  O45 MOL d          44.024  -5.080  37.724  0.00  0.00    -0.648 OA
ENDBRANCH  30  31
ENDBRANCH  26  30
ENDBRANCH   3  26
BRANCH   5  34
ATOM     34  C1' MOL d          43.248   0.309  34.525  0.00  0.00     0.010 A 
ATOM     35  C2' MOL d          42.211   0.956  35.249  0.00  0.00     0.079 A 
ATOM     36  C3' MOL d          42.503   2.076  36.045  0.00  0.00     0.037 A 
ATOM     37  C4' MOL d          43.788   2.562  36.131  0.00  0.00     0.003 A 
ATOM     38  C5' MOL d          44.812   1.956  35.443  0.00  0.00     0.001 A 
ATOM     39  C6' MOL d          44.546   0.833  34.644  0.00  0.00     0.015 A 
BRANCH  35  40
ATOM     40  O2' MOL d          40.908   0.489  35.184  0.00  0.00    -0.355 OA
ATOM     41  CME MOL d          39.783   1.326  35.489  0.00  0.00     0.210 C 
ENDBRANCH  35  40
ENDBRANCH   5  34
TORSDOF 10
