REMARK  3 active torsions:
REMARK  status: ('A' for Active; 'I' for Inactive)
REMARK    1  A    between atoms: C1_2  and  C2_4 
REMARK    2  A    between atoms: C2_4  and  C3_6 
REMARK    3  A    between atoms: C3_6  and  C4_7 
ROOT
ATOM      1 CL   03H d          -7.775 -29.390  14.521  0.00  0.00    -0.114 Cl
ATOM      2  C2  03H d          -7.706 -31.175  14.698  0.00  0.00     0.183 C 
ENDROOT
BRANCH   2   3
ATOM      3  C1  03H d          -7.433 -31.781  13.354  0.00  0.00     0.192 C 
ATOM      4  O1  03H d          -6.923 -32.886  13.303  0.00  0.00    -0.647 OA
ATOM      5  O2  03H d          -8.145 -31.374  12.304  0.00  0.00    -0.647 OA
ENDBRANCH   2   3
BRANCH   2   6
ATOM      6  C3  03H d          -9.017 -31.753  15.218  0.00  0.00     0.035 C 
BRANCH   6   7
ATOM      7  C4  03H d          -9.227 -31.485  16.703  0.00  0.00    -0.021 C 
ATOM      8  C5  03H d         -10.683 -31.719  17.067  0.00  0.00     0.009 C 
ATOM      9  C6  03H d          -8.334 -32.351  17.583  0.00  0.00     0.009 C 
ENDBRANCH   6   7
ENDBRANCH   2   6
TORSDOF 3
