REMARK  5 active torsions:
REMARK  status: ('A' for Active; 'I' for Inactive)
REMARK    1  A    between atoms: CAN_3  and  OAA_4 
REMARK    2  A    between atoms: CAP_7  and  CAR_8 
REMARK    3  A    between atoms: CAR_8  and  CAS_9 
REMARK    4  A    between atoms: CAR_8  and  CAQ_13 
REMARK    5  A    between atoms: CAO_16  and  OAB_17 
ROOT
ATOM      1  CAR MOL d          -4.612  -3.911  22.012  0.00  0.00     0.106 C 
ENDROOT
BRANCH   1   2
ATOM      2  CAP MOL d          -3.348  -3.567  21.440  0.00  0.00    -0.045 A 
ATOM      3  CAJ MOL d          -3.063  -3.732  20.077  0.00  0.00     0.011 A 
ATOM      4  CAF MOL d          -1.789  -3.424  19.582  0.00  0.00     0.037 A 
ATOM      5  CAN MOL d          -0.800  -2.962  20.449  0.00  0.00     0.065 A 
ATOM      6  CAG MOL d          -1.071  -2.795  21.798  0.00  0.00     0.037 A 
ATOM      7  CAK MOL d          -2.332  -3.115  22.287  0.00  0.00     0.011 A 
BRANCH   5   8
ATOM      8  OAA MOL d           0.431  -2.652  19.984  0.00  0.00    -0.361 OA
ATOM      9  H   MOL d           0.821  -3.421  19.586  0.00  0.00     0.217 HD
ENDBRANCH   5   8
ENDBRANCH   1   2
BRANCH   1  10
ATOM     10  CAS MOL d          -5.563  -2.746  22.424  0.00  0.00     0.200 C 
ATOM     11 CLD  MOL d          -6.042  -1.747  21.065  0.00  0.00    -0.083 Cl
ATOM     12 CLE  MOL d          -7.019  -3.494  23.179  0.00  0.00    -0.083 Cl
ATOM     13 CLC  MOL d          -4.816  -1.689  23.626  0.00  0.00    -0.083 Cl
ENDBRANCH   1  10
BRANCH   1  14
ATOM     14  CAQ MOL d          -5.274  -4.961  21.297  0.00  0.00    -0.045 A 
ATOM     15  CAL MOL d          -4.828  -6.273  21.475  0.00  0.00     0.011 A 
ATOM     16  CAH MOL d          -5.457  -7.320  20.798  0.00  0.00     0.037 A 
ATOM     17  CAO MOL d          -6.532  -7.072  19.941  0.00  0.00     0.065 A 
ATOM     18  CAI MOL d          -6.988  -5.768  19.762  0.00  0.00     0.037 A 
ATOM     19  CAM MOL d          -6.356  -4.721  20.434  0.00  0.00     0.011 A 
BRANCH  17  20
ATOM     20  OAB MOL d          -7.141  -8.106  19.284  0.00  0.00    -0.361 OA
ATOM     21  H   MOL d          -7.847  -7.766  18.747  0.00  0.00     0.217 HD
ENDBRANCH  17  20
ENDBRANCH   1  14
TORSDOF 5
