REMARK  8 active torsions:
REMARK  status: ('A' for Active; 'I' for Inactive)
REMARK    1  A    between atoms: C3_3  and  O44_11 
REMARK    2  A    between atoms: C4_4  and  C13_10 
REMARK    3  A    between atoms: C6_6  and  C10_7 
REMARK    4  A    between atoms: C10_7  and  N11_8 
REMARK    5  A    between atoms: C13_10  and  N28_21 
REMARK    6  A    between atoms: S38_27  and  C26_19 
REMARK    7  A    between atoms: C30_23  and  N37_26 
REMARK    8  A    between atoms: N37_26  and  S38_27 
ROOT
ATOM      1  N28 PR1 d          11.090  -6.751  22.217  0.00  0.00    -0.346 N 
ATOM      2  C29 PR1 d          10.001  -7.552  22.319  0.00  0.00     0.243 C 
ATOM      3  C30 PR1 d          10.484  -8.976  22.311  0.00  0.00     0.186 C 
ATOM      4  C31 PR1 d          11.778  -8.886  21.517  0.00  0.00     0.055 C 
ATOM      5  C32 PR1 d          12.314  -7.501  21.851  0.00  0.00     0.129 C 
ATOM      6  O41 PR1 d           8.843  -7.199  22.395  0.00  0.00    -0.271 OA
ENDROOT
BRANCH   1   7
ATOM      7  C13 PR1 d          11.048  -5.279  22.225  0.00  0.00     0.167 C 
BRANCH   7   8
ATOM      8  C4  PR1 d          12.044  -4.601  23.221  0.00  0.00    -0.006 A 
ATOM      9  C3  PR1 d          13.300  -4.134  22.822  0.00  0.00     0.073 A 
ATOM     10  C2  PR1 d          14.156  -3.544  23.751  0.00  0.00     0.038 A 
ATOM     11  C1  PR1 d          13.772  -3.411  25.088  0.00  0.00     0.018 A 
ATOM     12  C6  PR1 d          12.510  -3.868  25.527  0.00  0.00     0.008 A 
ATOM     13  C5  PR1 d          11.670  -4.462  24.563  0.00  0.00     0.026 A 
BRANCH   9  14
ATOM     14  O44 PR1 d          13.683  -4.257  21.551  0.00  0.00    -0.360 OA
ATOM     15  H10 PR1 d          12.992  -4.676  21.052  0.00  0.00     0.217 HD
ENDBRANCH   9  14
BRANCH  12  16
ATOM     16  C10 PR1 d          12.042  -3.698  27.027  0.00  0.00     0.102 C 
ATOM     17  N12 PR1 d          12.909  -3.296  27.969  0.00  0.00    -0.385 N 
ATOM     18  H6  PR1 d          13.888  -3.099  27.717  0.00  0.00     0.157 HD
ATOM     19  H7  PR1 d          12.595  -3.184  28.944  0.00  0.00     0.157 HD
BRANCH  16  20
ATOM     20  N11 PR1 d          10.764  -3.951  27.377  0.00  0.00    -0.385 N 
ATOM     21  H4  PR1 d          10.466  -3.838  28.357  0.00  0.00     0.157 HD
ATOM     22  H5  PR1 d          10.086  -4.257  26.665  0.00  0.00     0.157 HD
ENDBRANCH  16  20
ENDBRANCH  12  16
ENDBRANCH   7   8
ENDBRANCH   1   7
BRANCH   3  23
ATOM     23  N37 PR1 d           9.895 -10.012  21.557  0.00  0.00    -0.301 N 
ATOM     24  H20 PR1 d           9.731  -9.877  20.580  0.00  0.00     0.173 HD
BRANCH  23  25
ATOM     25  S38 PR1 d           9.480 -11.417  22.247  0.00  0.00     0.266 S 
ATOM     26  O40 PR1 d           8.938 -12.176  21.167  0.00  0.00    -0.200 OA
ATOM     27  O39 PR1 d           8.680 -11.028  23.366  0.00  0.00    -0.200 OA
BRANCH  25  28
ATOM     28  C26 PR1 d          10.967 -12.159  22.815  0.00  0.00     0.123 A 
ATOM     29  S27 PR1 d          11.372 -12.288  24.485  0.00  0.00    -0.074 SA
ATOM     30  C16 PR1 d          12.872 -13.039  24.135  0.00  0.00     0.035 A 
ATOM     31  C21 PR1 d          13.065 -13.194  22.623  0.00  0.00     0.075 A 
ATOM     32  C17 PR1 d          13.897 -13.494  24.952  0.00  0.00     0.023 A 
ATOM     33  C25 PR1 d          11.969 -12.688  21.920  0.00  0.00     0.065 A 
ATOM     34  N20 PR1 d          14.289 -13.793  22.154  0.00  0.00    -0.260 NA
ATOM     35  C19 PR1 d          15.243 -14.211  23.027  0.00  0.00     0.117 A 
ATOM     36  C18 PR1 d          15.064 -14.069  24.421  0.00  0.00     0.021 A 
ENDBRANCH  25  28
ENDBRANCH  23  25
ENDBRANCH   3  23
TORSDOF 8
