REMARK  4 active torsions:
REMARK  status: ('A' for Active; 'I' for Inactive)
REMARK    1  A    between atoms: O12_14  and  C3_5 
REMARK    2  A    between atoms: C7_7  and  C2_8 
REMARK    3  A    between atoms: C2_8  and  N3_9 
REMARK    4  A    between atoms: C11_12  and  O12_14 
ROOT
ATOM      1  C6  PW1 d           1.689  16.241 -41.657  0.00  0.00     0.015 A 
ATOM      2  C5  PW1 d           2.625  17.205 -41.370  0.00  0.00     0.046 A 
ATOM      3  C4  PW1 d           3.939  16.851 -41.238  0.00  0.00     0.153 A 
ATOM      4  F   PW1 d           4.846  17.807 -40.957  0.00  0.00    -0.203 F 
ATOM      5  C3  PW1 d           4.374  15.555 -41.382  0.00  0.00     0.153 A 
ATOM      6  C8  PW1 d           3.418  14.595 -41.671  0.00  0.00     0.161 A 
ATOM      7  C7  PW1 d           2.077  14.916 -41.811  0.00  0.00     0.009 A 
ATOM      8  F2  PW1 d           3.804  13.314 -41.819  0.00  0.00    -0.202 F 
ENDROOT
BRANCH   5   9
ATOM      9  O12 PW1 d           5.726  15.259 -41.236  0.00  0.00    -0.304 OA
BRANCH   9  10
ATOM     10  C11 PW1 d           6.232  14.685 -40.072  0.00  0.00     0.076 A 
ATOM     11  C12 PW1 d           7.589  14.417 -40.123  0.00  0.00     0.037 A 
ATOM     12  C13 PW1 d           8.220  13.848 -39.038  0.00  0.00     0.003 A 
ATOM     13  C14 PW1 d           7.499  13.545 -37.901  0.00  0.00     0.000 A 
ATOM     14  C9  PW1 d           6.147  13.811 -37.848  0.00  0.00     0.003 A 
ATOM     15  C10 PW1 d           5.510  14.380 -38.930  0.00  0.00     0.037 A 
ENDBRANCH   9  10
ENDBRANCH   5   9
BRANCH   7  16
ATOM     16  C2  PW1 d           1.033  13.867 -42.127  0.00  0.00     0.271 C 
BRANCH  16  17
ATOM     17  N3  PW1 d           1.249  13.216 -43.438  0.00  0.00    -0.075 N 
ATOM     18  H5  PW1 d           0.528  12.530 -43.595  0.00  0.00     0.274 HD
ATOM     19  H6  PW1 d           2.150  12.764 -43.444  0.00  0.00     0.274 HD
ATOM     20  H7  PW1 d           1.216  13.911 -44.168  0.00  0.00     0.274 HD
ENDBRANCH  16  17
ENDBRANCH   7  16
TORSDOF 4
