REMARK  11 active torsions:
REMARK  status: ('A' for Active; 'I' for Inactive)
REMARK       I    between atoms: CAA_2  and  N_4 
REMARK    1  A    between atoms: N_4  and  CA_5 
REMARK    2  A    between atoms: CA_5  and  CB_6 
REMARK    3  A    between atoms: CA_5  and  C_10 
REMARK       I    between atoms: C_10  and  NAH_12 
REMARK    4  A    between atoms: NAH_12  and  CAI_13 
REMARK    5  A    between atoms: CAI_13  and  CAJ_14 
REMARK    6  A    between atoms: CAI_13  and  CAO_18 
REMARK       I    between atoms: CAO_18  and  NAQ_20 
REMARK    7  A    between atoms: CAT_22  and  OAX_23 
REMARK    8  A    between atoms: CAR_25  and  CAV_26 
REMARK       I    between atoms: CAV_26  and  NAY_28 
REMARK    9  A    between atoms: NAY_28  and  CAZ_29 
REMARK   10  A    between atoms: CAZ_29  and  CBA_30 
REMARK   11  A    between atoms: CBD_35  and  CBG_36 
ROOT
ATOM      1  CAO MOL d          11.939  54.054  91.416  0.00  0.00     0.244 C 
ATOM      2  OAP MOL d          10.788  53.841  91.087  0.00  0.00    -0.271 OA
ATOM      3  NAQ MOL d          12.890  54.453  90.535  0.00  0.00    -0.334 N 
ATOM      4  CAU MOL d          14.307  54.813  90.749  0.00  0.00     0.158 C 
ATOM      5  CAT MOL d          14.694  55.649  89.522  0.00  0.00     0.138 C 
ATOM      6  CAS MOL d          13.846  55.190  88.425  0.00  0.00     0.068 C 
ATOM      7  CAR MOL d          12.552  54.676  89.094  0.00  0.00     0.181 C 
ENDROOT
BRANCH   1   8
ATOM      8  CAI MOL d          12.358  53.834  92.869  0.00  0.00     0.184 C 
BRANCH   8   9
ATOM      9  NAH MOL d          11.320  54.284  93.776  0.00  0.00    -0.345 N 
ATOM     10  C   MOL d          11.378  55.433  94.430  0.00  0.00     0.241 C 
ATOM     11  O   MOL d          12.304  56.227  94.312  0.00  0.00    -0.271 OA
ATOM     12  H   MOL d          10.522  53.698  93.914  0.00  0.00     0.163 HD
BRANCH  10  13
ATOM     13  CA  MOL d          10.288  55.578  95.528  0.00  0.00     0.184 C 
BRANCH  13  14
ATOM     14  N   MOL d          11.003  56.016  96.753  0.00  0.00    -0.347 N 
ATOM     15  CAA MOL d          11.492  55.178  97.694  0.00  0.00     0.214 C 
ATOM     16  CAD MOL d          11.214  53.673  97.541  0.00  0.00     0.117 C 
ATOM     17  OAC MOL d          12.108  55.582  98.682  0.00  0.00    -0.274 OA
ATOM     18  H   MOL d          11.132  56.998  96.891  0.00  0.00     0.163 HD
ENDBRANCH  13  14
BRANCH  13  19
ATOM     19  CB  MOL d           9.104  56.496  95.219  0.00  0.00    -0.022 C 
ATOM     20  CG1 MOL d           9.552  57.905  94.842  0.00  0.00     0.017 C 
ATOM     21  CBO MOL d           8.228  56.582  96.484  0.00  0.00     0.017 C 
ATOM     22  CG2 MOL d           8.254  55.868  94.110  0.00  0.00     0.017 C 
ENDBRANCH  13  19
ENDBRANCH  10  13
ENDBRANCH   8   9
BRANCH   8  23
ATOM     23  CAJ MOL d          12.627  52.350  93.250  0.00  0.00    -0.022 C 
ATOM     24  CAL MOL d          13.641  51.693  92.289  0.00  0.00     0.017 C 
ATOM     25  CAM MOL d          11.318  51.500  93.253  0.00  0.00     0.017 C 
ATOM     26  CAK MOL d          13.227  52.310  94.681  0.00  0.00     0.017 C 
ENDBRANCH   8  23
ENDBRANCH   1   8
BRANCH   7  27
ATOM     27  CAV MOL d          12.114  53.500  88.459  0.00  0.00     0.241 C 
ATOM     28  OAW MOL d          12.585  52.421  88.789  0.00  0.00    -0.271 OA
ATOM     29  NAY MOL d          11.202  53.620  87.454  0.00  0.00    -0.355 N 
ATOM     30  H   MOL d          10.830  54.521  87.231  0.00  0.00     0.162 HD
BRANCH  29  31
ATOM     31  CAZ MOL d          10.755  52.442  86.690  0.00  0.00     0.161 C 
BRANCH  31  32
ATOM     32  CBA MOL d          11.573  52.289  85.526  0.00  0.00    -0.040 A 
ATOM     33  CBF MOL d          12.488  53.256  85.066  0.00  0.00     0.010 A 
ATOM     34  CBE MOL d          13.282  53.019  83.920  0.00  0.00     0.013 A 
ATOM     35  CBD MOL d          13.174  51.838  83.185  0.00  0.00    -0.017 A 
ATOM     36  CBC MOL d          12.253  50.871  83.644  0.00  0.00     0.013 A 
ATOM     37  CBB MOL d          11.471  51.101  84.791  0.00  0.00     0.010 A 
BRANCH  35  38
ATOM     38  CBG MOL d          13.941  51.643  82.086  0.00  0.00     0.040 A 
ATOM     39  SBK MOL d          15.596  52.157  81.887  0.00  0.00    -0.080 SA
ATOM     40  CBJ MOL d          15.770  51.541  80.380  0.00  0.00     0.167 A 
ATOM     41  NBI MOL d          14.621  50.966  80.023  0.00  0.00    -0.258 NA
ATOM     42  CBH MOL d          13.621  51.021  80.942  0.00  0.00     0.049 A 
ATOM     43  CBL MOL d          12.253  50.381  80.617  0.00  0.00     0.072 C 
ENDBRANCH  35  38
ENDBRANCH  31  32
ENDBRANCH  29  31
ENDBRANCH   7  27
BRANCH   5  44
ATOM     44  OAX MOL d          14.386  57.034  89.741  0.00  0.00    -0.394 OA
ATOM     45  H   MOL d          14.631  57.537  88.973  0.00  0.00     0.210 HD
ENDBRANCH   5  44
TORSDOF 11
