REMARK  11 active torsions:
REMARK  status: ('A' for Active; 'I' for Inactive)
REMARK    1  A    between atoms: C2_2  and  O2_3 
REMARK    2  A    between atoms: C3_4  and  O3_5 
REMARK    3  A    between atoms: C4_6  and  O4_7 
REMARK    4  A    between atoms: O4_7  and  C1_12 
REMARK    5  A    between atoms: C5_8  and  C6_10 
REMARK    6  A    between atoms: C6_10  and  O6_11 
REMARK    7  A    between atoms: C2_13  and  O2_18 
REMARK    8  A    between atoms: C3_14  and  O3_19 
REMARK    9  A    between atoms: C4_15  and  O4_20 
REMARK   10  A    between atoms: C5_16  and  C6_17 
REMARK   11  A    between atoms: C6_17  and  O6_22 
ROOT
ATOM      1  O4  NOJ d          14.207   8.533  26.682  0.00  0.00    -0.348 OA
ENDROOT
BRANCH   1   2
ATOM      2  C4  NOJ d          15.458   8.860  26.051  0.00  0.00     0.188 C 
ATOM      3  C3  NOJ d          15.766   7.821  24.940  0.00  0.00     0.179 C 
ATOM      4  C2  NOJ d          17.005   8.238  24.104  0.00  0.00     0.175 C 
ATOM      5  C1  NOJ d          16.782   9.637  23.523  0.00  0.00     0.267 C 
ATOM      6  N5  NOJ d          16.524  10.530  24.629  0.00  0.00    -0.064 N 
ATOM      7  C5  NOJ d          15.333  10.258  25.417  0.00  0.00     0.240 C 
ATOM      8  H9  NOJ d          16.438  11.463  24.256  0.00  0.00     0.277 HD
ATOM      9  H10 NOJ d          17.318  10.487  25.249  0.00  0.00     0.277 HD
BRANCH   3  10
ATOM     10  O3  NOJ d          15.908   6.519  25.524  0.00  0.00    -0.390 OA
ATOM     11  H6  NOJ d          15.127   6.310  26.023  0.00  0.00     0.210 HD
ENDBRANCH   3  10
BRANCH   4  12
ATOM     12  O2  NOJ d          17.336   7.335  23.014  0.00  0.00    -0.391 OA
ATOM     13  H4  NOJ d          17.477   6.462  23.360  0.00  0.00     0.210 HD
ENDBRANCH   4  12
BRANCH   7  14
ATOM     14  C6  NOJ d          15.049  11.396  26.421  0.00  0.00     0.199 C 
BRANCH  14  15
ATOM     15  O6  NOJ d          16.106  11.478  27.369  0.00  0.00    -0.399 OA
ATOM     16  H13 NOJ d          15.925  12.180  27.983  0.00  0.00     0.209 HD
ENDBRANCH  14  15
ENDBRANCH   7  14
ENDBRANCH   1   2
BRANCH   1  17
ATOM     17  C1  NOJ d          14.223   7.723  27.875  0.00  0.00     0.292 C 
ATOM     18  C2  NOJ d          12.760   7.324  28.204  0.00  0.00     0.204 C 
ATOM     19  C3  NOJ d          11.916   8.541  28.589  0.00  0.00     0.183 C 
ATOM     20  C4  NOJ d          12.609   9.273  29.738  0.00  0.00     0.180 C 
ATOM     21  C5  NOJ d          14.080   9.592  29.401  0.00  0.00     0.179 C 
ATOM     22  O5  NOJ d          14.794   8.403  29.016  0.00  0.00    -0.348 OA
BRANCH  18  23
ATOM     23  O2  NOJ d          12.158   6.656  27.093  0.00  0.00    -0.388 OA
ATOM     24  H21 NOJ d          11.284   6.372  27.332  0.00  0.00     0.210 HD
ENDBRANCH  18  23
BRANCH  19  25
ATOM     25  O3  NOJ d          10.574   8.110  28.869  0.00  0.00    -0.390 OA
ATOM     26  H22 NOJ d          10.219   7.667  28.107  0.00  0.00     0.210 HD
ENDBRANCH  19  25
BRANCH  20  27
ATOM     27  O4  NOJ d          11.907  10.518  30.029  0.00  0.00    -0.390 OA
ATOM     28  H23 NOJ d          11.000  10.328  30.237  0.00  0.00     0.210 HD
ENDBRANCH  20  27
BRANCH  21  29
ATOM     29  C6  NOJ d          14.879  10.264  30.518  0.00  0.00     0.198 C 
BRANCH  29  30
ATOM     30  O6  NOJ d          14.965   9.390  31.621  0.00  0.00    -0.398 OA
ATOM     31  H24 NOJ d          15.401   8.589  31.355  0.00  0.00     0.209 HD
ENDBRANCH  29  30
ENDBRANCH  21  29
ENDBRANCH   1  17
TORSDOF 11
