REMARK  5 active torsions:
REMARK  status: ('A' for Active; 'I' for Inactive)
REMARK    1  A    between atoms: CA_2  and  N_1 
REMARK       I    between atoms: N_1  and  C1_13 
REMARK    2  A    between atoms: CB_5  and  CA_2 
REMARK    3  A    between atoms: CA_2  and  C_3 
REMARK    4  A    between atoms: CB_5  and  CG_6 
REMARK       I    between atoms: C1_13  and  N2_15 
REMARK    5  A    between atoms: N2_15  and  O2_16 
ROOT
ATOM      1  CA  LHY d           5.608   9.231  -2.274  0.00  0.00     0.191 C 
ENDROOT
BRANCH   1   2
ATOM      2  CB  LHY d           4.858  10.409  -2.944  0.00  0.00     0.074 C 
BRANCH   2   3
ATOM      3  CG  LHY d           3.995   9.949  -4.098  0.00  0.00    -0.056 A 
ATOM      4  CD1 LHY d           2.715   9.378  -3.858  0.00  0.00     0.007 A 
ATOM      5  CE1 LHY d           1.911   8.940  -4.938  0.00  0.00     0.001 A 
ATOM      6  CZ  LHY d           2.380   9.066  -6.268  0.00  0.00     0.000 A 
ATOM      7  CE2 LHY d           3.647   9.631  -6.519  0.00  0.00     0.001 A 
ATOM      8  CD2 LHY d           4.453  10.072  -5.440  0.00  0.00     0.007 A 
ENDBRANCH   2   3
ENDBRANCH   1   2
BRANCH   1   9
ATOM      9  C   LHY d           6.813   8.841  -3.152  0.00  0.00     0.197 C 
ATOM     10  O   LHY d           7.868   9.391  -3.103  0.00  0.00    -0.646 OA
ATOM     11  OXT LHY d           6.524   7.823  -3.979  0.00  0.00    -0.646 OA
ENDBRANCH   1   9
BRANCH   1  12
ATOM     12  N   LHY d           6.092   9.580  -0.908  0.00  0.00    -0.327 N 
ATOM     13  C1  LHY d           6.846   8.745  -0.146  0.00  0.00     0.340 C 
ATOM     14  N2  LHY d           7.211   9.166   1.085  0.00  0.00    -0.219 N 
ATOM     15  O1  LHY d           7.191   7.652  -0.532  0.00  0.00    -0.245 OA
ATOM     16  H10 LHY d           7.767   8.592   1.686  0.00  0.00     0.199 HD
ATOM     17  H1  LHY d           5.849  10.475  -0.533  0.00  0.00     0.165 HD
BRANCH  14  18
ATOM     18  O2  LHY d           6.781  10.436   1.487  0.00  0.00    -0.286 OA
ATOM     19  H11 LHY d           7.100  10.614   2.364  0.00  0.00     0.244 HD
ENDBRANCH  14  18
ENDBRANCH   1  12
TORSDOF 5
