REMARK  14 active torsions:
REMARK  status: ('A' for Active; 'I' for Inactive)
REMARK    1  A    between atoms: C25_1  and  O27_3 
REMARK       I    between atoms: N24_9  and  C25_1 
REMARK    2  A    between atoms: O27_3  and  C28_4 
REMARK    3  A    between atoms: C19_10  and  N24_9 
REMARK    4  A    between atoms: C19_10  and  C20_11 
REMARK    5  A    between atoms: C17_15  and  C19_10 
REMARK       I    between atoms: N16_23  and  C17_15 
REMARK    6  A    between atoms: C12_19  and  C10_17 
REMARK       I    between atoms: C10_17  and  N9_49 
REMARK    7  A    between atoms: C14_21  and  O33_24 
REMARK    8  A    between atoms: O33_24  and  C34_25 
REMARK    9  A    between atoms: C42_33  and  O45_36 
REMARK   10  A    between atoms: C50_41  and  N52_43 
REMARK       I    between atoms: N52_43  and  C53_44 
REMARK   11  A    between atoms: C53_44  and  C55_46 
REMARK   12  A    between atoms: N9_49  and  C4_50 
REMARK   13  A    between atoms: C4_50  and  C2_55 
REMARK   14  A    between atoms: C6_51  and  C7_53 
ROOT
ATOM      1  C17 L4T d          41.072  46.346   8.908  0.00  0.00     0.244 C 
ATOM      2  O18 L4T d          42.276  46.160   8.800  0.00  0.00    -0.271 OA
ATOM      3  C12 L4T d          41.109  47.768   6.884  0.00  0.00     0.181 C 
ATOM      4  C13 L4T d          40.042  48.666   6.219  0.00  0.00     0.069 C 
ATOM      5  C14 L4T d          38.742  47.919   6.535  0.00  0.00     0.149 C 
ATOM      6  C15 L4T d          38.972  47.545   7.982  0.00  0.00     0.159 C 
ATOM      7  N16 L4T d          40.388  47.147   7.993  0.00  0.00    -0.334 N 
ENDROOT
BRANCH   5   8
ATOM      8  O33 L4T d          38.730  46.645   5.840  0.00  0.00    -0.343 OA
BRANCH   8   9
ATOM      9  C34 L4T d          38.278  46.540   4.535  0.00  0.00     0.084 A 
ATOM     10  C35 L4T d          37.654  47.716   3.876  0.00  0.00     0.071 A 
ATOM     11  C36 L4T d          37.212  47.576   2.590  0.00  0.00     0.089 A 
ATOM     12  N37 L4T d          37.368  46.357   1.944  0.00  0.00    -0.244 NA
ATOM     13  C47 L4T d          36.567  48.622   1.884  0.00  0.00     0.095 A 
ATOM     14  C38 L4T d          37.929  45.212   2.470  0.00  0.00     0.090 A 
ATOM     15  C39 L4T d          38.407  45.342   3.877  0.00  0.00     0.028 A 
ATOM     16  C43 L4T d          38.049  44.042   1.785  0.00  0.00     0.073 A 
ATOM     17  C40 L4T d          39.019  44.131   4.548  0.00  0.00     0.019 A 
ATOM     18  C41 L4T d          39.082  42.900   3.703  0.00  0.00     0.039 A 
ATOM     19  C42 L4T d          38.630  42.842   2.402  0.00  0.00     0.087 A 
ATOM     20 BR44 L4T d          37.436  43.971  -0.032  0.00  0.00    -0.046 Br
ATOM     21  C48 L4T d          36.157  48.544   0.563  0.00  0.00     0.087 A 
ATOM     22  N51 L4T d          36.292  49.804   2.530  0.00  0.00    -0.222 NA
ATOM     23  S49 L4T d          35.398  50.021   0.126  0.00  0.00    -0.061 SA
ATOM     24  C50 L4T d          35.687  50.628   1.713  0.00  0.00     0.173 A 
BRANCH  19  25
ATOM     25  O45 L4T d          38.667  41.718   1.564  0.00  0.00    -0.355 OA
ATOM     26  C46 L4T d          39.212  40.476   2.071  0.00  0.00     0.210 C 
ENDBRANCH  19  25
BRANCH  24  27
ATOM     27  N52 L4T d          35.297  51.875   2.158  0.00  0.00    -0.305 N 
ATOM     28  C53 L4T d          34.370  52.700   1.537  0.00  0.00     0.227 C 
ATOM     29  O54 L4T d          33.795  52.382   0.473  0.00  0.00    -0.273 OA
ATOM     30  H34 L4T d          35.718  52.213   3.000  0.00  0.00     0.171 HD
BRANCH  28  31
ATOM     31  C55 L4T d          34.128  54.013   2.314  0.00  0.00     0.070 C 
ATOM     32  C56 L4T d          32.928  53.870   3.259  0.00  0.00     0.019 C 
ATOM     33  C57 L4T d          33.940  55.212   1.391  0.00  0.00     0.019 C 
ENDBRANCH  28  31
ENDBRANCH  24  27
ENDBRANCH   8   9
ENDBRANCH   5   8
BRANCH   3  34
ATOM     34  C10 L4T d          42.235  48.652   7.430  0.00  0.00     0.241 C 
ATOM     35  O11 L4T d          42.088  49.335   8.447  0.00  0.00    -0.271 OA
ATOM     36  N9  L4T d          43.412  48.571   6.719  0.00  0.00    -0.340 N 
ATOM     37  H42 L4T d          43.391  48.221   5.782  0.00  0.00     0.163 HD
BRANCH  36  38
ATOM     38  C4  L4T d          44.680  48.978   7.290  0.00  0.00     0.129 A 
ATOM     39  C6  L4T d          45.308  48.023   8.335  0.00  0.00     0.049 A 
ATOM     40  C5  L4T d          45.913  48.122   6.960  0.00  0.00     0.054 A 
BRANCH  39  41
ATOM     41  C7  L4T d          46.032  48.494   9.528  0.00  0.00    -0.029 C 
ATOM     42  C8  L4T d          45.728  48.133  10.793  0.00  0.00     0.007 C 
ENDBRANCH  39  41
BRANCH  38  43
ATOM     43  C2  L4T d          44.896  50.507   7.291  0.00  0.00     0.203 C 
ATOM     44  O3  L4T d          45.984  50.981   7.738  0.00  0.00    -0.646 OA
ATOM     45  O1  L4T d          43.963  51.265   6.799  0.00  0.00    -0.646 OA
ENDBRANCH  38  43
ENDBRANCH  36  38
ENDBRANCH   3  34
BRANCH   1  46
ATOM     46  C19 L4T d          40.277  45.712  10.076  0.00  0.00     0.186 C 
BRANCH  46  47
ATOM     47  N24 L4T d          40.437  44.291   9.965  0.00  0.00    -0.323 N 
ATOM     48  C25 L4T d          39.556  43.547   9.261  0.00  0.00     0.361 C 
ATOM     49  O26 L4T d          38.584  43.995   8.674  0.00  0.00    -0.238 OA
ATOM     50  H10 L4T d          41.211  43.845  10.415  0.00  0.00     0.165 HD
BRANCH  48  51
ATOM     51  O27 L4T d          39.893  42.239   9.325  0.00  0.00    -0.299 OA
BRANCH  51  52
ATOM     52  C28 L4T d          40.358  41.624   8.156  0.00  0.00     0.133 C 
ATOM     53  C29 L4T d          39.303  41.211   7.169  0.00  0.00     0.032 C 
ATOM     54  C30 L4T d          40.110  40.301   6.248  0.00  0.00     0.002 C 
ATOM     55  C31 L4T d          41.183  39.690   7.143  0.00  0.00     0.002 C 
ATOM     56  C32 L4T d          40.903  40.254   8.523  0.00  0.00     0.032 C 
ENDBRANCH  51  52
ENDBRANCH  48  51
ENDBRANCH  46  47
BRANCH  46  57
ATOM     57  C20 L4T d          40.669  46.271  11.487  0.00  0.00    -0.022 C 
ATOM     58  C21 L4T d          40.415  47.808  11.534  0.00  0.00     0.017 C 
ATOM     59  C22 L4T d          42.143  45.998  11.863  0.00  0.00     0.017 C 
ATOM     60  C23 L4T d          39.789  45.612  12.564  0.00  0.00     0.017 C 
ENDBRANCH  46  57
ENDBRANCH   1  46
TORSDOF 14
