REMARK  4 active torsions:
REMARK  status: ('A' for Active; 'I' for Inactive)
REMARK    1  A    between atoms: CA_2  and  N_1 
REMARK    2  A    between atoms: CA_2  and  CB_5 
REMARK    3  A    between atoms: CA_2  and  C_3 
REMARK    4  A    between atoms: CB_5  and  CG_6 
ROOT
ATOM      1  CA  HIS d         -21.660 -33.527  -3.789  0.00  0.00     0.289 C 
ENDROOT
BRANCH   1   2
ATOM      2  N   HIS d         -22.680 -32.902  -2.959  0.00  0.00    -0.065 N 
ATOM      3  H1  HIS d         -22.989 -32.047  -3.393  0.00  0.00     0.275 HD
ATOM      4  H2  HIS d         -22.295 -32.697  -2.050  0.00  0.00     0.275 HD
ATOM      5  H3  HIS d         -23.462 -33.529  -2.859  0.00  0.00     0.275 HD
ENDBRANCH   1   2
BRANCH   1   6
ATOM      6  CB  HIS d         -20.371 -32.684  -4.038  0.00  0.00     0.104 C 
BRANCH   6   7
ATOM      7  CG  HIS d         -19.377 -32.207  -2.957  0.00  0.00     0.053 A 
ATOM      8  ND1 HIS d         -18.132 -31.775  -3.210  0.00  0.00    -0.247 NA
ATOM      9  CE1 HIS d         -17.602 -31.360  -2.085  0.00  0.00     0.207 A 
ATOM     10  NE2 HIS d         -18.490 -31.526  -1.152  0.00  0.00    -0.359 N 
ATOM     11  CD2 HIS d         -19.599 -32.044  -1.604  0.00  0.00     0.116 A 
ATOM     12  H9  HIS d         -18.336 -31.276  -0.165  0.00  0.00     0.166 HD
ENDBRANCH   6   7
ENDBRANCH   1   6
BRANCH   1  13
ATOM     13  C   HIS d         -21.225 -34.791  -3.116  0.00  0.00     0.204 C 
ATOM     14  O   HIS d         -20.505 -35.546  -3.735  0.00  0.00    -0.646 OA
ATOM     15  OXT HIS d         -21.677 -35.049  -1.996  0.00  0.00    -0.646 OA
ENDBRANCH   1  13
TORSDOF 4
