REMARK  2 active torsions:
REMARK  status: ('A' for Active; 'I' for Inactive)
REMARK    1  A    between atoms: C0_1  and  N1_3 
REMARK    2  A    between atoms: C0_1  and  C1_2 
ROOT
ATOM      1  C1  ESI d          43.957  -3.279  26.412  0.00  0.00     0.049 A 
ATOM      2  S2  ESI d          44.163  -1.582  26.604  0.00  0.00    -0.086 SA
ATOM      3  C3  ESI d          43.761  -1.894  28.242  0.00  0.00     0.017 A 
ATOM      4  C4  ESI d          43.507  -3.205  28.555  0.00  0.00    -0.001 A 
ATOM      5  C5  ESI d          43.600  -4.121  27.466  0.00  0.00     0.036 A 
ATOM      6  C6  ESI d          43.675  -0.938  29.261  0.00  0.00     0.020 A 
ATOM      7  C7  ESI d          43.345  -1.351  30.555  0.00  0.00     0.003 A 
ATOM      8  C8  ESI d          43.083  -2.706  30.833  0.00  0.00     0.019 A 
ATOM      9  C9  ESI d          43.169  -3.695  29.818  0.00  0.00     0.018 A 
ATOM     10  I9  ESI d          42.835  -5.622  30.405  0.00  0.00    -0.044 I 
ENDROOT
BRANCH   1  11
ATOM     11  C0  ESI d          44.131  -3.927  25.142  0.00  0.00     0.109 C 
ATOM     12  N2  ESI d          44.559  -3.156  24.161  0.00  0.00    -0.385 N 
ATOM     13  H3  ESI d          44.747  -2.158  24.335  0.00  0.00     0.157 HD
ATOM     14  H4  ESI d          44.705  -3.552  23.221  0.00  0.00     0.157 HD
BRANCH  11  15
ATOM     15  N1  ESI d          43.891  -5.205  24.916  0.00  0.00    -0.385 N 
ATOM     16  H1  ESI d          43.557  -5.809  25.680  0.00  0.00     0.157 HD
ATOM     17  H2  ESI d          44.038  -5.598  23.975  0.00  0.00     0.157 HD
ENDBRANCH  11  15
ENDBRANCH   1  11
TORSDOF 2
