REMARK  7 active torsions:
REMARK  status: ('A' for Active; 'I' for Inactive)
REMARK    1  A    between atoms: P_2  and  C14_5 
REMARK    2  A    between atoms: C14_5  and  C13_8 
REMARK    3  A    between atoms: C13_8  and  C12_9 
REMARK    4  A    between atoms: C12_9  and  C11_10 
REMARK    5  A    between atoms: C11_10  and  C10_11 
REMARK    6  A    between atoms: C10_11  and  C9_12 
REMARK    7  A    between atoms: C2_19  and  N2_20 
ROOT
ATOM      1  C9  MOL d          33.052  -9.320  28.727  0.00  0.00    -0.013 A 
ATOM      2  C8  MOL d          34.109  -9.559  29.530  0.00  0.00     0.098 A 
ATOM      3  N7  MOL d          34.132  -8.625  30.503  0.00  0.00    -0.359 N 
ATOM      4  C5  MOL d          33.095  -7.755  30.358  0.00  0.00     0.129 A 
ATOM      5  C6  MOL d          32.657  -6.625  31.025  0.00  0.00     0.288 A 
ATOM      6  O6  MOL d          33.195  -6.130  32.022  0.00  0.00    -0.265 OA
ATOM      7  N1  MOL d          31.485  -5.981  30.503  0.00  0.00    -0.154 N 
ATOM      8  C2  MOL d          30.853  -6.546  29.335  0.00  0.00     0.679 A 
ATOM      9  N3  MOL d          31.232  -7.564  28.714  0.00  0.00    -0.189 N 
ATOM     10  C4  MOL d          32.407  -8.199  29.229  0.00  0.00     0.089 A 
ATOM     11  H10 MOL d          34.837  -8.577  31.252  0.00  0.00     0.165 HD
ATOM     12  H11 MOL d          31.115  -5.160  30.938  0.00  0.00     0.187 HD
ATOM     13  H14 MOL d          30.732  -7.921  27.887  0.00  0.00     0.184 HD
ENDROOT
BRANCH   1  14
ATOM     14  C10 MOL d          32.617 -10.111  27.492  0.00  0.00     0.042 C 
BRANCH  14  15
ATOM     15  C11 MOL d          33.395  -9.685  26.227  0.00  0.00     0.005 C 
BRANCH  15  16
ATOM     16  C12 MOL d          32.794 -10.311  24.962  0.00  0.00     0.007 C 
BRANCH  16  17
ATOM     17  C13 MOL d          32.610 -11.835  25.120  0.00  0.00     0.094 C 
BRANCH  17  18
ATOM     18  C14 MOL d          31.984 -12.416  23.858  0.00  0.00     0.353 C 
ATOM     19  F1  MOL d          32.933 -12.497  22.886  0.00  0.00    -0.191 F 
ATOM     20  F2  MOL d          30.986 -11.646  23.410  0.00  0.00    -0.191 F 
BRANCH  18  21
ATOM     21  P   MOL d          31.339 -14.099  24.170  0.00  0.00     0.334 P 
ATOM     22  O2P MOL d          32.386 -14.941  24.980  0.00  0.00    -0.636 OA
ATOM     23  O3P MOL d          30.031 -13.864  25.068  0.00  0.00    -0.636 OA
ATOM     24  O1P MOL d          30.971 -14.699  22.846  0.00  0.00    -0.636 OA
ENDBRANCH  18  21
ENDBRANCH  17  18
ENDBRANCH  16  17
ENDBRANCH  15  16
ENDBRANCH  14  15
ENDBRANCH   1  14
BRANCH   8  25
ATOM     25  N2  MOL d          29.744  -5.842  29.017  0.00  0.00    -0.234 N 
ATOM     26  H12 MOL d          29.175  -6.117  28.204  0.00  0.00     0.174 HD
ATOM     27  H13 MOL d          29.468  -5.030  29.588  0.00  0.00     0.174 HD
ENDBRANCH   8  25
TORSDOF 7
