REMARK  8 active torsions:
REMARK  status: ('A' for Active; 'I' for Inactive)
REMARK    1  A    between atoms: C1_1  and  O1_8 
REMARK    2  A    between atoms: C2_2  and  O2_9 
REMARK    3  A    between atoms: C3_3  and  O3_10 
REMARK    4  A    between atoms: C4_4  and  O4_11 
REMARK    5  A    between atoms: C5_5  and  C6_6 
REMARK    6  A    between atoms: C6_6  and  N_13 
REMARK    7  A    between atoms: N_13  and  S_14 
REMARK    8  A    between atoms: S_14  and  C1_17 
ROOT
ATOM      1  C6  MMA d          -8.757  16.829  23.572  0.00  0.00     0.167 C 
ENDROOT
BRANCH   1   2
ATOM      2  C5  MMA d          -7.509  17.513  23.048  0.00  0.00     0.174 C 
ATOM      3  C4  MMA d          -6.747  16.706  21.971  0.00  0.00     0.180 C 
ATOM      4  C3  MMA d          -5.557  17.510  21.550  0.00  0.00     0.183 C 
ATOM      5  C2  MMA d          -4.673  17.818  22.741  0.00  0.00     0.204 C 
ATOM      6  C1  MMA d          -5.450  18.413  23.876  0.00  0.00     0.290 C 
ATOM      7  O5  MMA d          -6.614  17.643  24.167  0.00  0.00    -0.349 OA
BRANCH   3   8
ATOM      8  O4  MMA d          -7.556  16.378  20.840  0.00  0.00    -0.390 OA
ATOM      9  H13 MMA d          -7.038  15.885  20.214  0.00  0.00     0.210 HD
ENDBRANCH   3   8
BRANCH   4  10
ATOM     10  O3  MMA d          -4.787  16.808  20.560  0.00  0.00    -0.390 OA
ATOM     11  H12 MMA d          -4.486  15.983  20.921  0.00  0.00     0.210 HD
ENDBRANCH   4  10
BRANCH   5  12
ATOM     12  O2  MMA d          -4.081  16.580  23.167  0.00  0.00    -0.388 OA
ATOM     13  H11 MMA d          -3.567  16.215  22.456  0.00  0.00     0.210 HD
ENDBRANCH   5  12
BRANCH   6  14
ATOM     14  O1  MMA d          -5.784  19.721  23.461  0.00  0.00    -0.363 OA
ATOM     15  C7  MMA d          -6.458  20.493  24.484  0.00  0.00     0.204 C 
ENDBRANCH   6  14
ENDBRANCH   1   2
BRANCH   1  16
ATOM     16  N   MMA d          -9.890  17.047  22.685  0.00  0.00    -0.313 N 
ATOM     17  H14 MMA d          -9.969  16.556  21.817  0.00  0.00     0.172 HD
BRANCH  16  18
ATOM     18  S   MMA d         -11.032  18.124  23.155  0.00  0.00     0.259 S 
ATOM     19  O1  MMA d         -12.147  17.985  22.255  0.00  0.00    -0.200 OA
ATOM     20  O2  MMA d         -10.360  19.380  23.244  0.00  0.00    -0.200 OA
BRANCH  18  21
ATOM     21  C1  MMA d         -11.489  17.632  24.708  0.00  0.00     0.091 A 
ATOM     22  C2  MMA d         -11.145  18.361  25.946  0.00  0.00    -0.038 A 
ATOM     23  C3  MMA d         -11.479  17.830  27.183  0.00  0.00     0.015 A 
ATOM     24  C7  MMA d         -10.388  19.661  25.956  0.00  0.00     0.050 C 
ATOM     25  C4  MMA d         -12.184  16.658  27.302  0.00  0.00    -0.061 A 
ATOM     26  C5  MMA d         -12.532  15.902  26.196  0.00  0.00     0.015 A 
ATOM     27  C8  MMA d         -12.562  16.172  28.672  0.00  0.00     0.048 C 
ATOM     28  C6  MMA d         -12.211  16.368  24.919  0.00  0.00    -0.038 A 
ATOM     29  C9  MMA d         -12.585  15.528  23.734  0.00  0.00     0.050 C 
ENDBRANCH  18  21
ENDBRANCH  16  18
ENDBRANCH   1  16
TORSDOF 8
