REMARK  6 active torsions:
REMARK  status: ('A' for Active; 'I' for Inactive)
REMARK    1  A    between atoms: C9_6  and  C4_5 
REMARK    2  A    between atoms: S1_7  and  N1_10 
REMARK    3  A    between atoms: S1_7  and  C6_28 
REMARK    4  A    between atoms: N1_10  and  C12_11 
REMARK    5  A    between atoms: N2_16  and  C16_17 
REMARK    6  A    between atoms: C16_17  and  C18_19 
REMARK       I    between atoms: C18_19  and  N3_21 
ROOT
ATOM      1  C12 MOL d           6.907  17.934  49.700  0.00  0.00     0.186 C 
ATOM      2  C13 MOL d           5.960  16.930  50.384  0.00  0.00     0.055 C 
ATOM      3  C14 MOL d           4.559  17.285  49.864  0.00  0.00     0.129 C 
ATOM      4  C15 MOL d           6.027  18.985  49.071  0.00  0.00     0.244 C 
ATOM      5  O3  MOL d           6.408  20.086  48.695  0.00  0.00    -0.271 OA
ATOM      6  N2  MOL d           4.779  18.454  49.006  0.00  0.00    -0.337 N 
ENDROOT
BRANCH   1   7
ATOM      7  N1  MOL d           7.913  18.434  50.610  0.00  0.00    -0.302 N 
ATOM      8  H4  MOL d           7.655  18.940  51.433  0.00  0.00     0.173 HD
BRANCH   7   9
ATOM      9  S1  MOL d           9.477  18.151  50.260  0.00  0.00     0.249 S 
ATOM     10  O2  MOL d          10.171  18.257  51.508  0.00  0.00    -0.201 OA
ATOM     11  O1  MOL d           9.620  16.996  49.427  0.00  0.00    -0.201 OA
BRANCH   9  12
ATOM     12  C6  MOL d           9.927  19.486  49.239  0.00  0.00     0.132 C 
ATOM     13  C9  MOL d           9.712  20.781  49.552  0.00  0.00     0.032 C 
BRANCH  13  14
ATOM     14  C4  MOL d          10.019  21.788  48.492  0.00  0.00     0.007 A 
ATOM     15  C3  MOL d          10.959  21.655  47.457  0.00  0.00     0.021 A 
ATOM     16  C2  MOL d          11.013  22.772  46.603  0.00  0.00     0.033 A 
ATOM     17  C1  MOL d          10.093  23.744  47.019  0.00  0.00     0.075 A 
ATOM     18 CL1  MOL d           9.846  25.266  46.266  0.00  0.00    -0.076 Cl
ATOM     19  S6  MOL d           9.234  23.276  48.421  0.00  0.00    -0.078 SA
ENDBRANCH  13  14
ENDBRANCH   9  12
ENDBRANCH   7   9
ENDBRANCH   1   7
BRANCH   6  20
ATOM     20  C16 MOL d           3.722  18.992  48.148  0.00  0.00     0.175 C 
ATOM     21  C17 MOL d           3.673  18.182  46.843  0.00  0.00     0.042 C 
BRANCH  20  22
ATOM     22  C18 MOL d           2.350  19.029  48.833  0.00  0.00     0.242 C 
ATOM     23  O4  MOL d           1.424  18.389  48.326  0.00  0.00    -0.271 OA
ATOM     24  N3  MOL d           2.240  19.786  49.996  0.00  0.00    -0.346 N 
ATOM     25  C19 MOL d           0.981  19.796  50.750  0.00  0.00     0.152 C 
ATOM     26  C23 MOL d           3.285  20.660  50.578  0.00  0.00     0.152 C 
ATOM     27  C20 MOL d           1.169  19.767  52.271  0.00  0.00     0.187 C 
ATOM     28  O5  MOL d           2.184  20.669  52.712  0.00  0.00    -0.388 OA
ATOM     29  C22 MOL d           3.442  20.418  52.089  0.00  0.00     0.187 C 
ENDBRANCH  20  22
ENDBRANCH   6  20
TORSDOF 6
