REMARK  3 active torsions:
REMARK  status: ('A' for Active; 'I' for Inactive)
REMARK    1  A    between atoms: C3_1  and  S1_14 
REMARK    2  A    between atoms: C15_9  and  O5_2 
REMARK    3  A    between atoms: S1_14  and  N21_13 
ROOT
ATOM      1  C3  AL6 d          -5.265   1.959  15.920  0.00  0.00     0.122 A 
ATOM      2  C9  AL6 d          -2.455   4.984  13.763  0.00  0.00     0.111 C 
ATOM      3  C10 AL6 d          -2.593   3.705  14.280  0.00  0.00     0.032 C 
ATOM      4  C11 AL6 d          -2.966   7.209  13.599  0.00  0.00     0.052 A 
ATOM      5  C12 AL6 d          -3.377   8.035  12.537  0.00  0.00     0.031 A 
ATOM      6  C13 AL6 d          -2.940   9.355  12.468  0.00  0.00     0.005 A 
ATOM      7  C14 AL6 d          -2.102   9.856  13.461  0.00  0.00     0.037 A 
ATOM      8  C15 AL6 d          -1.704   9.012  14.531  0.00  0.00     0.070 A 
ATOM      9  C16 AL6 d          -2.132   7.689  14.604  0.00  0.00     0.067 A 
ATOM     10  C4  AL6 d          -3.995   2.040  15.398  0.00  0.00     0.046 A 
ATOM     11  C5  AL6 d          -3.805   3.256  14.789  0.00  0.00    -0.003 A 
ATOM     12  C6  AL6 d          -4.921   4.068  14.797  0.00  0.00     0.132 A 
ATOM     13  S2  AL6 d          -6.198   3.356  15.626  0.00  0.00    -0.062 SA
ATOM     14  S7  AL6 d          -4.874   5.581  14.007  0.00  0.00     0.276 S 
ATOM     15  O3B AL6 d          -5.490   5.309  12.775  0.00  0.00    -0.199 OA
ATOM     16  O4B AL6 d          -5.729   6.475  14.731  0.00  0.00    -0.199 OA
ATOM     17  N8  AL6 d          -3.463   5.964  13.625  0.00  0.00    -0.246 N 
ENDROOT
BRANCH   8  18
ATOM     18  O5  AL6 d          -0.934   9.402  15.511  0.00  0.00    -0.356 OA
ATOM     19  C17 AL6 d          -0.448  10.767  15.499  0.00  0.00     0.210 C 
ENDBRANCH   8  18
BRANCH   1  20
ATOM     20  S1  AL6 d          -5.887   0.624  16.789  0.00  0.00     0.263 S 
ATOM     21  O1A AL6 d          -5.288   0.724  18.041  0.00  0.00    -0.200 OA
ATOM     22  O2A AL6 d          -7.287   0.787  16.854  0.00  0.00    -0.200 OA
BRANCH  20  23
ATOM     23  N21 AL6 d          -5.486  -0.771  16.135  0.00  0.00    -0.324 N 
ATOM     24  H7  AL6 d          -5.792  -1.626  16.554  0.00  0.00     0.169 HD
ATOM     25  H8  AL6 d          -4.928  -0.792  15.305  0.00  0.00     0.169 HD
ENDBRANCH  20  23
ENDBRANCH   1  20
TORSDOF 3
