REMARK  3 active torsions:
REMARK  status: ('A' for Active; 'I' for Inactive)
REMARK    1  A    between atoms: C1_1  and  C2_4 
REMARK    2  A    between atoms: C2_4  and  C3_6 
REMARK    3  A    between atoms: C3_6  and  C4_7 
ROOT
ATOM      1  C2  COI d          -8.337 -31.530  14.747  0.00  0.00     0.225 C 
ATOM      2  O3  COI d          -8.668 -30.395  14.973  0.00  0.00    -0.286 OA
ENDROOT
BRANCH   1   3
ATOM      3  C1  COI d          -7.986 -31.942  13.375  0.00  0.00     0.246 C 
ATOM      4  O1  COI d          -8.589 -31.478  12.376  0.00  0.00    -0.642 OA
ATOM      5  O2  COI d          -7.065 -32.795  13.236  0.00  0.00    -0.642 OA
ENDBRANCH   1   3
BRANCH   1   6
ATOM      6  C3  COI d          -8.257 -32.584  15.836  0.00  0.00     0.094 C 
BRANCH   6   7
ATOM      7  C4  COI d          -9.353 -32.667  16.902  0.00  0.00    -0.015 C 
ATOM      8  C5  COI d          -8.989 -32.143  18.200  0.00  0.00     0.010 C 
ATOM      9  C6  COI d         -10.697 -32.266  16.424  0.00  0.00     0.010 C 
ENDBRANCH   6   7
ENDBRANCH   1   6
TORSDOF 3
