REMARK  6 active torsions:
REMARK  status: ('A' for Active; 'I' for Inactive)
REMARK    1  A    between atoms: C5_2  and  S2_4 
REMARK    2  A    between atoms: S2_4  and  N3_6 
REMARK    3  A    between atoms: C8_9  and  S11_11 
REMARK    4  A    between atoms: S11_11  and  C12_12 
REMARK    5  A    between atoms: C12_12  and  C13_13 
REMARK    6  A    between atoms: C13_13  and  O14_14 
ROOT
ATOM      1  C6  MOL d          14.117  36.904  18.066  0.00  0.00     0.026 A 
ATOM      2  C5  MOL d          14.279  36.026  19.122  0.00  0.00     0.079 A 
ATOM      3  C10 MOL d          13.799  34.705  19.095  0.00  0.00     0.026 A 
ATOM      4  C9  MOL d          13.171  34.230  17.929  0.00  0.00     0.020 A 
ATOM      5  C8  MOL d          12.987  35.105  16.841  0.00  0.00     0.000 A 
ATOM      6  C7  MOL d          13.469  36.429  16.908  0.00  0.00     0.020 A 
ENDROOT
BRANCH   2   7
ATOM      7  S2  MOL d          15.054  36.688  20.595  0.00  0.00     0.256 S 
ATOM      8  O4  MOL d          14.155  37.748  21.116  0.00  0.00    -0.201 OA
ATOM      9  O1  MOL d          15.164  35.538  21.612  0.00  0.00    -0.201 OA
BRANCH   7  10
ATOM     10  N3  MOL d          16.626  37.316  20.392  0.00  0.00    -0.324 N 
ATOM     11  H2  MOL d          17.116  37.701  21.174  0.00  0.00     0.169 HD
ATOM     12  H3  MOL d          17.058  37.299  19.491  0.00  0.00     0.169 HD
ENDBRANCH   7  10
ENDBRANCH   2   7
BRANCH   5  13
ATOM     13  S11 MOL d          12.160  34.545  15.316  0.00  0.00    -0.128 SA
BRANCH  13  14
ATOM     14  C12 MOL d          10.528  35.371  15.348  0.00  0.00     0.105 C 
BRANCH  14  15
ATOM     15  C13 MOL d          10.082  35.759  13.935  0.00  0.00     0.174 C 
BRANCH  15  16
ATOM     16  O14 MOL d           8.682  35.700  13.910  0.00  0.00    -0.400 OA
ATOM     17  H11 MOL d           8.372  35.936  13.044  0.00  0.00     0.209 HD
ENDBRANCH  15  16
ENDBRANCH  14  15
ENDBRANCH  13  14
ENDBRANCH   5  13
TORSDOF 6
