REMARK  5 active torsions:
REMARK  status: ('A' for Active; 'I' for Inactive)
REMARK    1  A    between atoms: N02_2  and  C03_3 
REMARK    2  A    between atoms: C07_7  and  C08_8 
REMARK    3  A    between atoms: C10_10  and  N11_11 
REMARK    4  A    between atoms: N11_11  and  C12_12 
REMARK    5  A    between atoms: C14_14  and  O15_15 
ROOT
ATOM      1  C08 T9N d          33.688 -14.900  30.393  0.00  0.00     0.092 A 
ATOM      2  N09 T9N d          33.394 -16.216  30.157  0.00  0.00    -0.064 NA
ATOM      3  C10 T9N d          33.253 -16.861  28.967  0.00  0.00     0.727 A 
ATOM      4  N19 T9N d          33.435 -16.046  27.946  0.00  0.00    -0.073 NA
ATOM      5  C20 T9N d          33.726 -14.736  28.049  0.00  0.00     0.161 A 
ATOM      6  C21 T9N d          33.880 -14.057  29.278  0.00  0.00     0.089 A 
ATOM      7  C22 T9N d          34.232 -12.611  29.342  0.00  0.00     0.103 C 
ATOM      8  N23 T9N d          34.497 -11.503  29.369  0.00  0.00    -0.191 NA
ENDROOT
BRANCH   1   9
ATOM      9  C07 T9N d          33.774 -14.463  31.827  0.00  0.00     0.134 C 
ATOM     10  C05 T9N d          33.922 -13.135  32.407  0.00  0.00     0.127 C 
ATOM     11  N04 T9N d          34.809 -13.160  33.492  0.00  0.00    -0.261 NA
ATOM     12  C06 T9N d          33.052 -11.964  32.069  0.00  0.00     0.036 C 
ATOM     13  C03 T9N d          35.348 -14.351  33.791  0.00  0.00     0.158 C 
ATOM     14  S24 T9N d          34.290 -15.537  33.126  0.00  0.00    -0.079 SA
BRANCH  13  15
ATOM     15  N02 T9N d          36.668 -14.616  34.298  0.00  0.00    -0.374 N 
ATOM     16  C01 T9N d          37.110 -13.532  35.122  0.00  0.00     0.148 C 
ATOM     17  H4  T9N d          37.217 -15.464  34.097  0.00  0.00     0.161 HD
ENDBRANCH  13  15
ENDBRANCH   1   9
BRANCH   3  18
ATOM     18  N11 T9N d          32.996 -18.268  28.845  0.00  0.00    -0.188 N 
ATOM     19  H10 T9N d          32.430 -18.616  28.058  0.00  0.00     0.184 HD
BRANCH  18  20
ATOM     20  C12 T9N d          33.524 -19.202  29.816  0.00  0.00     0.052 A 
ATOM     21  C13 T9N d          34.360 -18.793  30.803  0.00  0.00     0.066 A 
ATOM     22  C14 T9N d          34.890 -19.786  31.818  0.00  0.00     0.067 A 
ATOM     23  C16 T9N d          34.527 -21.095  31.738  0.00  0.00     0.036 A 
ATOM     24  C17 T9N d          33.612 -21.548  30.661  0.00  0.00     0.005 A 
ATOM     25  C18 T9N d          33.129 -20.650  29.737  0.00  0.00     0.030 A 
BRANCH  22  26
ATOM     26  O15 T9N d          35.740 -19.375  32.818  0.00  0.00    -0.361 OA
ATOM     27  H12 T9N d          35.973 -20.120  33.360  0.00  0.00     0.217 HD
ENDBRANCH  22  26
ENDBRANCH  18  20
ENDBRANCH   3  18
TORSDOF 5
