REMARK  9 active torsions:
REMARK  status: ('A' for Active; 'I' for Inactive)
REMARK    1  A    between atoms: C1_1  and  O1_7 
REMARK    2  A    between atoms: C2_2  and  O2_8 
REMARK    3  A    between atoms: C3_3  and  O3_9 
REMARK    4  A    between atoms: C4_4  and  O4_10 
REMARK    5  A    between atoms: C5_5  and  O5_11 
REMARK    6  A    between atoms: C6_6  and  O6_12 
REMARK    7  A    between atoms: O1_7  and  P1_13 
REMARK    8  A    between atoms: O4_10  and  P4_17 
REMARK    9  A    between atoms: O5_11  and  P5_21 
ROOT
ATOM      1  C1  I3P d          33.728  18.040   3.967  0.00  0.00     0.198 C 
ATOM      2  C2  I3P d          34.238  18.504   5.338  0.00  0.00     0.181 C 
ATOM      3  C3  I3P d          33.200  18.234   6.408  0.00  0.00     0.181 C 
ATOM      4  C4  I3P d          32.880  16.741   6.442  0.00  0.00     0.199 C 
ATOM      5  C5  I3P d          32.371  16.278   5.067  0.00  0.00     0.199 C 
ATOM      6  C6  I3P d          33.417  16.547   3.994  0.00  0.00     0.182 C 
ENDROOT
BRANCH   1   7
ATOM      7  O1  I3P d          34.677  18.202   2.840  0.00  0.00    -0.272 OA
BRANCH   7   8
ATOM      8  P1  I3P d          35.011  19.612   2.190  0.00  0.00     0.422 P 
ATOM      9  O13 I3P d          33.795  19.825   1.415  0.00  0.00    -0.617 OA
ATOM     10  O12 I3P d          35.108  20.522   3.363  0.00  0.00    -0.617 OA
ATOM     11  O11 I3P d          36.281  19.427   1.443  0.00  0.00    -0.617 OA
ENDBRANCH   7   8
ENDBRANCH   1   7
BRANCH   6  12
ATOM     12  O6  I3P d          32.965  16.120   2.715  0.00  0.00    -0.390 OA
ATOM     13  H9  I3P d          32.788  15.187   2.738  0.00  0.00     0.210 HD
ENDBRANCH   6  12
BRANCH   2  14
ATOM     14  O2  I3P d          35.447  17.842   5.674  0.00  0.00    -0.390 OA
ATOM     15  H7  I3P d          35.745  18.142   6.524  0.00  0.00     0.210 HD
ENDBRANCH   2  14
BRANCH   5  16
ATOM     16  O5  I3P d          32.170  14.832   5.098  0.00  0.00    -0.272 OA
BRANCH  16  17
ATOM     17  P5  I3P d          30.940  14.040   4.445  0.00  0.00     0.422 P 
ATOM     18  O53 I3P d          31.187  14.276   3.018  0.00  0.00    -0.617 OA
ATOM     19  O52 I3P d          29.750  14.735   5.020  0.00  0.00    -0.617 OA
ATOM     20  O51 I3P d          31.221  12.666   4.928  0.00  0.00    -0.617 OA
ENDBRANCH  16  17
ENDBRANCH   5  16
BRANCH   3  21
ATOM     21  O3  I3P d          33.712  18.641   7.659  0.00  0.00    -0.390 OA
ATOM     22  H8  I3P d          33.065  18.474   8.334  0.00  0.00     0.210 HD
ENDBRANCH   3  21
BRANCH   4  23
ATOM     23  O4  I3P d          31.921  16.482   7.552  0.00  0.00    -0.272 OA
BRANCH  23  24
ATOM     24  P4  I3P d          32.260  15.794   8.967  0.00  0.00     0.422 P 
ATOM     25  O43 I3P d          31.004  15.333   9.614  0.00  0.00    -0.617 OA
ATOM     26  O42 I3P d          32.915  16.882   9.705  0.00  0.00    -0.617 OA
ATOM     27  O41 I3P d          33.200  14.745   8.487  0.00  0.00    -0.617 OA
ENDBRANCH  23  24
ENDBRANCH   4  23
TORSDOF 9
