REMARK  5 active torsions:
REMARK  status: ('A' for Active; 'I' for Inactive)
REMARK    1  A    between atoms: N_1  and  CA_2 
REMARK    2  A    between atoms: CA_2  and  C_3 
REMARK    3  A    between atoms: CA_2  and  CB_5 
REMARK    4  A    between atoms: CB_5  and  CG_6 
REMARK    5  A    between atoms: CG_6  and  CD_7 
ROOT
ATOM      1  CA  GLU d          20.570  19.376  14.053  0.00  0.00     0.283 C 
ENDROOT
BRANCH   1   2
ATOM      2  N   GLU d          20.806  20.678  13.358  0.00  0.00    -0.065 N 
ATOM      3  H1  GLU d          21.796  20.864  13.319  0.00  0.00     0.275 HD
ATOM      4  H2  GLU d          20.345  21.418  13.864  0.00  0.00     0.275 HD
ATOM      5  H3  GLU d          20.436  20.631  12.421  0.00  0.00     0.275 HD
ENDBRANCH   1   2
BRANCH   1   6
ATOM      6  C   GLU d          19.078  19.065  14.128  0.00  0.00     0.204 C 
ATOM      7  O   GLU d          18.722  18.034  14.727  0.00  0.00    -0.646 OA
ATOM      8  OXT GLU d          18.285  19.864  13.581  0.00  0.00    -0.646 OA
ENDBRANCH   1   6
BRANCH   1   9
ATOM      9  CB  GLU d          21.163  19.419  15.466  0.00  0.00     0.054 C 
BRANCH   9  10
ATOM     10  CG  GLU d          22.682  19.317  15.508  0.00  0.00     0.116 C 
BRANCH  10  11
ATOM     11  CD  GLU d          23.186  17.914  15.238  0.00  0.00     0.172 C 
ATOM     12  OE1 GLU d          24.390  17.761  14.934  0.00  0.00    -0.648 OA
ATOM     13  OE2 GLU d          22.387  16.957  15.343  0.00  0.00    -0.648 OA
ENDBRANCH  10  11
ENDBRANCH   9  10
ENDBRANCH   1   9
TORSDOF 5
