REMARK  22 active torsions:
REMARK  status: ('A' for Active; 'I' for Inactive)
REMARK    1  A    between atoms: CA_2  and  N_1 
REMARK    2  A    between atoms: N_1  and  CBA_26 
REMARK    3  A    between atoms: C_18  and  CA_2 
REMARK    4  A    between atoms: CA_2  and  CB_25 
REMARK    5  A    between atoms: CBI_29  and  CAZ_17 
REMARK    6  A    between atoms: CAZ_17  and  NBD_39 
REMARK       I    between atoms: NBD_39  and  C_18 
REMARK       I    between atoms: CBH_28  and  NAC_20 
REMARK    7  A    between atoms: CBK_30  and  OAG_23 
REMARK    8  A    between atoms: CBP_35  and  OAH_24 
REMARK    9  A    between atoms: CB_25  and  CG_42 
REMARK   10  A    between atoms: CBA_26  and  CBL_31 
REMARK   11  A    between atoms: CBB_27  and  CBM_32 
REMARK   12  A    between atoms: CBR_36  and  CBB_27 
REMARK   13  A    between atoms: CBR_36  and  CBH_28 
REMARK       I    between atoms: NBF_40  and  CBI_29 
REMARK   14  A    between atoms: CBS_37  and  CBK_30 
REMARK   15  A    between atoms: CBK_30  and  NBG_41 
REMARK   16  A    between atoms: CBN_33  and  CBO_34 
REMARK   17  A    between atoms: CBS_37  and  CBP_35 
REMARK   18  A    between atoms: NBG_41  and  CBR_36 
REMARK   19  A    between atoms: CBS_37  and  NBF_40 
REMARK   20  A    between atoms: CG_42  and  CD_43 
REMARK   21  A    between atoms: CD_43  and  CE_44 
REMARK   22  A    between atoms: CE_44  and  NZ_45 
ROOT
ATOM      1  CAZ MOL d           2.472  32.581   7.678  0.00  0.00     0.225 C 
ENDROOT
BRANCH   1   2
ATOM      2  CBI MOL d           1.244  31.662   7.774  0.00  0.00     0.235 C 
ATOM      3  OAE MOL d           0.170  32.117   7.562  0.00  0.00    -0.272 OA
ATOM      4  NBF MOL d           1.292  30.252   8.133  0.00  0.00    -0.348 N 
ATOM      5  H37 MOL d           0.408  29.786   8.179  0.00  0.00     0.163 HD
BRANCH   4   6
ATOM      6  CBS MOL d           2.452  29.432   8.433  0.00  0.00     0.169 C 
BRANCH   6   7
ATOM      7  CBK MOL d           1.761  28.074   8.530  0.00  0.00     0.345 C 
BRANCH   7   8
ATOM      8  OAG MOL d           0.601  28.352   9.268  0.00  0.00    -0.368 OA
ATOM      9  H24 MOL d           0.843  28.624  10.146  0.00  0.00     0.212 HD
ENDBRANCH   7   8
BRANCH   7  10
ATOM     10  NBG MOL d           1.491  27.643   7.152  0.00  0.00    -0.034 N 
ATOM     11  H38 MOL d           2.349  27.244   6.804  0.00  0.00     0.281 HD
ATOM     12  H39 MOL d           1.272  28.477   6.630  0.00  0.00     0.281 HD
BRANCH  10  13
ATOM     13  CBR MOL d           0.426  26.670   6.850  0.00  0.00     0.284 C 
BRANCH  13  14
ATOM     14  CBB MOL d          -0.137  25.863   8.030  0.00  0.00     0.081 C 
BRANCH  14  15
ATOM     15  CBM MOL d          -1.624  25.510   7.860  0.00  0.00    -0.056 A 
ATOM     16  CAN MOL d          -2.229  25.558   6.605  0.00  0.00     0.007 A 
ATOM     17  CAJ MOL d          -3.561  25.230   6.449  0.00  0.00     0.001 A 
ATOM     18  CAI MOL d          -4.302  24.858   7.559  0.00  0.00     0.000 A 
ATOM     19  CAK MOL d          -3.718  24.812   8.813  0.00  0.00     0.001 A 
ATOM     20  CAO MOL d          -2.378  25.140   8.965  0.00  0.00     0.007 A 
ENDBRANCH  14  15
ENDBRANCH  13  14
BRANCH  13  21
ATOM     21  CBH MOL d           0.939  25.669   5.809  0.00  0.00     0.246 C 
ATOM     22  NAC MOL d           2.181  25.912   5.083  0.00  0.00    -0.368 N 
ATOM     23  H22 MOL d           2.708  26.744   5.258  0.00  0.00     0.159 HD
ATOM     24  H23 MOL d           2.505  25.247   4.410  0.00  0.00     0.159 HD
ATOM     25  OAD MOL d           0.317  24.680   5.597  0.00  0.00    -0.271 OA
ENDBRANCH  13  21
ENDBRANCH  10  13
ENDBRANCH   7  10
ENDBRANCH   6   7
BRANCH   6  26
ATOM     26  CBP MOL d           3.177  29.853   9.731  0.00  0.00     0.141 C 
ATOM     27  CAA MOL d           3.250  28.756  10.544  0.00  0.00     0.041 C 
BRANCH  26  28
ATOM     28  OAH MOL d           4.598  30.387   9.550  0.00  0.00    -0.394 OA
ATOM     29  H25 MOL d           4.578  31.152   8.987  0.00  0.00     0.210 HD
ENDBRANCH  26  28
ENDBRANCH   6  26
ENDBRANCH   4   6
ENDBRANCH   1   2
BRANCH   1  30
ATOM     30  NBD MOL d           2.146  33.991   7.528  0.00  0.00    -0.351 N 
ATOM     31  C   MOL d           2.892  35.061   8.183  0.00  0.00     0.248 C 
ATOM     32  O   MOL d           3.810  34.823   8.897  0.00  0.00    -0.271 OA
ATOM     33  H36 MOL d           1.371  34.240   6.947  0.00  0.00     0.163 HD
BRANCH  31  34
ATOM     34  CA  MOL d           2.416  36.502   7.950  0.00  0.00     0.277 C 
BRANCH  34  35
ATOM     35  N   MOL d           2.745  37.356   9.104  0.00  0.00    -0.059 N 
ATOM     36  H1  MOL d           3.000  38.271   8.766  0.00  0.00     0.278 HD
ATOM     37  H2  MOL d           3.526  36.949   9.594  0.00  0.00     0.278 HD
BRANCH  35  38
ATOM     38  CBA MOL d           1.615  37.498  10.049  0.00  0.00     0.271 C 
BRANCH  38  39
ATOM     39  CBL MOL d           1.075  36.133  10.500  0.00  0.00    -0.033 A 
ATOM     40  CAQ MOL d           0.041  35.505   9.799  0.00  0.00     0.010 A 
ATOM     41  CAS MOL d          -0.433  34.261  10.184  0.00  0.00     0.013 A 
ATOM     42  CBN MOL d           0.130  33.662  11.300  0.00  0.00    -0.025 A 
ATOM     43  CAT MOL d           1.158  34.273  12.011  0.00  0.00     0.013 A 
ATOM     44  CAR MOL d           1.634  35.517  11.612  0.00  0.00     0.010 A 
BRANCH  42  45
ATOM     45  CBO MOL d          -0.380  32.294  11.722  0.00  0.00    -0.008 A 
ATOM     46  CAP MOL d           0.394  31.495  12.546  0.00  0.00     0.015 A 
ATOM     47  CAL MOL d          -0.089  30.244  12.903  0.00  0.00     0.020 A 
ATOM     48  CAM MOL d          -1.317  29.846  12.405  0.00  0.00     0.116 A 
ATOM     49  NBC MOL d          -2.032  30.628  11.616  0.00  0.00    -0.272 NA
ATOM     50  CAU MOL d          -1.597  31.819  11.256  0.00  0.00     0.128 A 
ENDBRANCH  42  45
ENDBRANCH  38  39
ENDBRANCH  35  38
ENDBRANCH  34  35
BRANCH  34  51
ATOM     51  CB  MOL d           2.908  37.030   6.605  0.00  0.00     0.043 C 
BRANCH  51  52
ATOM     52  CG  MOL d           2.138  38.292   6.226  0.00  0.00     0.004 C 
BRANCH  52  53
ATOM     53  CD  MOL d           1.283  38.095   4.986  0.00  0.00     0.027 C 
BRANCH  53  54
ATOM     54  CE  MOL d           0.835  39.414   4.354  0.00  0.00     0.229 C 
BRANCH  54  55
ATOM     55  NZ  MOL d          -0.379  39.203   3.580  0.00  0.00    -0.079 N 
ATOM     56  H46 MOL d          -0.669  40.075   3.166  0.00  0.00     0.274 HD
ATOM     57  H47 MOL d          -1.108  38.859   4.185  0.00  0.00     0.274 HD
ATOM     58  H48 MOL d          -0.201  38.529   2.852  0.00  0.00     0.274 HD
ENDBRANCH  54  55
ENDBRANCH  53  54
ENDBRANCH  52  53
ENDBRANCH  51  52
ENDBRANCH  34  51
ENDBRANCH  31  34
ENDBRANCH   1  30
TORSDOF 22
