REMARK WARNING: 32 MAX_TORS EXCEEDED!!!
REMARK  34 active torsions:
REMARK  status: ('A' for Active; 'I' for Inactive)
REMARK    1  A    between atoms: O4_20  and  C1_1 
REMARK    2  A    between atoms: C2_2  and  O2_7 
REMARK    3  A    between atoms: C3_3  and  O3_8 
REMARK    4  A    between atoms: C4_4  and  O4_9 
REMARK    5  A    between atoms: C5_5  and  C6_6 
REMARK    6  A    between atoms: C6_6  and  O6_11 
REMARK    7  A    between atoms: O4_33  and  C1_12 
REMARK    8  A    between atoms: C2_13  and  O2_18 
REMARK    9  A    between atoms: C3_14  and  O3_19 
REMARK   10  A    between atoms: C4_15  and  O4_20 
REMARK   11  A    between atoms: C5_16  and  C6_17 
REMARK   12  A    between atoms: C6_17  and  O6_22 
REMARK   13  A    between atoms: N1_30  and  C1_23 
REMARK   14  A    between atoms: C2_24  and  O2_31 
REMARK   15  A    between atoms: C3_25  and  O3_32 
REMARK   16  A    between atoms: C4_26  and  O4_33 
REMARK   17  A    between atoms: C5_27  and  C6_28 
REMARK   18  A    between atoms: C6_28  and  O6_34 
REMARK   19  A    between atoms: C4A_40  and  N1_30 
REMARK   20  A    between atoms: O4_52  and  C1_35 
REMARK   21  A    between atoms: C2_37  and  O2_36 
REMARK   22  A    between atoms: C3A_38  and  O3A_39 
REMARK   23  A    between atoms: O4_64  and  C1_44 
REMARK   24  A    between atoms: C2_45  and  O2_50 
REMARK   25  A    between atoms: C3_46  and  O3_51 
REMARK   26  A    between atoms: C4_47  and  O4_52 
REMARK   27  A    between atoms: C5_48  and  C6_49 
REMARK   28  A    between atoms: C6_49  and  O6_54 
REMARK   29  A    between atoms: C1_55  and  O1_61 
REMARK   30  A    between atoms: C2_56  and  O2_62 
REMARK   31  A    between atoms: C3_57  and  O3_63 
REMARK   32  A    between atoms: C4_58  and  O4_64 
REMARK   33  A    between atoms: C5_59  and  C6_60 
REMARK   34  A    between atoms: C6_60  and  O6_66 
ROOT
ATOM      1  N1  GLC d           8.755 -16.428 -21.564  0.00  0.00    -0.056 N 
ATOM      2  H29 GLC d           8.536 -15.585 -22.071  0.00  0.00     0.278 HD
ATOM      3  H30 GLC d           8.230 -16.448 -20.704  0.00  0.00     0.278 HD
ENDROOT
BRANCH   1   4
ATOM      4  C1  GLC d          10.210 -16.485 -21.274  0.00  0.00     0.240 C 
ATOM      5  C2  GLC d          11.092 -15.257 -21.157  0.00  0.00     0.184 C 
ATOM      6  C3  GLC d          11.793 -15.233 -22.503  0.00  0.00     0.182 C 
ATOM      7  C4  GLC d          12.621 -16.525 -22.669  0.00  0.00     0.187 C 
ATOM      8  C5  GLC d          12.166 -17.757 -21.852  0.00  0.00    -0.027 C 
ATOM      9  C7  GLC d          10.972 -17.794 -21.154  0.00  0.00     0.016 C 
BRANCH   5  10
ATOM     10  O2  GLC d          10.427 -14.102 -20.614  0.00  0.00    -0.390 OA
ATOM     11  H31 GLC d          10.054 -14.321 -19.768  0.00  0.00     0.210 HD
ENDBRANCH   5  10
BRANCH   6  12
ATOM     12  O3  GLC d          12.560 -14.040 -22.687  0.00  0.00    -0.390 OA
ATOM     13  H32 GLC d          11.998 -13.283 -22.573  0.00  0.00     0.210 HD
ENDBRANCH   6  12
BRANCH   7  14
ATOM     14  O4  GLC d          12.638 -16.836 -24.057  0.00  0.00    -0.346 OA
BRANCH  14  15
ATOM     15  C1  GLC d          13.631 -16.236 -24.902  0.00  0.00     0.292 C 
ATOM     16  C2  GLC d          13.114 -16.062 -26.314  0.00  0.00     0.204 C 
ATOM     17  C3  GLC d          13.227 -17.330 -27.154  0.00  0.00     0.183 C 
ATOM     18  C4  GLC d          14.610 -17.898 -27.003  0.00  0.00     0.187 C 
ATOM     19  C5  GLC d          14.946 -18.151 -25.533  0.00  0.00     0.180 C 
ATOM     20  O5  GLC d          14.923 -16.885 -24.826  0.00  0.00    -0.348 OA
BRANCH  16  21
ATOM     21  O2  GLC d          11.759 -15.651 -26.277  0.00  0.00    -0.388 OA
ATOM     22  H19 GLC d          11.231 -16.340 -25.890  0.00  0.00     0.210 HD
ENDBRANCH  16  21
BRANCH  17  23
ATOM     23  O3  GLC d          12.955 -17.078 -28.517  0.00  0.00    -0.390 OA
ATOM     24  H20 GLC d          13.015 -17.890 -29.006  0.00  0.00     0.210 HD
ENDBRANCH  17  23
BRANCH  18  25
ATOM     25  O4  GLC d          14.736 -19.113 -27.753  0.00  0.00    -0.348 OA
BRANCH  25  26
ATOM     26  C1  GLC d          15.869 -19.130 -28.552  0.00  0.00     0.292 C 
ATOM     27  C2  GLC d          15.463 -19.188 -30.012  0.00  0.00     0.204 C 
ATOM     28  C3  GLC d          14.856 -20.552 -30.336  0.00  0.00     0.183 C 
ATOM     29  C4  GLC d          15.778 -21.667 -29.845  0.00  0.00     0.180 C 
ATOM     30  C5  GLC d          16.092 -21.489 -28.363  0.00  0.00     0.179 C 
ATOM     31  O5  GLC d          16.713 -20.218 -28.179  0.00  0.00    -0.348 OA
BRANCH  27  32
ATOM     32  O2  GLC d          14.525 -18.165 -30.269  0.00  0.00    -0.388 OA
ATOM     33  H8  GLC d          13.755 -18.300 -29.729  0.00  0.00     0.210 HD
ENDBRANCH  27  32
BRANCH  28  34
ATOM     34  O3  GLC d          14.693 -20.665 -31.734  0.00  0.00    -0.390 OA
ATOM     35  H9  GLC d          14.310 -21.510 -31.940  0.00  0.00     0.210 HD
ENDBRANCH  28  34
BRANCH  29  36
ATOM     36  O4  GLC d          15.153 -22.921 -30.049  0.00  0.00    -0.390 OA
ATOM     37  H10 GLC d          14.958 -23.030 -30.972  0.00  0.00     0.210 HD
ENDBRANCH  29  36
BRANCH  30  38
ATOM     38  C6  GLC d          17.011 -22.537 -27.799  0.00  0.00     0.198 C 
BRANCH  38  39
ATOM     39  O6  GLC d          17.996 -22.882 -28.755  0.00  0.00    -0.398 OA
ATOM     40  H11 GLC d          17.573 -23.223 -29.535  0.00  0.00     0.209 HD
ENDBRANCH  38  39
ENDBRANCH  30  38
ENDBRANCH  25  26
ENDBRANCH  18  25
BRANCH  19  41
ATOM     41  C6  GLC d          16.288 -18.836 -25.304  0.00  0.00     0.198 C 
BRANCH  41  42
ATOM     42  O6  GLC d          17.349 -18.147 -25.910  0.00  0.00    -0.398 OA
ATOM     43  H21 GLC d          17.200 -18.098 -26.847  0.00  0.00     0.209 HD
ENDBRANCH  41  42
ENDBRANCH  19  41
ENDBRANCH  14  15
ENDBRANCH   7  14
BRANCH   8  44
ATOM     44  C6  GLC d          13.086 -18.989 -21.840  0.00  0.00     0.201 C 
BRANCH  44  45
ATOM     45  O6  GLC d          13.927 -18.939 -20.687  0.00  0.00    -0.397 OA
ATOM     46  H33 GLC d          14.496 -19.700 -20.678  0.00  0.00     0.209 HD
ENDBRANCH  44  45
ENDBRANCH   8  44
ENDBRANCH   1   4
BRANCH   1  47
ATOM     47  C4A GLC d           8.433 -17.597 -22.374  0.00  0.00     0.246 C 
ATOM     48  C3A GLC d           7.341 -18.336 -21.621  0.00  0.00     0.184 C 
ATOM     49  C2  GLC d           6.825 -19.569 -22.371  0.00  0.00     0.204 C 
ATOM     50  C1  GLC d           6.520 -19.269 -23.842  0.00  0.00     0.292 C 
ATOM     51  O5  GLC d           7.596 -18.511 -24.419  0.00  0.00    -0.351 OA
ATOM     52  C5A GLC d           7.835 -17.264 -23.745  0.00  0.00     0.154 C 
ATOM     53  C6A GLC d           8.665 -16.343 -24.637  0.00  0.00     0.042 C 
BRANCH  48  54
ATOM     54  O3A GLC d           7.799 -18.697 -20.312  0.00  0.00    -0.391 OA
ATOM     55  H38 GLC d           7.081 -19.079 -19.821  0.00  0.00     0.210 HD
ENDBRANCH  48  54
BRANCH  49  56
ATOM     56  O2  GLC d           5.623 -20.002 -21.731  0.00  0.00    -0.388 OA
ATOM     57  H35 GLC d           4.969 -19.316 -21.791  0.00  0.00     0.210 HD
ENDBRANCH  49  56
BRANCH  50  58
ATOM     58  O4  GLC d           5.273 -18.582 -24.022  0.00  0.00    -0.348 OA
BRANCH  58  59
ATOM     59  C4  GLC d           4.243 -19.368 -24.647  0.00  0.00     0.187 C 
ATOM     60  C3  GLC d           2.978 -19.346 -23.742  0.00  0.00     0.183 C 
ATOM     61  C2  GLC d           1.709 -19.950 -24.478  0.00  0.00     0.204 C 
ATOM     62  C1  GLC d           1.551 -19.415 -25.895  0.00  0.00     0.292 C 
ATOM     63  O5  GLC d           2.748 -19.434 -26.600  0.00  0.00    -0.348 OA
ATOM     64  C5  GLC d           3.803 -18.673 -25.955  0.00  0.00     0.180 C 
BRANCH  60  65
ATOM     65  O3  GLC d           3.190 -20.053 -22.533  0.00  0.00    -0.390 OA
ATOM     66  H52 GLC d           3.908 -19.654 -22.056  0.00  0.00     0.210 HD
ENDBRANCH  60  65
BRANCH  61  67
ATOM     67  O2  GLC d           0.573 -19.777 -23.663  0.00  0.00    -0.388 OA
ATOM     68  H51 GLC d           0.438 -18.850 -23.503  0.00  0.00     0.210 HD
ENDBRANCH  61  67
BRANCH  62  69
ATOM     69  O4  GLC d           1.062 -18.115 -25.880  0.00  0.00    -0.348 OA
BRANCH  69  70
ATOM     70  C4  GLC d          -0.172 -18.031 -26.585  0.00  0.00     0.187 C 
ATOM     71  C3  GLC d          -1.260 -17.476 -25.711  0.00  0.00     0.183 C 
ATOM     72  C2  GLC d          -2.562 -17.522 -26.478  0.00  0.00     0.204 C 
ATOM     73  C1  GLC d          -2.399 -16.733 -27.793  0.00  0.00     0.288 C 
ATOM     74  O5  GLC d          -1.334 -17.286 -28.593  0.00  0.00    -0.349 OA
ATOM     75  C5  GLC d          -0.050 -17.240 -27.912  0.00  0.00     0.180 C 
BRANCH  71  76
ATOM     76  O3  GLC d          -1.345 -18.256 -24.528  0.00  0.00    -0.390 OA
ATOM     77  H63 GLC d          -0.515 -18.222 -24.067  0.00  0.00     0.210 HD
ENDBRANCH  71  76
BRANCH  72  78
ATOM     78  O2  GLC d          -3.552 -16.917 -25.672  0.00  0.00    -0.388 OA
ATOM     79  H62 GLC d          -3.305 -16.018 -25.490  0.00  0.00     0.210 HD
ENDBRANCH  72  78
BRANCH  73  80
ATOM     80  O1  GLC d          -2.089 -15.408 -27.518  0.00  0.00    -0.369 OA
ATOM     81  H61 GLC d          -2.780 -15.025 -26.991  0.00  0.00     0.212 HD
ENDBRANCH  73  80
BRANCH  75  82
ATOM     82  C6  GLC d           0.988 -17.795 -28.872  0.00  0.00     0.198 C 
BRANCH  82  83
ATOM     83  O6  GLC d           2.251 -17.193 -28.630  0.00  0.00    -0.398 OA
ATOM     84  H64 GLC d           2.522 -17.376 -27.738  0.00  0.00     0.209 HD
ENDBRANCH  82  83
ENDBRANCH  75  82
ENDBRANCH  69  70
ENDBRANCH  62  69
BRANCH  64  85
ATOM     85  C6  GLC d           4.850 -18.428 -26.996  0.00  0.00     0.198 C 
BRANCH  85  86
ATOM     86  O6  GLC d           5.630 -19.574 -27.176  0.00  0.00    -0.398 OA
ATOM     87  H53 GLC d           6.290 -19.406 -27.838  0.00  0.00     0.209 HD
ENDBRANCH  85  86
ENDBRANCH  64  85
ENDBRANCH  58  59
ENDBRANCH  50  58
ENDBRANCH   1  47
TORSDOF 34
