REMARK  4 active torsions:
REMARK  status: ('A' for Active; 'I' for Inactive)
REMARK    1  A    between atoms: C1_1  and  C2_4 
REMARK    2  A    between atoms: C2_4  and  C3_6 
REMARK    3  A    between atoms: C3_6  and  C4_7 
REMARK    4  A    between atoms: C4_7  and  C5_8 
ROOT
ATOM      1  C2  AKG d         -11.331  17.718  -9.922  0.00  0.00     0.225 C 
ATOM      2  O5  AKG d         -12.298  17.023 -10.077  0.00  0.00    -0.286 OA
ENDROOT
BRANCH   1   3
ATOM      3  C1  AKG d         -10.055  17.051  -9.489  0.00  0.00     0.246 C 
ATOM      4  O1  AKG d          -8.949  17.663  -9.603  0.00  0.00    -0.642 OA
ATOM      5  O2  AKG d         -10.044  15.851  -9.107  0.00  0.00    -0.642 OA
ENDBRANCH   1   3
BRANCH   1   6
ATOM      6  C3  AKG d         -11.362  19.236 -10.165  0.00  0.00     0.101 C 
BRANCH   6   7
ATOM      7  C4  AKG d         -12.748  19.734 -10.484  0.00  0.00     0.121 C 
BRANCH   7   8
ATOM      8  C5  AKG d         -12.737  21.114 -11.089  0.00  0.00     0.172 C 
ATOM      9  O3  AKG d         -11.716  21.530 -11.704  0.00  0.00    -0.648 OA
ATOM     10  O4  AKG d         -13.759  21.853 -10.950  0.00  0.00    -0.648 OA
ENDBRANCH   7   8
ENDBRANCH   6   7
ENDBRANCH   1   6
TORSDOF 4
