REMARK  31 active torsions:
REMARK  status: ('A' for Active; 'I' for Inactive)
REMARK    1  A    between atoms: C6_6  and  N6_7 
REMARK    2  A    between atoms: CCJ_19  and  N9_10 
REMARK    3  A    between atoms: CCG_16  and  OAN_12 
REMARK    4  A    between atoms: CCH_17  and  OAO_13 
REMARK    5  A    between atoms: CBY_15  and  CCI_18 
REMARK       I    between atoms: NBN_27  and  CBY_15 
REMARK    6  A    between atoms: CBV_20  and  CBD_22 
REMARK       I    between atoms: N_28  and  CBV_20 
REMARK    7  A    between atoms: CBD_22  and  CAV_23 
REMARK    8  A    between atoms: CAV_23  and  CAR_24 
REMARK    9  A    between atoms: CAR_24  and  CAU_25 
REMARK   10  A    between atoms: CAU_25  and  CBA_26 
REMARK   11  A    between atoms: CBA_26  and  NBN_27 
REMARK   12  A    between atoms: CA_29  and  N_28 
REMARK   13  A    between atoms: C_31  and  CA_29 
REMARK       I    between atoms: NBM_40  and  C_31 
REMARK   14  A    between atoms: CBE_35  and  CBW_33 
REMARK       I    between atoms: CBW_33  and  NBP_41 
REMARK   15  A    between atoms: CAW_36  and  CBE_35 
REMARK   16  A    between atoms: CAS_37  and  CAW_36 
REMARK   17  A    between atoms: CAT_38  and  CAS_37 
REMARK   18  A    between atoms: CAZ_39  and  CAT_38 
REMARK   19  A    between atoms: CAZ_39  and  NBM_40 
REMARK   20  A    between atoms: NBP_41  and  CCF_42 
REMARK   21  A    between atoms: CCF_42  and  CBG_43 
REMARK   22  A    between atoms: CCF_42  and  CBZ_50 
REMARK   23  A    between atoms: CBG_43  and  CAY_44 
REMARK   24  A    between atoms: CAY_44  and  CBC_45 
REMARK   25  A    between atoms: CBC_45  and  NBL_46 
REMARK       I    between atoms: NBL_46  and  CBT_47 
REMARK       I    between atoms: CBT_47  and  NAC_48 
REMARK       I    between atoms: CBT_47  and  NAE_49 
REMARK       I    between atoms: CBZ_50  and  NBQ_52 
REMARK   26  A    between atoms: NBQ_52  and  CCE_53 
REMARK   27  A    between atoms: CCE_53  and  CBF_54 
REMARK   28  A    between atoms: CCE_53  and  CBU_61 
REMARK   29  A    between atoms: CBF_54  and  CAX_55 
REMARK   30  A    between atoms: CAX_55  and  CBB_56 
REMARK   31  A    between atoms: CBB_56  and  NBK_57 
REMARK       I    between atoms: NBK_57  and  CBS_58 
REMARK       I    between atoms: CBS_58  and  NAB_59 
REMARK       I    between atoms: CBU_61  and  NAF_63 
ROOT
ATOM      1  CAS A03 d         -16.865   8.573  16.265  0.00  0.00     0.002 C 
ENDROOT
BRANCH   1   2
ATOM      2  CAW A03 d         -18.351   8.212  16.272  0.00  0.00     0.009 C 
BRANCH   2   3
ATOM      3  CBE A03 d         -18.813   7.642  17.599  0.00  0.00     0.103 C 
BRANCH   3   4
ATOM      4  CBW A03 d         -19.776   6.465  17.360  0.00  0.00     0.218 C 
ATOM      5  OAJ A03 d         -19.462   5.298  17.722  0.00  0.00    -0.274 OA
ATOM      6  NBP A03 d         -20.928   6.809  16.738  0.00  0.00    -0.348 N 
ATOM      7  H38 A03 d         -21.061   7.767  16.483  0.00  0.00     0.163 HD
BRANCH   6   8
ATOM      8  CCF A03 d         -22.007   5.837  16.413  0.00  0.00     0.176 C 
BRANCH   8   9
ATOM      9  CBG A03 d         -23.258   6.622  16.006  0.00  0.00     0.036 C 
BRANCH   9  10
ATOM     10  CAY A03 d         -23.128   7.146  14.572  0.00  0.00     0.023 C 
BRANCH  10  11
ATOM     11  CBC A03 d         -23.469   6.014  13.595  0.00  0.00     0.138 C 
BRANCH  11  12
ATOM     12  NBL A03 d         -22.502   6.012  12.497  0.00  0.00    -0.227 N 
ATOM     13  CBT A03 d         -22.388   5.003  11.628  0.00  0.00     0.665 C 
ATOM     14  NAC A03 d         -21.491   5.131  10.638  0.00  0.00    -0.235 N 
ATOM     15  NAE A03 d         -23.165   3.926  11.729  0.00  0.00    -0.235 N 
ATOM     16  H47 A03 d         -21.374   4.375   9.948  0.00  0.00     0.174 HD
ATOM     17  H48 A03 d         -20.920   5.985  10.568  0.00  0.00     0.174 HD
ATOM     18  H49 A03 d         -23.846   3.852  12.499  0.00  0.00     0.174 HD
ATOM     19  H50 A03 d         -23.085   3.167  11.037  0.00  0.00     0.174 HD
ATOM     20  H46 A03 d         -21.880   6.826  12.389  0.00  0.00     0.177 HD
ENDBRANCH  11  12
ENDBRANCH  10  11
ENDBRANCH   9  10
ENDBRANCH   8   9
BRANCH   8  21
ATOM     21  CBZ A03 d         -22.341   4.930  17.600  0.00  0.00     0.241 C 
ATOM     22  OAM A03 d         -22.332   5.390  18.735  0.00  0.00    -0.271 OA
ATOM     23  NBQ A03 d         -22.623   3.653  17.307  0.00  0.00    -0.346 N 
ATOM     24  H51 A03 d         -22.623   3.376  16.346  0.00  0.00     0.163 HD
BRANCH  23  25
ATOM     25  CCE A03 d         -22.933   2.637  18.328  0.00  0.00     0.176 C 
BRANCH  25  26
ATOM     26  CBF A03 d         -22.017   1.418  18.168  0.00  0.00     0.036 C 
BRANCH  26  27
ATOM     27  CAX A03 d         -20.522   1.767  18.062  0.00  0.00     0.023 C 
BRANCH  27  28
ATOM     28  CBB A03 d         -19.728   0.467  18.310  0.00  0.00     0.138 C 
BRANCH  28  29
ATOM     29  NBK A03 d         -19.607  -0.272  17.028  0.00  0.00    -0.227 N 
ATOM     30  CBS A03 d         -19.875  -1.579  16.975  0.00  0.00     0.665 C 
ATOM     31  NAB A03 d         -20.281  -2.242  18.056  0.00  0.00    -0.235 N 
ATOM     32  NAD A03 d         -19.732  -2.232  15.829  0.00  0.00    -0.235 N 
ATOM     33  H60 A03 d         -20.483  -3.250  17.996  0.00  0.00     0.174 HD
ATOM     34  H61 A03 d         -20.393  -1.747  18.952  0.00  0.00     0.174 HD
ATOM     35  H62 A03 d         -19.419  -1.730  14.986  0.00  0.00     0.174 HD
ATOM     36  H63 A03 d         -19.934  -3.241  15.782  0.00  0.00     0.174 HD
ATOM     37  H59 A03 d         -19.315   0.226  16.175  0.00  0.00     0.177 HD
ENDBRANCH  28  29
ENDBRANCH  27  28
ENDBRANCH  26  27
ENDBRANCH  25  26
BRANCH  25  38
ATOM     38  CBU A03 d         -24.387   2.140  18.223  0.00  0.00     0.238 C 
ATOM     39  OAH A03 d         -25.069   2.352  17.222  0.00  0.00    -0.271 OA
ATOM     40  NAF A03 d         -24.818   1.457  19.266  0.00  0.00    -0.368 N 
ATOM     41  H64 A03 d         -25.751   1.098  19.278  0.00  0.00     0.159 HD
ATOM     42  H65 A03 d         -24.211   1.298  20.045  0.00  0.00     0.159 HD
ENDBRANCH  25  38
ENDBRANCH  23  25
ENDBRANCH   8  21
ENDBRANCH   6   8
ENDBRANCH   3   4
ENDBRANCH   2   3
ENDBRANCH   1   2
BRANCH   1  43
ATOM     43  CAT A03 d         -16.255   8.279  14.891  0.00  0.00     0.020 C 
BRANCH  43  44
ATOM     44  CAZ A03 d         -16.518   9.381  13.875  0.00  0.00     0.122 C 
BRANCH  44  45
ATOM     45  NBM A03 d         -15.231   9.970  13.482  0.00  0.00    -0.359 N 
ATOM     46  C   A03 d         -14.743  11.053  14.080  0.00  0.00     0.240 C 
ATOM     47  O   A03 d         -15.305  11.635  15.007  0.00  0.00    -0.271 OA
ATOM     48  H37 A03 d         -14.707   9.545  12.744  0.00  0.00     0.162 HD
BRANCH  46  49
ATOM     49  CA  A03 d         -13.363  11.525  13.587  0.00  0.00     0.172 C 
ATOM     50  CB  A03 d         -12.262  10.530  14.017  0.00  0.00     0.042 C 
BRANCH  49  51
ATOM     51  N   A03 d         -13.368  11.716  12.143  0.00  0.00    -0.348 N 
ATOM     52  CBV A03 d         -14.052  12.715  11.564  0.00  0.00     0.218 C 
ATOM     53  OAI A03 d         -14.738  13.531  12.173  0.00  0.00    -0.274 OA
ATOM     54  H22 A03 d         -12.848  11.085  11.567  0.00  0.00     0.163 HD
BRANCH  52  55
ATOM     55  CBD A03 d         -13.936  12.793  10.038  0.00  0.00     0.103 C 
BRANCH  55  56
ATOM     56  CAV A03 d         -15.195  12.273   9.336  0.00  0.00     0.009 C 
BRANCH  56  57
ATOM     57  CAR A03 d         -15.367  10.783   9.638  0.00  0.00     0.002 C 
BRANCH  57  58
ATOM     58  CAU A03 d         -16.702  10.208   9.174  0.00  0.00     0.020 C 
BRANCH  58  59
ATOM     59  CBA A03 d         -16.692   8.718   9.538  0.00  0.00     0.122 C 
BRANCH  59  60
ATOM     60  NBN A03 d         -17.779   8.017   8.836  0.00  0.00    -0.359 N 
ATOM     61  CBY A03 d         -17.633   7.501   7.613  0.00  0.00     0.249 C 
ATOM     62  OAL A03 d         -16.582   7.541   6.964  0.00  0.00    -0.271 OA
ATOM     63  H21 A03 d         -18.663   7.923   9.294  0.00  0.00     0.162 HD
BRANCH  61  64
ATOM     64  CCI A03 d         -18.872   6.842   7.006  0.00  0.00     0.247 C 
ATOM     65  OBR A03 d         -19.102   7.415   5.686  0.00  0.00    -0.346 OA
ATOM     66  CCJ A03 d         -19.426   6.339   4.753  0.00  0.00     0.263 C 
ATOM     67  CCH A03 d         -19.605   5.090   5.595  0.00  0.00     0.199 C 
ATOM     68  CCG A03 d         -18.652   5.360   6.777  0.00  0.00     0.189 C 
BRANCH  66  69
ATOM     69  N9  A03 d         -18.375   6.194   3.704  0.00  0.00    -0.294 N 
ATOM     70  C4  A03 d         -18.589   5.853   2.436  0.00  0.00     0.167 A 
ATOM     71  N3  A03 d         -19.694   5.528   1.734  0.00  0.00    -0.222 NA
ATOM     72  C5  A03 d         -17.351   5.849   1.804  0.00  0.00     0.149 A 
ATOM     73  C2  A03 d         -19.591   5.226   0.445  0.00  0.00     0.237 A 
ATOM     74  N1  A03 d         -18.422   5.221  -0.190  0.00  0.00    -0.222 NA
ATOM     75  C6  A03 d         -17.279   5.512   0.451  0.00  0.00     0.155 A 
ATOM     76  N7  A03 d         -16.440   6.177   2.713  0.00  0.00    -0.236 NA
ATOM     77  C8  A03 d         -17.065   6.389   3.866  0.00  0.00     0.214 A 
BRANCH  75  78
ATOM     78  N6  A03 d         -16.102   5.498  -0.193  0.00  0.00    -0.382 N 
ATOM     79  H2  A03 d         -15.235   5.724   0.314  0.00  0.00     0.157 HD
ATOM     80  H3  A03 d         -16.066   5.261  -1.195  0.00  0.00     0.157 HD
ENDBRANCH  75  78
ENDBRANCH  66  69
BRANCH  67  81
ATOM     81  OAO A03 d         -20.976   5.068   5.980  0.00  0.00    -0.388 OA
ATOM     82  H6  A03 d         -21.112   4.383   6.624  0.00  0.00     0.210 HD
ENDBRANCH  67  81
BRANCH  68  83
ATOM     83  OAN A03 d         -19.049   4.660   7.931  0.00  0.00    -0.390 OA
ATOM     84  H5  A03 d         -19.924   4.934   8.181  0.00  0.00     0.210 HD
ENDBRANCH  68  83
ENDBRANCH  61  64
ENDBRANCH  59  60
ENDBRANCH  58  59
ENDBRANCH  57  58
ENDBRANCH  56  57
ENDBRANCH  55  56
ENDBRANCH  52  55
ENDBRANCH  49  51
ENDBRANCH  46  49
ENDBRANCH  44  45
ENDBRANCH  43  44
ENDBRANCH   1  43
TORSDOF 31
