REMARK  8 active torsions:
REMARK  status: ('A' for Active; 'I' for Inactive)
REMARK    1  A    between atoms: O3A_8  and  PB_1 
REMARK    2  A    between atoms: PA_5  and  O3A_8 
REMARK    3  A    between atoms: PA_5  and  O5'_9 
REMARK    4  A    between atoms: O5'_9  and  C5'_10 
REMARK    5  A    between atoms: C5'_10  and  C4'_11 
REMARK    6  A    between atoms: C3'_13  and  O3'_14 
REMARK    7  A    between atoms: C2'_15  and  O2'_16 
REMARK    8  A    between atoms: C1'_17  and  N9_18 
ROOT
ATOM      1  C4' ADP d          -0.558 -39.196   0.188  0.00  0.00     0.180 C 
ATOM      2  O4' ADP d          -0.701 -40.617   0.285  0.00  0.00    -0.353 OA
ATOM      3  C3' ADP d           0.496 -38.813   1.212  0.00  0.00     0.182 C 
ATOM      4  C2' ADP d           0.393 -39.899   2.262  0.00  0.00     0.198 C 
ATOM      5  C1' ADP d          -0.145 -41.097   1.508  0.00  0.00     0.262 C 
ENDROOT
BRANCH   5   6
ATOM      6  N9  ADP d           1.021 -41.961   1.217  0.00  0.00    -0.294 N 
ATOM      7  C8  ADP d           1.818 -41.873   0.133  0.00  0.00     0.214 A 
ATOM      8  N7  ADP d           2.801 -42.808   0.175  0.00  0.00    -0.236 NA
ATOM      9  C5  ADP d           2.638 -43.508   1.313  0.00  0.00     0.149 A 
ATOM     10  C6  ADP d           3.329 -44.637   1.977  0.00  0.00     0.155 A 
ATOM     11  C4  ADP d           1.465 -42.947   1.999  0.00  0.00     0.167 A 
ATOM     12  N6  ADP d           4.417 -45.195   1.400  0.00  0.00    -0.382 N 
ATOM     13  N1  ADP d           2.844 -45.078   3.164  0.00  0.00    -0.222 NA
ATOM     14  H10 ADP d           4.899 -45.980   1.861  0.00  0.00     0.157 HD
ATOM     15  H11 ADP d           4.764 -44.835   0.500  0.00  0.00     0.157 HD
ATOM     16  C2  ADP d           1.760 -44.511   3.727  0.00  0.00     0.237 A 
ATOM     17  N3  ADP d           1.083 -43.480   3.184  0.00  0.00    -0.222 NA
ENDBRANCH   5   6
BRANCH   4  18
ATOM     18  O2' ADP d          -0.540 -39.522   3.284  0.00  0.00    -0.388 OA
ATOM     19  H7  ADP d          -0.247 -38.718   3.698  0.00  0.00     0.210 HD
ENDBRANCH   4  18
BRANCH   1  20
ATOM     20  C5' ADP d          -0.151 -38.798  -1.226  0.00  0.00     0.216 C 
BRANCH  20  21
ATOM     21  O5' ADP d           1.041 -39.486  -1.613  0.00  0.00    -0.287 OA
BRANCH  21  22
ATOM     22  PA  ADP d           2.197 -38.712  -2.420  0.00  0.00     0.418 P 
ATOM     23  O1A ADP d           2.517 -37.461  -1.648  0.00  0.00    -0.624 OA
ATOM     24  O2A ADP d           3.313 -39.684  -2.710  0.00  0.00    -0.624 OA
BRANCH  22  25
ATOM     25  O3A ADP d           1.416 -38.386  -3.801  0.00  0.00    -0.173 OA
BRANCH  25  26
ATOM     26  PB  ADP d           1.062 -36.915  -4.374  0.00  0.00     0.431 P 
ATOM     27  O1B ADP d          -0.291 -37.085  -5.021  0.00  0.00    -0.616 OA
ATOM     28  O2B ADP d           2.155 -36.630  -5.375  0.00  0.00    -0.616 OA
ATOM     29  O3B ADP d           1.062 -36.006  -3.168  0.00  0.00    -0.616 OA
ENDBRANCH  25  26
ENDBRANCH  22  25
ENDBRANCH  21  22
ENDBRANCH  20  21
ENDBRANCH   1  20
BRANCH   3  30
ATOM     30  O3' ADP d           0.267 -37.516   1.775  0.00  0.00    -0.390 OA
ATOM     31  H5  ADP d          -0.579 -37.504   2.207  0.00  0.00     0.210 HD
ENDBRANCH   3  30
TORSDOF 8
