REMARK  21 active torsions:
REMARK  status: ('A' for Active; 'I' for Inactive)
REMARK    1  A    between atoms: C2_2  and  C4_4 
REMARK    2  A    between atoms: C4_4  and  C5_5 
REMARK    3  A    between atoms: C5_5  and  C6_6 
REMARK    4  A    between atoms: C6_6  and  C7_7 
REMARK    5  A    between atoms: C7_7  and  C9_9 
REMARK    6  A    between atoms: C9_9  and  C10_10 
REMARK    7  A    between atoms: C10_10  and  C11_11 
REMARK    8  A    between atoms: C11_11  and  C12_12 
REMARK    9  A    between atoms: C12_12  and  C14_14 
REMARK   10  A    between atoms: C14_14  and  C15_15 
REMARK   11  A    between atoms: C15_15  and  C16_16 
REMARK   12  A    between atoms: C16_16  and  C17_17 
REMARK   13  A    between atoms: C17_17  and  C18_18 
REMARK   14  A    between atoms: C18_18  and  C20_20 
REMARK   15  A    between atoms: C20_20  and  C21_21 
REMARK   16  A    between atoms: C21_21  and  C22_22 
REMARK   17  A    between atoms: C22_22  and  C23_23 
REMARK   18  A    between atoms: C23_23  and  C24_24 
REMARK   19  A    between atoms: C24_24  and  C25_25 
REMARK   20  A    between atoms: C25_25  and  C26_26 
REMARK   21  A    between atoms: C26_26  and  C27_27 
ROOT
ATOM      1  C15 SQL d          20.433   7.423   9.281  0.00  0.00     0.000 C 
ENDROOT
BRANCH   1   2
ATOM      2  C14 SQL d          21.413   6.562   8.520  0.00  0.00     0.004 C 
BRANCH   2   3
ATOM      3  C12 SQL d          21.883   5.234   9.060  0.00  0.00    -0.018 C 
ATOM      4  C13 SQL d          22.902   4.469   8.243  0.00  0.00     0.010 C 
BRANCH   3   5
ATOM      5  C11 SQL d          21.369   4.676  10.388  0.00  0.00     0.004 C 
BRANCH   5   6
ATOM      6  C10 SQL d          20.886   3.248  10.215  0.00  0.00     0.001 C 
BRANCH   6   7
ATOM      7  C9  SQL d          19.653   3.221   9.322  0.00  0.00     0.004 C 
BRANCH   7   8
ATOM      8  C7  SQL d          18.907   1.899   9.224  0.00  0.00    -0.018 C 
ATOM      9  C8  SQL d          19.343   0.644   9.974  0.00  0.00     0.010 C 
BRANCH   8  10
ATOM     10  C6  SQL d          17.736   1.844   8.275  0.00  0.00     0.004 C 
BRANCH  10  11
ATOM     11  C5  SQL d          16.461   1.402   8.924  0.00  0.00     0.001 C 
BRANCH  11  12
ATOM     12  C4  SQL d          15.419   1.532   7.813  0.00  0.00     0.004 C 
BRANCH  12  13
ATOM     13  C2  SQL d          14.148   0.728   7.813  0.00  0.00    -0.023 C 
ATOM     14  C1  SQL d          13.878  -0.239   8.939  0.00  0.00     0.009 C 
ATOM     15  C3  SQL d          13.127   0.907   6.695  0.00  0.00     0.009 C 
ENDBRANCH  12  13
ENDBRANCH  11  12
ENDBRANCH  10  11
ENDBRANCH   8  10
ENDBRANCH   7   8
ENDBRANCH   6   7
ENDBRANCH   5   6
ENDBRANCH   3   5
ENDBRANCH   2   3
ENDBRANCH   1   2
BRANCH   1  16
ATOM     16  C16 SQL d          20.880   8.852   9.065  0.00  0.00     0.000 C 
BRANCH  16  17
ATOM     17  C17 SQL d          20.596   9.313   7.626  0.00  0.00     0.004 C 
BRANCH  17  18
ATOM     18  C18 SQL d          19.579  10.428   7.355  0.00  0.00    -0.018 C 
ATOM     19  C19 SQL d          18.829  11.082   8.495  0.00  0.00     0.010 C 
BRANCH  18  20
ATOM     20  C20 SQL d          19.296  10.895   5.933  0.00  0.00     0.004 C 
BRANCH  20  21
ATOM     21  C21 SQL d          17.780  11.031   5.751  0.00  0.00     0.001 C 
BRANCH  21  22
ATOM     22  C22 SQL d          17.501  11.665   4.411  0.00  0.00     0.004 C 
BRANCH  22  23
ATOM     23  C23 SQL d          16.388  12.690   4.223  0.00  0.00    -0.018 C 
ATOM     24  C30 SQL d          16.217  13.282   2.826  0.00  0.00     0.010 C 
BRANCH  23  25
ATOM     25  C24 SQL d          15.528  13.154   5.411  0.00  0.00     0.004 C 
BRANCH  25  26
ATOM     26  C25 SQL d          14.180  13.759   4.988  0.00  0.00     0.001 C 
BRANCH  26  27
ATOM     27  C26 SQL d          13.147  12.664   4.780  0.00  0.00     0.004 C 
BRANCH  27  28
ATOM     28  C27 SQL d          12.407  11.614   3.967  0.00  0.00    -0.023 C 
ATOM     29  C28 SQL d          11.210  10.932   4.605  0.00  0.00     0.009 C 
ATOM     30  C29 SQL d          12.875  11.180   2.573  0.00  0.00     0.009 C 
ENDBRANCH  27  28
ENDBRANCH  26  27
ENDBRANCH  25  26
ENDBRANCH  23  25
ENDBRANCH  22  23
ENDBRANCH  21  22
ENDBRANCH  20  21
ENDBRANCH  18  20
ENDBRANCH  17  18
ENDBRANCH  16  17
ENDBRANCH   1  16
TORSDOF 21
