REMARK  12 active torsions:
REMARK  status: ('A' for Active; 'I' for Inactive)
REMARK    1  A    between atoms: O1_7  and  C1_1 
REMARK    2  A    between atoms: C2_2  and  O2_8 
REMARK    3  A    between atoms: C3_3  and  O3_9 
REMARK    4  A    between atoms: C4_4  and  O4_10 
REMARK    5  A    between atoms: C5_5  and  C6_6 
REMARK    6  A    between atoms: C6_6  and  O6_12 
REMARK    7  A    between atoms: C4'_16  and  O1_7 
REMARK    8  A    between atoms: C1'_13  and  O1'_19 
REMARK    9  A    between atoms: C2'_14  and  O2'_20 
REMARK   10  A    between atoms: C3'_15  and  O3'_21 
REMARK   11  A    between atoms: C5'_17  and  C6'_18 
REMARK   12  A    between atoms: C6'_18  and  O6'_23 
ROOT
ATOM      1  O1  LAT d           9.743   9.795  56.182  0.00  0.00    -0.348 OA
ENDROOT
BRANCH   1   2
ATOM      2  C1  LAT d           8.375   9.752  55.808  0.00  0.00     0.292 C 
ATOM      3  C2  LAT d           8.259   9.663  54.291  0.00  0.00     0.204 C 
ATOM      4  C3  LAT d           6.773   9.555  53.905  0.00  0.00     0.183 C 
ATOM      5  C4  LAT d           6.181   8.311  54.617  0.00  0.00     0.180 C 
ATOM      6  C5  LAT d           6.367   8.461  56.156  0.00  0.00     0.179 C 
ATOM      7  O5  LAT d           7.792   8.614  56.473  0.00  0.00    -0.348 OA
BRANCH   3   8
ATOM      8  O2  LAT d           8.831  10.815  53.645  0.00  0.00    -0.388 OA
ATOM      9  H8  LAT d           8.751  10.721  52.703  0.00  0.00     0.210 HD
ENDBRANCH   3   8
BRANCH   4  10
ATOM     10  O3  LAT d           6.654   9.463  52.491  0.00  0.00    -0.390 OA
ATOM     11  H9  LAT d           7.026  10.241  52.092  0.00  0.00     0.210 HD
ENDBRANCH   4  10
BRANCH   5  12
ATOM     12  O4  LAT d           6.841   7.105  54.186  0.00  0.00    -0.390 OA
ATOM     13  H10 LAT d           7.766   7.159  54.396  0.00  0.00     0.210 HD
ENDBRANCH   5  12
BRANCH   6  14
ATOM     14  C6  LAT d           5.886   7.396  56.828  0.00  0.00     0.198 C 
BRANCH  14  15
ATOM     15  O6  LAT d           5.879   7.685  58.213  0.00  0.00    -0.398 OA
ATOM     16  H11 LAT d           6.765   7.871  58.501  0.00  0.00     0.209 HD
ENDBRANCH  14  15
ENDBRANCH   6  14
ENDBRANCH   1   2
BRANCH   1  17
ATOM     17  C4' LAT d          10.074  10.246  57.528  0.00  0.00     0.187 C 
ATOM     18  C3' LAT d          10.329   9.069  58.491  0.00  0.00     0.183 C 
ATOM     19  C2' LAT d          10.723   9.638  59.878  0.00  0.00     0.204 C 
ATOM     20  C1' LAT d          11.991  10.499  59.680  0.00  0.00     0.288 C 
ATOM     21  O5' LAT d          11.720  11.581  58.741  0.00  0.00    -0.349 OA
ATOM     22  C5' LAT d          11.320  11.137  57.408  0.00  0.00     0.180 C 
BRANCH  18  23
ATOM     23  O3' LAT d           9.183   8.254  58.650  0.00  0.00    -0.390 OA
ATOM     24  H21 LAT d           8.930   7.898  57.807  0.00  0.00     0.210 HD
ENDBRANCH  18  23
BRANCH  19  25
ATOM     25  O2' LAT d          10.953   8.569  60.759  0.00  0.00    -0.388 OA
ATOM     26  H20 LAT d          10.162   8.049  60.837  0.00  0.00     0.210 HD
ENDBRANCH  19  25
BRANCH  20  27
ATOM     27  O1' LAT d          12.380  11.042  60.900  0.00  0.00    -0.369 OA
ATOM     28  H19 LAT d          11.682  11.592  61.237  0.00  0.00     0.212 HD
ENDBRANCH  20  27
BRANCH  22  29
ATOM     29  C6' LAT d          11.084  12.391  56.574  0.00  0.00     0.198 C 
BRANCH  29  30
ATOM     30  O6' LAT d          12.303  12.839  56.006  0.00  0.00    -0.398 OA
ATOM     31  H22 LAT d          12.142  13.620  55.489  0.00  0.00     0.209 HD
ENDBRANCH  29  30
ENDBRANCH  22  29
ENDBRANCH   1  17
TORSDOF 12
