REMARK  8 active torsions:
REMARK  status: ('A' for Active; 'I' for Inactive)
REMARK    1  A    between atoms: C4_2  and  C3_3 
REMARK       I    between atoms: C4_2  and  N5_8 
REMARK    2  A    between atoms: C3_3  and  C2_4 
REMARK    3  A    between atoms: C3_3  and  N7_7 
REMARK    4  A    between atoms: C2_4  and  O6_6 
REMARK    5  A    between atoms: N5_8  and  S9_9 
REMARK    6  A    between atoms: S9_9  and  C12_12 
REMARK    7  A    between atoms: C16_16  and  C18_18 
REMARK    8  A    between atoms: C27_24  and  N28_25 
ROOT
ATOM      1  C12 409 d         -14.459 -37.320  17.702  0.00  0.00     0.080 A 
ATOM      2  C13 409 d         -14.393 -36.783  18.993  0.00  0.00     0.025 A 
ATOM      3  C14 409 d         -15.559 -36.530  19.751  0.00  0.00     0.002 A 
ATOM      4  C15 409 d         -16.798 -36.819  19.168  0.00  0.00     0.012 A 
ATOM      5  C16 409 d         -16.876 -37.415  17.907  0.00  0.00    -0.024 A 
ATOM      6  C17 409 d         -15.707 -37.614  17.166  0.00  0.00     0.037 A 
ENDROOT
BRANCH   1   7
ATOM      7  S9  409 d         -13.092 -37.608  16.846  0.00  0.00     0.265 S 
ATOM      8  O10 409 d         -12.657 -38.906  17.229  0.00  0.00    -0.200 OA
ATOM      9  O11 409 d         -13.375 -37.523  15.467  0.00  0.00    -0.200 OA
BRANCH   7  10
ATOM     10  N5  409 d         -11.893 -36.605  17.237  0.00  0.00    -0.248 N 
ATOM     11  C4  409 d         -11.949 -35.316  16.914  0.00  0.00     0.264 C 
ATOM     12  O8  409 d         -12.889 -34.871  16.270  0.00  0.00    -0.270 OA
ATOM     13  H10 409 d         -11.096 -36.956  17.729  0.00  0.00     0.182 HD
BRANCH  11  14
ATOM     14  C3  409 d         -10.804 -34.443  17.356  0.00  0.00     0.303 C 
BRANCH  14  15
ATOM     15  C2  409 d         -11.148 -33.705  18.662  0.00  0.00     0.153 C 
ATOM     16  C1  409 d         -11.189 -34.661  19.877  0.00  0.00     0.042 C 
BRANCH  15  17
ATOM     17  O6  409 d         -10.184 -32.641  18.861  0.00  0.00    -0.393 OA
ATOM     18  H6  409 d         -10.181 -32.071  18.101  0.00  0.00     0.210 HD
ENDBRANCH  15  17
ENDBRANCH  14  15
BRANCH  14  19
ATOM     19  N7  409 d         -10.516 -33.452  16.336  0.00  0.00    -0.064 N 
ATOM     20  H7  409 d         -10.288 -33.917  15.471  0.00  0.00     0.275 HD
ATOM     21  H8  409 d          -9.736 -32.885  16.629  0.00  0.00     0.275 HD
ATOM     22  H9  409 d         -11.325 -32.866  16.199  0.00  0.00     0.275 HD
ENDBRANCH  14  19
ENDBRANCH  11  14
ENDBRANCH   7  10
ENDBRANCH   1   7
BRANCH   5  23
ATOM     23  C18 409 d         -18.220 -37.653  17.285  0.00  0.00    -0.024 A 
ATOM     24  C19 409 d         -18.277 -37.915  15.912  0.00  0.00     0.013 A 
ATOM     25  C20 409 d         -19.478 -38.073  15.246  0.00  0.00     0.018 A 
ATOM     26  C21 409 d         -20.679 -37.983  15.974  0.00  0.00     0.038 A 
ATOM     27  C22 409 d         -20.647 -37.698  17.410  0.00  0.00     0.073 A 
ATOM     28  C27 409 d         -22.009 -38.113  15.330  0.00  0.00     0.135 A 
ATOM     29  C23 409 d         -19.404 -37.541  18.030  0.00  0.00     0.044 A 
ATOM     30  N24 409 d         -21.830 -37.614  18.077  0.00  0.00    -0.241 NA
ATOM     31  C25 409 d         -23.012 -37.767  17.429  0.00  0.00     0.235 A 
ATOM     32  N26 409 d         -23.102 -37.999  16.100  0.00  0.00    -0.224 NA
BRANCH  28  33
ATOM     33  N28 409 d         -22.116 -38.342  14.014  0.00  0.00    -0.383 N 
ATOM     34  H18 409 d         -23.046 -38.430  13.581  0.00  0.00     0.157 HD
ATOM     35  H19 409 d         -21.268 -38.430  13.436  0.00  0.00     0.157 HD
ENDBRANCH  28  33
ENDBRANCH   5  23
TORSDOF 8
