REMARK  5 active torsions:
REMARK  status: ('A' for Active; 'I' for Inactive)
REMARK    1  A    between atoms: S_2  and  N10_4 
REMARK    2  A    between atoms: S_2  and  C4_9 
REMARK    3  A    between atoms: N10_4  and  C11_5 
REMARK    4  A    between atoms: C11_5  and  C12_6 
REMARK    5  A    between atoms: C12_6  and  C13_7 
ROOT
ATOM      1  O1S NBB d          15.764  16.582   2.282  0.00  0.00    -0.201 OA
ATOM      2  S   NBB d          14.690  17.537   2.029  0.00  0.00     0.258 S 
ATOM      3  O2S NBB d          14.950  17.975   0.614  0.00  0.00    -0.201 OA
ENDROOT
BRANCH   2   4
ATOM      4  N10 NBB d          14.603  18.687   3.104  0.00  0.00    -0.315 N 
ATOM      5  H1  NBB d          15.471  19.016   3.476  0.00  0.00     0.172 HD
BRANCH   4   6
ATOM      6  C11 NBB d          13.337  19.354   3.640  0.00  0.00     0.132 C 
BRANCH   6   7
ATOM      7  C12 NBB d          13.313  19.858   5.123  0.00  0.00     0.020 C 
BRANCH   7   8
ATOM      8  C13 NBB d          11.949  20.158   5.802  0.00  0.00    -0.003 C 
ATOM      9  C14 NBB d          11.801  21.315   6.791  0.00  0.00     0.005 C 
ENDBRANCH   7   8
ENDBRANCH   6   7
ENDBRANCH   4   6
ENDBRANCH   2   4
BRANCH   2  10
ATOM     10  C4  NBB d          13.284  16.742   2.163  0.00  0.00     0.079 A 
ATOM     11  C5  NBB d          12.377  16.684   1.119  0.00  0.00     0.025 A 
ATOM     12  C6  NBB d          11.163  16.025   1.188  0.00  0.00     0.002 A 
ATOM     13  C1  NBB d          10.828  15.398   2.369  0.00  0.00     0.000 A 
ATOM     14  C2  NBB d          11.704  15.468   3.448  0.00  0.00     0.002 A 
ATOM     15  C3  NBB d          12.932  16.127   3.355  0.00  0.00     0.025 A 
ENDBRANCH   2  10
TORSDOF 5
