REMARK  6 active torsions:
REMARK  status: ('A' for Active; 'I' for Inactive)
REMARK    1  A    between atoms: C2'_10  and  O2'_11 
REMARK    2  A    between atoms: C1'_12  and  N9_13 
REMARK    3  A    between atoms: C2_20  and  N2_21 
REMARK    4  A    between atoms: C2A_33  and  O2A_34 
REMARK    5  A    between atoms: C1A_35  and  N91_36 
REMARK    6  A    between atoms: C21_43  and  N21_44 
ROOT
ATOM      1  P1  C2E d          17.208   3.367  13.676  0.00  0.00     0.408 P 
ATOM      2  O2P C2E d          18.585   2.798  13.941  0.00  0.00    -0.624 OA
ATOM      3  O1P C2E d          16.793   4.639  14.369  0.00  0.00    -0.624 OA
ATOM      4  O5' C2E d          16.108   2.250  13.977  0.00  0.00    -0.287 OA
ATOM      5  C5' C2E d          16.235   0.910  13.505  0.00  0.00     0.216 C 
ATOM      6  C4' C2E d          14.940   0.133  13.718  0.00  0.00     0.180 C 
ATOM      7  O4' C2E d          14.725  -0.099  15.120  0.00  0.00    -0.353 OA
ATOM      8  C3' C2E d          13.676   0.824  13.218  0.00  0.00     0.198 C 
ATOM      9  O3' C2E d          13.352   0.560  11.848  0.00  0.00    -0.279 OA
ATOM     10  C2' C2E d          12.619   0.241  14.120  0.00  0.00     0.199 C 
ATOM     11  C1' C2E d          13.349   0.099  15.438  0.00  0.00     0.262 C 
ATOM     12  P11 C2E d          12.496   1.637  11.010  0.00  0.00     0.408 P 
ATOM     13  O21 C2E d          12.179   1.056   9.641  0.00  0.00    -0.624 OA
ATOM     14  O11 C2E d          11.361   2.215  11.830  0.00  0.00    -0.624 OA
ATOM     15  O5A C2E d          13.579   2.795  10.769  0.00  0.00    -0.287 OA
ATOM     16  C5A C2E d          14.806   2.513  10.098  0.00  0.00     0.216 C 
ATOM     17  C4A C2E d          15.672   3.756  10.134  0.00  0.00     0.180 C 
ATOM     18  O4A C2E d          14.974   4.868   9.572  0.00  0.00    -0.353 OA
ATOM     19  C3A C2E d          15.976   4.194  11.552  0.00  0.00     0.198 C 
ATOM     20  O3A C2E d          17.111   3.544  12.084  0.00  0.00    -0.279 OA
ATOM     21  C2A C2E d          16.197   5.679  11.431  0.00  0.00     0.199 C 
ATOM     22  C1A C2E d          15.183   6.039  10.367  0.00  0.00     0.262 C 
ENDROOT
BRANCH  11  23
ATOM     23  N9  C2E d          13.194   1.333  16.260  0.00  0.00    -0.293 N 
ATOM     24  C8  C2E d          14.161   2.218  16.560  0.00  0.00     0.214 A 
ATOM     25  N7  C2E d          13.680   3.223  17.338  0.00  0.00    -0.235 NA
ATOM     26  C5  C2E d          12.378   2.955  17.544  0.00  0.00     0.159 A 
ATOM     27  C6  C2E d          11.269   3.601  18.262  0.00  0.00     0.226 A 
ATOM     28  C4  C2E d          12.053   1.712  16.824  0.00  0.00     0.185 A 
ATOM     29  O6  C2E d          11.486   4.749  18.939  0.00  0.00    -0.169 OA
ATOM     30  N1  C2E d          10.050   3.016  18.231  0.00  0.00    -0.164 N 
ATOM     31  C2  C2E d           9.800   1.868  17.544  0.00  0.00     0.702 A 
ATOM     32  H9  C2E d           9.300   3.445  18.734  0.00  0.00     0.186 HD
ATOM     33  N3  C2E d          10.781   1.220  16.855  0.00  0.00    -0.044 NA
BRANCH  31  34
ATOM     34  N2  C2E d           8.544   1.371  17.567  0.00  0.00    -0.233 N 
ATOM     35  H10 C2E d           8.324   0.504  17.057  0.00  0.00     0.174 HD
ATOM     36  H11 C2E d           7.806   1.859  18.095  0.00  0.00     0.174 HD
ENDBRANCH  31  34
ENDBRANCH  11  23
BRANCH  10  37
ATOM     37  O2' C2E d          12.292  -1.072  13.654  0.00  0.00    -0.388 OA
ATOM     38  H6  C2E d          11.964  -1.018  12.764  0.00  0.00     0.210 HD
ENDBRANCH  10  37
BRANCH  21  39
ATOM     39  O2A C2E d          17.520   5.949  10.946  0.00  0.00    -0.388 OA
ATOM     40  H17 C2E d          18.158   5.589  11.551  0.00  0.00     0.210 HD
ENDBRANCH  21  39
BRANCH  22  41
ATOM     41  N91 C2E d          13.913   6.478  11.008  0.00  0.00    -0.293 N 
ATOM     42  C81 C2E d          12.759   5.789  11.085  0.00  0.00     0.214 A 
ATOM     43  N71 C2E d          11.799   6.502  11.729  0.00  0.00    -0.235 NA
ATOM     44  C51 C2E d          12.348   7.681  12.080  0.00  0.00     0.159 A 
ATOM     45  C61 C2E d          11.904   8.911  12.781  0.00  0.00     0.226 A 
ATOM     46  C41 C2E d          13.738   7.656  11.601  0.00  0.00     0.185 A 
ATOM     47  O61 C2E d          10.639   9.034  13.259  0.00  0.00    -0.169 OA
ATOM     48  N11 C2E d          12.797   9.914  12.938  0.00  0.00    -0.164 N 
ATOM     49  C21 C2E d          14.070   9.826  12.475  0.00  0.00     0.702 A 
ATOM     50  H20 C2E d          12.510  10.748  13.410  0.00  0.00     0.186 HD
ATOM     51  N31 C2E d          14.537   8.731  11.820  0.00  0.00    -0.044 NA
BRANCH  49  52
ATOM     52  N21 C2E d          14.911  10.873  12.667  0.00  0.00    -0.233 N 
ATOM     53  H21 C2E d          15.881  10.825  12.323  0.00  0.00     0.174 HD
ATOM     54  H22 C2E d          14.580  11.716  13.157  0.00  0.00     0.174 HD
ENDBRANCH  49  52
ENDBRANCH  22  41
TORSDOF 6
