REMARK  5 active torsions:
REMARK  status: ('A' for Active; 'I' for Inactive)
REMARK    1  A    between atoms: C2_2  and  O2_11 
REMARK    2  A    between atoms: C3_3  and  O3_12 
REMARK    3  A    between atoms: C4_4  and  O4_13 
REMARK    4  A    between atoms: C5_5  and  C6_6 
REMARK    5  A    between atoms: C6_6  and  O6_14 
ROOT
ATOM      1  C1  NTZ d          47.299 119.688  52.489  0.00  0.00     0.178 A 
ATOM      2  C2  NTZ d          47.989 119.019  53.722  0.00  0.00     0.222 C 
ATOM      3  C3  NTZ d          48.380 120.117  54.695  0.00  0.00     0.185 C 
ATOM      4  C4  NTZ d          48.799 121.386  53.864  0.00  0.00     0.176 C 
ATOM      5  C5  NTZ d          47.499 122.013  53.258  0.00  0.00     0.166 C 
ATOM      6  N1  NTZ d          47.041 121.028  52.380  0.00  0.00    -0.248 N 
ATOM      7  N17 NTZ d          46.449 121.226  51.146  0.00  0.00    -0.197 N 
ATOM      8  N18 NTZ d          46.303 119.928  50.563  0.00  0.00    -0.050 NA
ATOM      9  N21 NTZ d          46.856 119.108  51.361  0.00  0.00    -0.113 NA
ATOM     10  H7  NTZ d          46.170 122.126  50.731  0.00  0.00     0.212 HD
ENDROOT
BRANCH   5  11
ATOM     11  C6  NTZ d          47.563 123.347  52.521  0.00  0.00     0.194 C 
BRANCH  11  12
ATOM     12  O6  NTZ d          48.457 123.181  51.373  0.00  0.00    -0.399 OA
ATOM     13  H11 NTZ d          48.114 122.504  50.801  0.00  0.00     0.209 HD
ENDBRANCH  11  12
ENDBRANCH   5  11
BRANCH   4  14
ATOM     14  O4  NTZ d          49.372 122.364  54.747  0.00  0.00    -0.391 OA
ATOM     15  H10 NTZ d          50.166 122.014  55.133  0.00  0.00     0.210 HD
ENDBRANCH   4  14
BRANCH   3  16
ATOM     16  O3  NTZ d          49.481 119.572  55.422  0.00  0.00    -0.390 OA
ATOM     17  H9  NTZ d          49.816 120.226  56.024  0.00  0.00     0.210 HD
ENDBRANCH   3  16
BRANCH   2  18
ATOM     18  O2  NTZ d          47.265 117.957  54.401  0.00  0.00    -0.385 OA
ATOM     19  H8  NTZ d          47.032 117.283  53.773  0.00  0.00     0.210 HD
ENDBRANCH   2  18
TORSDOF 5
