REMARK  9 active torsions:
REMARK  status: ('A' for Active; 'I' for Inactive)
REMARK    1  A    between atoms: N1'_2  and  C1'_1 
REMARK    2  A    between atoms: C1'_1  and  O1_19 
REMARK    3  A    between atoms: C11_3  and  N1'_2 
REMARK    4  A    between atoms: N1'_2  and  C10_8 
REMARK    5  A    between atoms: C12_4  and  C11_3 
REMARK    6  A    between atoms: C13_5  and  C12_4 
REMARK    7  A    between atoms: C14_20  and  C13_5 
REMARK    8  A    between atoms: C15_6  and  C14_20 
REMARK    9  A    between atoms: C10_8  and  C9_9 
ROOT
ATOM      1  C9  MOL d          -6.681  19.491 -26.896  0.00  0.00     0.014 A 
ATOM      2  C4  MOL d          -5.687  20.554 -26.767  0.00  0.00     0.098 A 
ATOM      3  N3  MOL d          -4.585  20.629 -26.024  0.00  0.00    -0.239 NA
ATOM      4  C8  MOL d          -7.560  19.996 -27.849  0.00  0.00     0.099 A 
ATOM      5  N7  MOL d          -7.193  21.235 -28.265  0.00  0.00    -0.360 N 
ATOM      6  C5  MOL d          -6.088  21.632 -27.662  0.00  0.00     0.107 A 
ATOM      7  C6  MOL d          -5.211  22.811 -27.694  0.00  0.00     0.151 A 
ATOM      8  N6  MOL d          -5.465  23.867 -28.483  0.00  0.00    -0.382 N 
ATOM      9  N1  MOL d          -4.127  22.788 -26.903  0.00  0.00    -0.223 NA
ATOM     10  C2  MOL d          -3.832  21.745 -26.122  0.00  0.00     0.236 A 
ATOM     11  H18 MOL d          -7.709  21.793 -28.960  0.00  0.00     0.165 HD
ATOM     12  H19 MOL d          -4.829  24.677 -28.480  0.00  0.00     0.157 HD
ATOM     13  H20 MOL d          -6.296  23.867 -29.091  0.00  0.00     0.157 HD
ENDROOT
BRANCH   1  14
ATOM     14  C10 MOL d          -6.801  18.147 -26.219  0.00  0.00     0.279 C 
BRANCH  14  15
ATOM     15  N1' MOL d          -6.776  18.088 -24.746  0.00  0.00    -0.046 N 
ATOM     16  H3  MOL d          -7.601  17.599 -24.435  0.00  0.00     0.282 HD
BRANCH  15  17
ATOM     17  C1' MOL d          -5.525  17.328 -24.398  0.00  0.00     0.399 C 
BRANCH  17  18
ATOM     18  O1  MOL d          -5.499  17.213 -22.995  0.00  0.00    -0.374 OA
ATOM     19  H22 MOL d          -4.720  16.737 -22.732  0.00  0.00     0.211 HD
ENDBRANCH  17  18
ENDBRANCH  15  17
BRANCH  15  20
ATOM     20  C11 MOL d          -6.658  19.352 -23.977  0.00  0.00     0.238 C 
BRANCH  20  21
ATOM     21  C12 MOL d          -7.488  19.394 -22.699  0.00  0.00     0.028 C 
BRANCH  21  22
ATOM     22  C13 MOL d          -8.098  20.805 -22.574  0.00  0.00     0.002 C 
BRANCH  22  23
ATOM     23  C14 MOL d          -9.148  20.953 -21.467  0.00  0.00    -0.000 C 
BRANCH  23  24
ATOM     24  C15 MOL d          -8.629  21.820 -20.327  0.00  0.00    -0.005 C 
ATOM     25  C16 MOL d          -9.605  21.855 -19.170  0.00  0.00     0.005 C 
ENDBRANCH  23  24
ENDBRANCH  22  23
ENDBRANCH  21  22
ENDBRANCH  20  21
ENDBRANCH  15  20
ENDBRANCH  14  15
ENDBRANCH   1  14
TORSDOF 9
