REMARK  13 active torsions:
REMARK  status: ('A' for Active; 'I' for Inactive)
REMARK    1  A    between atoms: CA_4  and  C_1 
REMARK    2  A    between atoms: CA_4  and  N_2 
REMARK       I    between atoms: N_2  and  CAY_25 
REMARK    3  A    between atoms: CB_5  and  CA_4 
REMARK    4  A    between atoms: CAN_17  and  CB_5 
REMARK    5  A    between atoms: CAM_16  and  CAN_17 
REMARK    6  A    between atoms: CAO_18  and  CAM_16 
REMARK    7  A    between atoms: NAS_21  and  CAO_18 
REMARK    8  A    between atoms: CAR_20  and  CAP_19 
REMARK    9  A    between atoms: CAP_19  and  SAV_23 
REMARK   10  A    between atoms: CBD_29  and  CAR_20 
REMARK       I    between atoms: CAZ_26  and  NAS_21 
REMARK       I    between atoms: CAY_25  and  NAU_22 
REMARK   11  A    between atoms: NAU_22  and  CBD_29 
REMARK   12  A    between atoms: CBD_29  and  CAX_24 
REMARK   13  A    between atoms: CAZ_26  and  CBB_28 
ROOT
ATOM      1  CA  JRG d          19.973  45.001  44.433  0.00  0.00     0.187 C 
ENDROOT
BRANCH   1   2
ATOM      2  C   JRG d          20.141  45.633  45.817  0.00  0.00     0.196 C 
ATOM      3  O   JRG d          19.626  46.778  46.057  0.00  0.00    -0.646 OA
ATOM      4  OXT JRG d          20.752  44.909  46.627  0.00  0.00    -0.646 OA
ENDBRANCH   1   2
BRANCH   1   5
ATOM      5  N   JRG d          18.658  45.396  43.946  0.00  0.00    -0.329 N 
ATOM      6  CAY JRG d          17.970  44.691  43.049  0.00  0.00     0.317 C 
ATOM      7  OAD JRG d          18.429  43.655  42.561  0.00  0.00    -0.247 OA
ATOM      8  NAU JRG d          16.746  45.125  42.714  0.00  0.00    -0.329 N 
ATOM      9  H23 JRG d          16.295  45.849  43.236  0.00  0.00     0.165 HD
ATOM     10  H1  JRG d          18.252  46.237  44.302  0.00  0.00     0.165 HD
BRANCH   8  11
ATOM     11  CBD JRG d          16.090  44.504  41.559  0.00  0.00     0.188 C 
BRANCH  11  12
ATOM     12  CAR JRG d          14.738  45.140  41.190  0.00  0.00     0.046 C 
BRANCH  12  13
ATOM     13  CAP JRG d          14.823  46.616  41.139  0.00  0.00     0.076 C 
BRANCH  13  14
ATOM     14  SAV JRG d          13.273  47.228  40.373  0.00  0.00    -0.173 SA
ATOM     15  CAA JRG d          13.915  48.847  40.176  0.00  0.00     0.089 C 
ENDBRANCH  13  14
ENDBRANCH  12  13
ENDBRANCH  11  12
BRANCH  11  16
ATOM     16  CAX JRG d          17.041  44.716  40.337  0.00  0.00     0.196 C 
ATOM     17  OAC JRG d          17.888  45.637  40.395  0.00  0.00    -0.646 OA
ATOM     18  OAG JRG d          16.949  43.916  39.381  0.00  0.00    -0.646 OA
ENDBRANCH  11  16
ENDBRANCH   8  11
ENDBRANCH   1   5
BRANCH   1  19
ATOM     19  CB  JRG d          20.984  45.636  43.427  0.00  0.00     0.036 C 
BRANCH  19  20
ATOM     20  CAN JRG d          22.445  45.217  43.673  0.00  0.00     0.004 C 
BRANCH  20  21
ATOM     21  CAM JRG d          23.420  45.941  42.670  0.00  0.00     0.020 C 
BRANCH  21  22
ATOM     22  CAO JRG d          23.397  47.475  42.685  0.00  0.00     0.123 C 
BRANCH  22  23
ATOM     23  NAS JRG d          23.668  47.968  44.055  0.00  0.00    -0.357 N 
ATOM     24  CAZ JRG d          23.104  49.051  44.591  0.00  0.00     0.251 C 
ATOM     25  OAE JRG d          22.255  49.667  43.938  0.00  0.00    -0.268 OA
ATOM     26  H22 JRG d          24.317  47.454  44.616  0.00  0.00     0.162 HD
BRANCH  24  27
ATOM     27  CBB JRG d          23.295  49.374  46.136  0.00  0.00     0.032 A 
ATOM     28  CAK JRG d          23.252  50.681  46.709  0.00  0.00     0.018 A 
ATOM     29  CAI JRG d          23.380  50.913  48.110  0.00  0.00     0.019 A 
ATOM     30  CBA JRG d          23.495  49.938  49.152  0.00  0.00     0.006 A 
ATOM     31  IAH JRG d          23.637  50.304  51.377  0.00  0.00    -0.045 I 
ATOM     32  CAJ JRG d          23.502  48.657  48.538  0.00  0.00     0.019 A 
ATOM     33  CAL JRG d          23.401  48.383  47.128  0.00  0.00     0.018 A 
ENDBRANCH  24  27
ENDBRANCH  22  23
ENDBRANCH  21  22
ENDBRANCH  20  21
ENDBRANCH  19  20
ENDBRANCH   1  19
TORSDOF 13
