REMARK  12 active torsions:
REMARK  status: ('A' for Active; 'I' for Inactive)
REMARK    1  A    between atoms: OAY_2  and  CBF_3 
REMARK    2  A    between atoms: CBE_5  and  OAX_6 
REMARK    3  A    between atoms: CBD_10  and  OAZ_11 
REMARK    4  A    between atoms: OAZ_11  and  CAR_12 
REMARK    5  A    between atoms: CAR_12  and  CAV_13 
REMARK    6  A    between atoms: CAV_13  and  NBL_14 
REMARK    7  A    between atoms: CBJ_18  and  CBH_19 
REMARK    8  A    between atoms: CBH_19  and  OAG_20 
REMARK    9  A    between atoms: CBH_19  and  CAP_21 
REMARK   10  A    between atoms: CAP_21  and  OAF_22 
REMARK   11  A    between atoms: N_28  and  SBN_29 
REMARK   12  A    between atoms: SBN_29  and  CBG_32 
ROOT
ATOM      1  NBL MOL d          13.797   3.890  13.949  0.00  0.00    -0.348 N 
ATOM      2  C   MOL d          13.813   3.908  12.590  0.00  0.00     0.243 C 
ATOM      3  O   MOL d          13.543   2.857  11.986  0.00  0.00    -0.271 OA
ATOM      4  CAU MOL d          14.066   5.074  14.796  0.00  0.00     0.135 C 
ATOM      5  CBJ MOL d          15.500   5.604  14.551  0.00  0.00     0.058 C 
ATOM      6  CBK MOL d          15.549   6.447  13.260  0.00  0.00     0.105 C 
ATOM      7  CAT MOL d          16.724   6.093  12.348  0.00  0.00     0.027 C 
ATOM      8  CAQ MOL d          16.564   4.808  11.646  0.00  0.00     0.004 C 
ATOM      9  CB  MOL d          15.258   4.814  10.858  0.00  0.00     0.036 C 
ATOM     10  CA  MOL d          14.032   5.084  11.775  0.00  0.00     0.188 C 
ATOM     11  N   MOL d          14.239   6.329  12.549  0.00  0.00    -0.288 N 
ENDROOT
BRANCH   1  12
ATOM     12  CAV MOL d          13.623   2.619  14.675  0.00  0.00     0.152 C 
BRANCH  12  13
ATOM     13  CAR MOL d          12.236   2.501  15.303  0.00  0.00     0.195 C 
BRANCH  13  14
ATOM     14  OAZ MOL d          11.196   2.413  14.311  0.00  0.00    -0.349 OA
BRANCH  14  15
ATOM     15  CBD MOL d          10.917   1.218  13.722  0.00  0.00     0.071 A 
ATOM     16  CAM MOL d           9.781   1.186  12.910  0.00  0.00     0.076 A 
ATOM     17  CBF MOL d           9.418   0.028  12.274  0.00  0.00     0.104 A 
ATOM     18  CBE MOL d          10.154  -1.135  12.447  0.00  0.00     0.101 A 
ATOM     19  CAK MOL d          11.311  -1.118  13.244  0.00  0.00     0.042 A 
ATOM     20  CAJ MOL d          11.695   0.053  13.884  0.00  0.00     0.039 A 
BRANCH  17  21
ATOM     21  OAY MOL d           8.302  -0.075  11.491  0.00  0.00    -0.353 OA
ATOM     22  CAB MOL d           7.485   1.098  11.381  0.00  0.00     0.210 C 
ENDBRANCH  17  21
BRANCH  18  23
ATOM     23  OAX MOL d           9.697  -2.224  11.777  0.00  0.00    -0.353 OA
ATOM     24  CAA MOL d          10.374  -3.464  11.914  0.00  0.00     0.210 C 
ENDBRANCH  18  23
ENDBRANCH  14  15
ENDBRANCH  13  14
ENDBRANCH  12  13
ENDBRANCH   1  12
BRANCH   5  25
ATOM     25  CBH MOL d          16.065   6.432  15.736  0.00  0.00     0.149 C 
BRANCH  25  26
ATOM     26  OAG MOL d          15.125   7.465  15.992  0.00  0.00    -0.393 OA
ATOM     27  H   MOL d          15.433   8.000  16.715  0.00  0.00     0.210 HD
ENDBRANCH  25  26
BRANCH  25  28
ATOM     28  CAP MOL d          16.212   5.554  16.950  0.00  0.00     0.196 C 
BRANCH  28  29
ATOM     29  OAF MOL d          16.967   6.288  17.893  0.00  0.00    -0.398 OA
ATOM     30  H   MOL d          16.507   7.091  18.109  0.00  0.00     0.209 HD
ENDBRANCH  28  29
ENDBRANCH  25  28
ENDBRANCH   5  25
BRANCH  11  31
ATOM     31  SBN MOL d          13.618   7.731  11.950  0.00  0.00     0.262 S 
ATOM     32  OAD MOL d          12.630   7.378  10.882  0.00  0.00    -0.200 OA
ATOM     33  OAE MOL d          14.676   8.717  11.639  0.00  0.00    -0.200 OA
BRANCH  31  34
ATOM     34  CBG MOL d          12.726   8.361  13.303  0.00  0.00     0.083 A 
ATOM     35  CAN MOL d          11.493   7.796  13.610  0.00  0.00     0.049 A 
ATOM     36  CBB MOL d          10.771   8.243  14.711  0.00  0.00     0.037 A 
ATOM     37 CLB  MOL d           9.264   7.545  15.080  0.00  0.00    -0.084 Cl
ATOM     38  CAL MOL d          11.253   9.268  15.500  0.00  0.00     0.047 A 
ATOM     39  CBC MOL d          12.485   9.831  15.197  0.00  0.00     0.037 A 
ATOM     40 CLA  MOL d          13.093  11.078  16.173  0.00  0.00    -0.084 Cl
ATOM     41  CAO MOL d          13.222   9.372  14.109  0.00  0.00     0.049 A 
ENDBRANCH  31  34
ENDBRANCH  11  31
TORSDOF 12
