3rt4_ligand

Created by X-TOOL on Fri Sep 26 17:34:52 2014
112112  0  0  0  0  0  0  0  0999 V2000
  -21.2460  -30.9190  -21.3980  O 0  0  0  1  0  1
  -21.1710  -29.5890  -20.6730  P 0  0  0  1  0  4
  -20.1310  -29.5760  -19.5710  O 0  0  0  1  0  1
  -21.0640  -28.4150  -21.6270  O 0  0  0  1  0  1
  -22.6030  -29.3730  -19.9240  O 0  0  0  1  0  2
  -23.7940  -29.5520  -20.7050  C 0  0  0  2  0  4
  -25.0840  -28.7210  -20.4300  C 0  0  0  2  0  4
  -25.4340  -28.3150  -19.0500  N 0  0  0  2  0  3
  -25.8130  -29.0430  -17.9940  C 0  0  0  1  0  3
  -26.1580  -28.2730  -16.7320  C 0  0  0  3  0  4
  -27.4880  -28.7010  -16.1020  C 0  0  0  2  0  4
  -28.4330  -29.0520  -17.1210  O 0  0  0  2  0  2
  -28.0360  -27.5330  -15.2830  C 0  0  0  3  0  4
  -29.3230  -27.8630  -14.5290  C 0  0  0  3  0  4
  -30.3760  -26.7880  -14.7900  C 0  0  0  3  0  4
  -30.7290  -25.9660  -13.5440  C 0  0  0  3  0  4
  -29.5320  -25.1910  -12.9780  C 0  0  0  3  0  4
  -29.4610  -23.7610  -13.5200  C 0  0  0  3  0  4
  -28.5110  -23.6910  -14.7220  C 0  0  0  3  0  4
  -28.2680  -22.2510  -15.1650  C 0  0  0  3  0  4
  -27.7480  -22.1880  -16.5980  C 0  0  0  3  0  4
  -26.3280  -21.6370  -16.6490  C 0  0  0  3  0  4
  -25.7890  -21.6250  -18.0620  C 0  0  0  4  0  4
  -25.8620  -30.2560  -17.9970  O 0  0  0  1  0  1
  -26.3610  -29.4490  -20.9160  C 0  0  0  2  0  4
  -26.1840  -30.5570  -21.9770  C 0  0  0  2  0  4
  -24.8250  -31.2530  -22.0110  C 0  0  0  2  0  4
  -24.0960  -30.9400  -20.8160  O 0  0  0  1  0  2
  -24.0470  -30.9550  -23.3050  C 0  0  0  3  0  4
  -23.8770  -29.7380  -24.0530  O 0  0  0  2  0  2
  -27.1900  -31.5550  -21.7760  O 0  0  0  2  0  2
  -27.3270  -28.4630  -21.3290  O 0  0  0  1  0  2
  -27.6640  -28.4250  -22.7530  C 0  0  0  1  0  3
  -26.9120  -27.8430  -23.5240  O 0  0  0  1  0  1
  -28.9240  -29.0960  -23.2660  C 0  0  0  3  0  4
  -30.1060  -28.1340  -23.3110  C 0  0  0  2  0  4
  -30.2960  -27.5240  -22.0310  O 0  0  0  2  0  2
  -31.3600  -28.9070  -23.7020  C 0  0  0  3  0  4
  -31.5070  -28.9750  -25.2220  C 0  0  0  3  0  4
  -32.9050  -29.3730  -25.6900  C 0  0  0  3  0  4
  -34.0250  -28.7940  -24.8310  C 0  0  0  3  0  4
  -35.3680  -29.4020  -25.2070  C 0  0  0  3  0  4
  -36.3320  -28.3090  -25.6430  C 0  0  0  3  0  4
  -37.2790  -28.8230  -26.7160  C 0  0  0  3  0  4
  -37.7680  -27.6680  -27.5770  C 0  0  0  3  0  4
  -37.4750  -27.9160  -29.0500  C 0  0  0  3  0  4
  -36.5290  -26.8550  -29.5950  C 0  0  0  3  0  4
  -36.5080  -26.8710  -31.1070  C 0  0  0  4  0  4
  -23.4934  -29.2305  -21.7131  H 0  0  0  1  0  1
  -24.9625  -27.7969  -21.0142  H 0  0  0  1  0  1
  -25.3776  -27.3314  -18.8787  H 0  0  0  1  0  1
  -26.2188  -27.2035  -16.9818  H 0  0  0  1  0  1
  -25.3563  -28.4327  -15.9960  H 0  0  0  1  0  1
  -27.3213  -29.5679  -15.4458  H 0  0  0  1  0  1
  -28.0884  -29.7716  -17.6366  H 0  0  0  1  0  1
  -28.2386  -26.6947  -15.9658  H 0  0  0  1  0  1
  -27.2717  -27.2331  -14.5510  H 0  0  0  1  0  1
  -29.1109  -27.9099  -13.4507  H 0  0  0  1  0  1
  -29.7049  -28.8365  -14.8703  H 0  0  0  1  0  1
  -31.2908  -27.2774  -15.1555  H 0  0  0  1  0  1
  -29.9925  -26.1043  -15.5616  H 0  0  0  1  0  1
  -31.1028  -26.6495  -12.7675  H 0  0  0  1  0  1
  -31.5178  -25.2470  -13.8103  H 0  0  0  1  0  1
  -28.6067  -25.7196  -13.2507  H 0  0  0  1  0  1
  -29.6220  -25.1506  -11.8824  H 0  0  0  1  0  1
  -29.0938  -23.0912  -12.7285  H 0  0  0  1  0  1
  -30.4660  -23.4419  -13.8334  H 0  0  0  1  0  1
  -28.9527  -24.2518  -15.5589  H 0  0  0  1  0  1
  -27.5489  -24.1455  -14.4432  H 0  0  0  1  0  1
  -27.5267  -21.7910  -14.4951  H 0  0  0  1  0  1
  -29.2141  -21.6933  -15.1031  H 0  0  0  1  0  1
  -28.4068  -21.5355  -17.1897  H 0  0  0  1  0  1
  -27.7546  -23.2012  -17.0263  H 0  0  0  1  0  1
  -25.6776  -22.2663  -16.0237  H 0  0  0  1  0  1
  -26.3292  -20.6088  -16.2581  H 0  0  0  1  0  1
  -24.7653  -21.2224  -18.0605  H 0  0  0  1  0  1
  -26.4305  -20.9932  -18.6938  H 0  0  0  1  0  1
  -25.7790  -22.6507  -18.4594  H 0  0  0  1  0  1
  -26.7751  -29.9556  -20.0318  H 0  0  0  1  0  1
  -26.3379  -30.0913  -22.9616  H 0  0  0  1  0  1
  -25.0116  -32.3370  -22.0009  H 0  0  0  1  0  1
  -24.4790  -31.6535  -24.0367  H 0  0  0  1  0  1
  -23.0177  -31.2623  -23.0681  H 0  0  0  1  0  1
  -23.3294  -29.9072  -24.8107  H 0  0  0  1  0  1
  -28.0447  -31.1411  -21.7518  H 0  0  0  1  0  1
  -29.1749  -29.9358  -22.6014  H 0  0  0  1  0  1
  -28.7361  -29.4753  -24.2813  H 0  0  0  1  0  1
  -29.9103  -27.3516  -24.0590  H 0  0  0  1  0  1
  -31.0344  -26.9277  -22.0721  H 0  0  0  1  0  1
  -32.2408  -28.4032  -23.2772  H 0  0  0  1  0  1
  -31.2930  -29.9289  -23.3006  H 0  0  0  1  0  1
  -30.7892  -29.7143  -25.6069  H 0  0  0  1  0  1
  -31.2714  -27.9842  -25.6377  H 0  0  0  1  0  1
  -32.9804  -30.4701  -25.6662  H 0  0  0  1  0  1
  -33.0401  -29.0185  -26.7225  H 0  0  0  1  0  1
  -34.0680  -27.7052  -24.9815  H 0  0  0  1  0  1
  -33.8156  -29.0100  -23.7729  H 0  0  0  1  0  1
  -35.7853  -29.9293  -24.3365  H 0  0  0  1  0  1
  -35.2267  -30.1137  -26.0338  H 0  0  0  1  0  1
  -35.7582  -27.4607  -26.0444  H 0  0  0  1  0  1
  -36.9181  -27.9767  -24.7735  H 0  0  0  1  0  1
  -38.1411  -29.3107  -26.2375  H 0  0  0  1  0  1
  -36.7508  -29.5509  -27.3493  H 0  0  0  1  0  1
  -37.2602  -26.7449  -27.2608  H 0  0  0  1  0  1
  -38.8537  -27.5542  -27.4415  H 0  0  0  1  0  1
  -38.4176  -27.8849  -29.6162  H 0  0  0  1  0  1
  -37.0111  -28.9068  -29.1644  H 0  0  0  1  0  1
  -35.5139  -27.0512  -29.2193  H 0  0  0  1  0  1
  -36.8624  -25.8650  -29.2506  H 0  0  0  1  0  1
  -35.8179  -26.0962  -31.4723  H 0  0  0  1  0  1
  -37.5196  -26.6710  -31.4899  H 0  0  0  1  0  1
  -36.1711  -27.8573  -31.4586  H 0  0  0  1  0  1
  1  2  2  0  0  2
  2  3  2  0  0  2
  2  4  2  0  0  2
  2  5  1  0  0  2
  5  6  1  0  0  2
  6  7  1  0  0  1
  6 28  1  0  0  1
  7  8  1  0  0  2
  7 25  1  0  0  1
  8  9  1  0  0  2
  9 10  1  0  0  2
  9 24  2  0  0  2
 10 11  1  0  0  2
 11 12  1  0  0  2
 11 13  1  0  0  2
 13 14  1  0  0  2
 14 15  1  0  0  2
 15 16  1  0  0  2
 16 17  1  0  0  2
 17 18  1  0  0  2
 18 19  1  0  0  2
 19 20  1  0  0  2
 20 21  1  0  0  2
 21 22  1  0  0  2
 22 23  1  0  0  2
 25 26  1  0  0  1
 25 32  1  0  0  2
 26 27  1  0  0  1
 26 31  1  0  0  2
 27 28  1  0  0  1
 27 29  1  0  0  2
 29 30  1  0  0  2
 32 33  1  0  0  2
 33 34  2  0  0  2
 33 35  1  0  0  2
 35 36  1  0  0  2
 36 37  1  0  0  2
 36 38  1  0  0  2
 38 39  1  0  0  2
 39 40  1  0  0  2
 40 41  1  0  0  2
 41 42  1  0  0  2
 42 43  1  0  0  2
 43 44  1  0  0  2
 44 45  1  0  0  2
 45 46  1  0  0  2
 46 47  1  0  0  2
 47 48  1  0  0  2
  6 49  1  0  0  2
  7 50  1  0  0  2
  8 51  1  0  0  2
 10 52  1  0  0  2
 10 53  1  0  0  2
 11 54  1  0  0  2
 12 55  1  0  0  2
 13 56  1  0  0  2
 13 57  1  0  0  2
 14 58  1  0  0  2
 14 59  1  0  0  2
 15 60  1  0  0  2
 15 61  1  0  0  2
 16 62  1  0  0  2
 16 63  1  0  0  2
 17 64  1  0  0  2
 17 65  1  0  0  2
 18 66  1  0  0  2
 18 67  1  0  0  2
 19 68  1  0  0  2
 19 69  1  0  0  2
 20 70  1  0  0  2
 20 71  1  0  0  2
 21 72  1  0  0  2
 21 73  1  0  0  2
 22 74  1  0  0  2
 22 75  1  0  0  2
 23 76  1  0  0  2
 23 77  1  0  0  2
 23 78  1  0  0  2
 25 79  1  0  0  2
 26 80  1  0  0  2
 27 81  1  0  0  2
 29 82  1  0  0  2
 29 83  1  0  0  2
 30 84  1  0  0  2
 31 85  1  0  0  2
 35 86  1  0  0  2
 35 87  1  0  0  2
 36 88  1  0  0  2
 37 89  1  0  0  2
 38 90  1  0  0  2
 38 91  1  0  0  2
 39 92  1  0  0  2
 39 93  1  0  0  2
 40 94  1  0  0  2
 40 95  1  0  0  2
 41 96  1  0  0  2
 41 97  1  0  0  2
 42 98  1  0  0  2
 42 99  1  0  0  2
 43100  1  0  0  2
 43101  1  0  0  2
 44102  1  0  0  2
 44103  1  0  0  2
 45104  1  0  0  2
 45105  1  0  0  2
 46106  1  0  0  2
 46107  1  0  0  2
 47108  1  0  0  2
 47109  1  0  0  2
 48110  1  0  0  2
 48111  1  0  0  2
 48112  1  0  0  2
M  END
> <MOLECULAR_FORMULA>
C34H64NO12P

> <MOLECULAR_WEIGHT>
709.3

> <NUM_HB_ATOMS>
13 

> <NUM_ROTOR>
29 

> <XLOGP2>
6.04 

$$$$
