REMARK WARNING: 32 MAX_TORS EXCEEDED!!!
REMARK  34 active torsions:
REMARK  status: ('A' for Active; 'I' for Inactive)
REMARK    1  A    between atoms: P45_2  and  O1_5 
REMARK    2  A    between atoms: O1_5  and  C1_6 
REMARK    3  A    between atoms: C2_7  and  N2_8 
REMARK       I    between atoms: N2_8  and  C7_9 
REMARK    4  A    between atoms: C7_9  and  C8_10 
REMARK    5  A    between atoms: C8_10  and  C16_11 
REMARK    6  A    between atoms: C16_11  and  O44_12 
REMARK    7  A    between atoms: C16_11  and  C17_13 
REMARK    8  A    between atoms: C17_13  and  C18_14 
REMARK    9  A    between atoms: C18_14  and  C19_15 
REMARK   10  A    between atoms: C19_15  and  C20_16 
REMARK   11  A    between atoms: C20_16  and  C21_17 
REMARK   12  A    between atoms: C21_17  and  C22_18 
REMARK   13  A    between atoms: C22_18  and  C23_19 
REMARK   14  A    between atoms: C23_19  and  C24_20 
REMARK   15  A    between atoms: C24_20  and  C25_21 
REMARK   16  A    between atoms: C25_21  and  C26_22 
REMARK   17  A    between atoms: C3_25  and  O3_32 
REMARK   18  A    between atoms: C4_26  and  O4_31 
REMARK   19  A    between atoms: C5_27  and  C6_29 
REMARK   20  A    between atoms: C6_29  and  O6_30 
REMARK   21  A    between atoms: O3_32  and  C28_33 
REMARK   22  A    between atoms: C28_33  and  C29_35 
REMARK   23  A    between atoms: C29_35  and  C30_36 
REMARK   24  A    between atoms: C30_36  and  O43_37 
REMARK   25  A    between atoms: C30_36  and  C31_38 
REMARK   26  A    between atoms: C31_38  and  C32_39 
REMARK   27  A    between atoms: C32_39  and  C33_40 
REMARK   28  A    between atoms: C33_40  and  C34_41 
REMARK   29  A    between atoms: C34_41  and  C35_42 
REMARK   30  A    between atoms: C35_42  and  C36_43 
REMARK   31  A    between atoms: C36_43  and  C37_44 
REMARK   32  A    between atoms: C37_44  and  C38_45 
REMARK   33  A    between atoms: C38_45  and  C39_46 
REMARK   34  A    between atoms: C39_46  and  C40_47 
ROOT
ATOM      1  C1  LP5 d         -23.794 -29.552 -20.705  0.00  0.00     0.299 C 
ATOM      2  C2  LP5 d         -25.084 -28.721 -20.430  0.00  0.00     0.172 C 
ATOM      3  C3  LP5 d         -26.361 -29.449 -20.916  0.00  0.00     0.190 C 
ATOM      4  C4  LP5 d         -26.184 -30.557 -21.977  0.00  0.00     0.181 C 
ATOM      5  C5  LP5 d         -24.825 -31.253 -22.011  0.00  0.00     0.179 C 
ATOM      6  O5  LP5 d         -24.096 -30.940 -20.816  0.00  0.00    -0.348 OA
ENDROOT
BRANCH   2   7
ATOM      7  N2  LP5 d         -25.434 -28.315 -19.050  0.00  0.00    -0.349 N 
ATOM      8  C7  LP5 d         -25.813 -29.043 -17.994  0.00  0.00     0.220 C 
ATOM      9  O7  LP5 d         -25.862 -30.256 -17.997  0.00  0.00    -0.274 OA
ATOM     10  H3  LP5 d         -25.378 -27.331 -18.879  0.00  0.00     0.163 HD
BRANCH   8  11
ATOM     11  C8  LP5 d         -26.158 -28.273 -16.732  0.00  0.00     0.134 C 
BRANCH  11  12
ATOM     12  C16 LP5 d         -27.488 -28.701 -16.102  0.00  0.00     0.127 C 
BRANCH  12  13
ATOM     13  O44 LP5 d         -28.433 -29.052 -17.121  0.00  0.00    -0.395 OA
ATOM     14  H7  LP5 d         -28.088 -29.772 -17.637  0.00  0.00     0.210 HD
ENDBRANCH  12  13
BRANCH  12  15
ATOM     15  C17 LP5 d         -28.036 -27.533 -15.283  0.00  0.00     0.032 C 
BRANCH  15  16
ATOM     16  C18 LP5 d         -29.323 -27.863 -14.529  0.00  0.00     0.002 C 
BRANCH  16  17
ATOM     17  C19 LP5 d         -30.376 -26.788 -14.790  0.00  0.00     0.000 C 
BRANCH  17  18
ATOM     18  C20 LP5 d         -30.729 -25.966 -13.544  0.00  0.00     0.000 C 
BRANCH  18  19
ATOM     19  C21 LP5 d         -29.532 -25.191 -12.978  0.00  0.00     0.000 C 
BRANCH  19  20
ATOM     20  C22 LP5 d         -29.461 -23.761 -13.520  0.00  0.00     0.000 C 
BRANCH  20  21
ATOM     21  C23 LP5 d         -28.511 -23.691 -14.722  0.00  0.00     0.000 C 
BRANCH  21  22
ATOM     22  C24 LP5 d         -28.268 -22.251 -15.165  0.00  0.00     0.000 C 
BRANCH  22  23
ATOM     23  C25 LP5 d         -27.748 -22.188 -16.598  0.00  0.00    -0.000 C 
BRANCH  23  24
ATOM     24  C26 LP5 d         -26.328 -21.637 -16.649  0.00  0.00    -0.005 C 
ATOM     25  C27 LP5 d         -25.789 -21.625 -18.062  0.00  0.00     0.005 C 
ENDBRANCH  23  24
ENDBRANCH  22  23
ENDBRANCH  21  22
ENDBRANCH  20  21
ENDBRANCH  19  20
ENDBRANCH  18  19
ENDBRANCH  17  18
ENDBRANCH  16  17
ENDBRANCH  15  16
ENDBRANCH  12  15
ENDBRANCH  11  12
ENDBRANCH   8  11
ENDBRANCH   2   7
BRANCH   1  26
ATOM     26  O1  LP5 d         -22.603 -29.373 -19.924  0.00  0.00    -0.249 OA
BRANCH  26  27
ATOM     27  P45 LP5 d         -21.171 -29.589 -20.673  0.00  0.00     0.424 P 
ATOM     28  O48 LP5 d         -21.246 -30.919 -21.398  0.00  0.00    -0.617 OA
ATOM     29  O46 LP5 d         -20.131 -29.576 -19.571  0.00  0.00    -0.617 OA
ATOM     30  O47 LP5 d         -21.064 -28.415 -21.627  0.00  0.00    -0.617 OA
ENDBRANCH  26  27
ENDBRANCH   1  26
BRANCH   3  31
ATOM     31  O3  LP5 d         -27.327 -28.463 -21.329  0.00  0.00    -0.311 OA
BRANCH  31  32
ATOM     32  C28 LP5 d         -27.664 -28.425 -22.753  0.00  0.00     0.261 C 
ATOM     33  O42 LP5 d         -26.912 -27.843 -23.524  0.00  0.00    -0.265 OA
BRANCH  32  34
ATOM     34  C29 LP5 d         -28.924 -29.096 -23.266  0.00  0.00     0.142 C 
BRANCH  34  35
ATOM     35  C30 LP5 d         -30.106 -28.134 -23.311  0.00  0.00     0.127 C 
BRANCH  35  36
ATOM     36  O43 LP5 d         -30.296 -27.524 -22.031  0.00  0.00    -0.395 OA
ATOM     37  H41 LP5 d         -31.034 -26.928 -22.072  0.00  0.00     0.210 HD
ENDBRANCH  35  36
BRANCH  35  38
ATOM     38  C31 LP5 d         -31.360 -28.907 -23.702  0.00  0.00     0.032 C 
BRANCH  38  39
ATOM     39  C32 LP5 d         -31.507 -28.975 -25.222  0.00  0.00     0.002 C 
BRANCH  39  40
ATOM     40  C33 LP5 d         -32.905 -29.373 -25.690  0.00  0.00     0.000 C 
BRANCH  40  41
ATOM     41  C34 LP5 d         -34.025 -28.794 -24.831  0.00  0.00     0.000 C 
BRANCH  41  42
ATOM     42  C35 LP5 d         -35.368 -29.402 -25.207  0.00  0.00     0.000 C 
BRANCH  42  43
ATOM     43  C36 LP5 d         -36.332 -28.309 -25.643  0.00  0.00     0.000 C 
BRANCH  43  44
ATOM     44  C37 LP5 d         -37.279 -28.823 -26.716  0.00  0.00     0.000 C 
BRANCH  44  45
ATOM     45  C38 LP5 d         -37.768 -27.668 -27.577  0.00  0.00     0.000 C 
BRANCH  45  46
ATOM     46  C39 LP5 d         -37.475 -27.916 -29.050  0.00  0.00    -0.000 C 
BRANCH  46  47
ATOM     47  C40 LP5 d         -36.529 -26.855 -29.595  0.00  0.00    -0.005 C 
ATOM     48  C41 LP5 d         -36.508 -26.871 -31.107  0.00  0.00     0.005 C 
ENDBRANCH  46  47
ENDBRANCH  45  46
ENDBRANCH  44  45
ENDBRANCH  43  44
ENDBRANCH  42  43
ENDBRANCH  41  42
ENDBRANCH  40  41
ENDBRANCH  39  40
ENDBRANCH  38  39
ENDBRANCH  35  38
ENDBRANCH  34  35
ENDBRANCH  32  34
ENDBRANCH  31  32
ENDBRANCH   3  31
BRANCH   4  49
ATOM     49  O4  LP5 d         -27.190 -31.555 -21.776  0.00  0.00    -0.390 OA
ATOM     50  H37 LP5 d         -28.045 -31.141 -21.752  0.00  0.00     0.210 HD
ENDBRANCH   4  49
BRANCH   5  51
ATOM     51  C6  LP5 d         -24.047 -30.955 -23.305  0.00  0.00     0.198 C 
BRANCH  51  52
ATOM     52  O6  LP5 d         -23.877 -29.738 -24.053  0.00  0.00    -0.398 OA
ATOM     53  H36 LP5 d         -23.329 -29.907 -24.811  0.00  0.00     0.209 HD
ENDBRANCH  51  52
ENDBRANCH   5  51
TORSDOF 34
