REMARK  4 active torsions:
REMARK  status: ('A' for Active; 'I' for Inactive)
REMARK    1  A    between atoms: C2_2  and  S10_10 
REMARK    2  A    between atoms: C5_5  and  N14_14 
REMARK    3  A    between atoms: S10_10  and  N13_13 
REMARK    4  A    between atoms: N14_14  and  C18_18 
ROOT
ATOM      1  S1  ETS d          15.171   3.545  15.672  0.00  0.00    -0.064 SA
ATOM      2  C2  ETS d          16.127   2.152  15.896  0.00  0.00     0.121 A 
ATOM      3  C3  ETS d          17.444   2.225  15.270  0.00  0.00     0.044 A 
ATOM      4  C4  ETS d          17.460   3.551  14.682  0.00  0.00     0.003 A 
ATOM      5  C5  ETS d          18.724   3.918  13.927  0.00  0.00     0.222 C 
ATOM      6  C6  ETS d          18.824   5.397  13.595  0.00  0.00     0.058 C 
ATOM      7  C7  ETS d          17.588   5.955  12.958  0.00  0.00     0.112 C 
ATOM      8  S8  ETS d          16.290   5.918  14.202  0.00  0.00     0.186 S 
ATOM      9  C9  ETS d          16.345   4.302  14.826  0.00  0.00     0.110 A 
ATOM     10  C15 ETS d          17.873   7.356  12.502  0.00  0.00     0.026 C 
ATOM     11  O16 ETS d          16.598   6.760  15.324  0.00  0.00    -0.222 OA
ATOM     12  O17 ETS d          14.996   6.215  13.635  0.00  0.00    -0.222 OA
ENDROOT
BRANCH   2  13
ATOM     13  S10 ETS d          15.447   0.820  16.830  0.00  0.00     0.263 S 
ATOM     14  O11 ETS d          15.934   0.922  18.204  0.00  0.00    -0.200 OA
ATOM     15  O12 ETS d          13.999   0.966  16.723  0.00  0.00    -0.200 OA
BRANCH  13  16
ATOM     16  N13 ETS d          16.070  -0.559  16.244  0.00  0.00    -0.324 N 
ATOM     17  H6  ETS d          15.806  -1.437  16.644  0.00  0.00     0.169 HD
ATOM     18  H7  ETS d          16.718  -0.531  15.483  0.00  0.00     0.169 HD
ENDBRANCH  13  16
ENDBRANCH   2  13
BRANCH   5  19
ATOM     19  N14 ETS d          18.683   3.128  12.703  0.00  0.00    -0.067 N 
ATOM     20  H8  ETS d          17.952   3.499  12.116  0.00  0.00     0.277 HD
ATOM     21  H9  ETS d          18.463   2.176  12.953  0.00  0.00     0.277 HD
BRANCH  19  22
ATOM     22  C18 ETS d          19.907   3.118  11.939  0.00  0.00     0.228 C 
ATOM     23  C19 ETS d          20.038   2.084  10.852  0.00  0.00     0.034 C 
ENDBRANCH  19  22
ENDBRANCH   5  19
TORSDOF 4
