REMARK  6 active torsions:
REMARK  status: ('A' for Active; 'I' for Inactive)
REMARK    1  A    between atoms: C1_1  and  C2_4 
REMARK    2  A    between atoms: C4_6  and  NE_21 
REMARK    3  A    between atoms: C5_7  and  N5_8 
REMARK       I    between atoms: N5_8  and  C10_9 
REMARK    4  A    between atoms: C6_12  and  C7_14 
REMARK       I    between atoms: C7_14  and  N8_16 
REMARK    5  A    between atoms: N8_16  and  C9_18 
REMARK    6  A    between atoms: C9_18  and  C91_19 
REMARK       I    between atoms: NE_21  and  CZ_22 
REMARK       I    between atoms: CZ_22  and  NH1_23 
ROOT
ATOM      1  C2  G20 d          24.430  18.879  64.220  0.00  0.00     0.144 C 
ATOM      2  C3  G20 d          23.967  17.697  63.926  0.00  0.00     0.045 C 
ATOM      3  C4  G20 d          24.592  16.730  62.821  0.00  0.00     0.151 C 
ATOM      4  C5  G20 d          25.983  16.876  62.786  0.00  0.00     0.150 C 
ATOM      5  C6  G20 d          26.277  18.367  62.827  0.00  0.00     0.246 C 
ATOM      6  O6  G20 d          25.739  18.935  63.984  0.00  0.00    -0.328 OA
ENDROOT
BRANCH   3   7
ATOM      7  NE  G20 d          24.236  15.291  62.936  0.00  0.00    -0.217 N 
ATOM      8  CZ  G20 d          23.862  14.335  61.987  0.00  0.00     0.665 C 
ATOM      9  NH2 G20 d          23.618  13.070  62.357  0.00  0.00    -0.235 N 
ATOM     10  NH1 G20 d          23.842  14.659  60.699  0.00  0.00    -0.235 N 
ATOM     11  H22 G20 d          23.632  12.813  63.354  0.00  0.00     0.174 HD
ATOM     12  H23 G20 d          23.416  12.355  61.644  0.00  0.00     0.174 HD
ATOM     13  H20 G20 d          23.567  13.958  59.996  0.00  0.00     0.174 HD
ATOM     14  H21 G20 d          24.101  15.611  60.403  0.00  0.00     0.174 HD
ATOM     15  H19 G20 d          24.272  14.929  63.900  0.00  0.00     0.178 HD
ENDBRANCH   3   7
BRANCH   4  16
ATOM     16  N5  G20 d          26.592  16.177  61.679  0.00  0.00    -0.351 N 
ATOM     17  C10 G20 d          27.077  14.949  61.837  0.00  0.00     0.214 C 
ATOM     18  C11 G20 d          27.570  14.290  60.559  0.00  0.00     0.117 C 
ATOM     19  O10 G20 d          27.057  14.354  62.916  0.00  0.00    -0.274 OA
ATOM     20  H4  G20 d          26.650  16.621  60.785  0.00  0.00     0.163 HD
ENDBRANCH   4  16
BRANCH   1  21
ATOM     21  C1  G20 d          23.631  19.829  64.890  0.00  0.00     0.233 C 
ATOM     22  O1B G20 d          22.404  19.670  65.115  0.00  0.00    -0.642 OA
ATOM     23  O1A G20 d          24.220  20.893  65.141  0.00  0.00    -0.642 OA
ENDBRANCH   1  21
BRANCH   5  24
ATOM     24  C7  G20 d          27.781  18.403  62.922  0.00  0.00     0.251 C 
ATOM     25  N8  G20 d          28.479  18.732  61.821  0.00  0.00    -0.354 N 
ATOM     26  C81 G20 d          27.982  19.086  60.480  0.00  0.00     0.152 C 
ATOM     27  O7  G20 d          28.329  18.056  63.976  0.00  0.00    -0.270 OA
BRANCH  25  28
ATOM     28  C9  G20 d          29.952  18.690  62.006  0.00  0.00     0.125 C 
BRANCH  28  29
ATOM     29  C91 G20 d          30.449  17.288  62.443  0.00  0.00     0.015 C 
ATOM     30  C92 G20 d          31.945  17.121  62.324  0.00  0.00     0.006 C 
ENDBRANCH  28  29
ENDBRANCH  25  28
ENDBRANCH   5  24
TORSDOF 6
