REMARK  18 active torsions:
REMARK  status: ('A' for Active; 'I' for Inactive)
REMARK    1  A    between atoms: C1A_1  and  O1X_7 
REMARK    2  A    between atoms: C2A_2  and  O2A_8 
REMARK    3  A    between atoms: C3A_3  and  O3A_9 
REMARK    4  A    between atoms: C4A_4  and  O4A_10 
REMARK    5  A    between atoms: C5A_5  and  C6A_6 
REMARK    6  A    between atoms: C6A_6  and  O6A_12 
REMARK    7  A    between atoms: O4A_10  and  C1B_13 
REMARK    8  A    between atoms: C2B_14  and  O2B_19 
REMARK    9  A    between atoms: C3B_15  and  O3B_20 
REMARK   10  A    between atoms: C4B_16  and  O4B_21 
REMARK   11  A    between atoms: C5B_17  and  C6B_18 
REMARK   12  A    between atoms: C6B_18  and  O6B_23 
REMARK   13  A    between atoms: O4B_21  and  C1C_24 
REMARK   14  A    between atoms: C2C_25  and  O2C_30 
REMARK   15  A    between atoms: C3C_26  and  O3C_31 
REMARK   16  A    between atoms: C4C_27  and  O4C_32 
REMARK   17  A    between atoms: C5C_28  and  C6C_29 
REMARK   18  A    between atoms: C6C_29  and  O6C_34 
ROOT
ATOM      1  C1B MLR d         -30.130   8.621  -3.180  0.00  0.00     0.292 C 
ATOM      2  C2B MLR d         -29.494   9.797  -2.545  0.00  0.00     0.204 C 
ATOM      3  C3B MLR d         -28.440  10.363  -3.431  0.00  0.00     0.183 C 
ATOM      4  C4B MLR d         -27.420   9.339  -3.831  0.00  0.00     0.187 C 
ATOM      5  C5B MLR d         -28.092   8.117  -4.399  0.00  0.00     0.180 C 
ATOM      6  O5B MLR d         -29.123   7.624  -3.518  0.00  0.00    -0.348 OA
ENDROOT
BRANCH   1   7
ATOM      7  O4A MLR d         -30.793   9.020  -4.370  0.00  0.00    -0.348 OA
BRANCH   7   8
ATOM      8  C4A MLR d         -32.172   8.575  -4.466  0.00  0.00     0.187 C 
ATOM      9  C3A MLR d         -33.078   9.772  -4.454  0.00  0.00     0.183 C 
ATOM     10  C2A MLR d         -34.489   9.337  -4.569  0.00  0.00     0.204 C 
ATOM     11  C1A MLR d         -34.721   8.531  -5.820  0.00  0.00     0.288 C 
ATOM     12  O5A MLR d         -33.769   7.413  -5.861  0.00  0.00    -0.349 OA
ATOM     13  C5A MLR d         -32.369   7.779  -5.731  0.00  0.00     0.180 C 
BRANCH   9  14
ATOM     14  O3A MLR d         -32.952  10.456  -3.174  0.00  0.00    -0.390 OA
ATOM     15  H   MLR d         -32.052  10.736  -3.053  0.00  0.00     0.210 HD
ENDBRANCH   9  14
BRANCH  10  16
ATOM     16  O2A MLR d         -35.430  10.457  -4.531  0.00  0.00    -0.388 OA
ATOM     17  H   MLR d         -35.247  11.047  -5.253  0.00  0.00     0.210 HD
ENDBRANCH  10  16
BRANCH  11  18
ATOM     18  O1X MLR d         -34.581   9.290  -6.958  0.00  0.00    -0.369 OA
ATOM     19  H   MLR d         -33.694   9.628  -7.005  0.00  0.00     0.212 HD
ENDBRANCH  11  18
BRANCH  13  20
ATOM     20  C6A MLR d         -31.629   6.468  -5.671  0.00  0.00     0.198 C 
BRANCH  20  21
ATOM     21  O6A MLR d         -31.808   5.768  -6.909  0.00  0.00    -0.398 OA
ATOM     22  H   MLR d         -32.733   5.606  -7.049  0.00  0.00     0.209 HD
ENDBRANCH  20  21
ENDBRANCH  13  20
ENDBRANCH   7   8
ENDBRANCH   1   7
BRANCH   2  23
ATOM     23  O2B MLR d         -30.516  10.782  -2.230  0.00  0.00    -0.388 OA
ATOM     24  H   MLR d         -30.116  11.521  -1.786  0.00  0.00     0.210 HD
ENDBRANCH   2  23
BRANCH   3  25
ATOM     25  O3B MLR d         -27.770  11.481  -2.785  0.00  0.00    -0.390 OA
ATOM     26  H   MLR d         -27.149  11.869  -3.390  0.00  0.00     0.210 HD
ENDBRANCH   3  25
BRANCH   5  27
ATOM     27  C6B MLR d         -27.086   6.983  -4.532  0.00  0.00     0.198 C 
BRANCH  27  28
ATOM     28  O6B MLR d         -27.681   5.839  -5.135  0.00  0.00    -0.398 OA
ATOM     29  H   MLR d         -27.998   6.068  -6.001  0.00  0.00     0.209 HD
ENDBRANCH  27  28
ENDBRANCH   5  27
BRANCH   4  30
ATOM     30  O4B MLR d         -26.488   9.886  -4.818  0.00  0.00    -0.348 OA
BRANCH  30  31
ATOM     31  C1C MLR d         -25.324  10.282  -4.293  0.00  0.00     0.292 C 
ATOM     32  C2C MLR d         -24.827  11.595  -4.781  0.00  0.00     0.204 C 
ATOM     33  C3C MLR d         -24.603  11.567  -6.208  0.00  0.00     0.183 C 
ATOM     34  C4C MLR d         -23.592  10.668  -6.682  0.00  0.00     0.180 C 
ATOM     35  C5C MLR d         -24.042   9.282  -6.261  0.00  0.00     0.179 C 
ATOM     36  O5C MLR d         -24.205   9.221  -4.714  0.00  0.00    -0.348 OA
BRANCH  32  37
ATOM     37  O2C MLR d         -25.872  12.514  -4.331  0.00  0.00    -0.388 OA
ATOM     38  H   MLR d         -25.644  13.400  -4.587  0.00  0.00     0.210 HD
ENDBRANCH  32  37
BRANCH  33  39
ATOM     39  O3C MLR d         -24.245  13.027  -6.623  0.00  0.00    -0.390 OA
ATOM     40  H   MLR d         -24.193  13.082  -7.570  0.00  0.00     0.210 HD
ENDBRANCH  33  39
BRANCH  34  41
ATOM     41  O4C MLR d         -23.442  10.639  -8.136  0.00  0.00    -0.390 OA
ATOM     42  H   MLR d         -24.276  10.419  -8.535  0.00  0.00     0.210 HD
ENDBRANCH  34  41
BRANCH  35  43
ATOM     43  C6C MLR d         -23.080   8.218  -6.537  0.00  0.00     0.198 C 
BRANCH  43  44
ATOM     44  O6C MLR d         -23.649   6.888  -6.368  0.00  0.00    -0.398 OA
ATOM     45  H   MLR d         -24.382   6.780  -6.963  0.00  0.00     0.209 HD
ENDBRANCH  43  44
ENDBRANCH  35  43
ENDBRANCH  30  31
ENDBRANCH   4  30
TORSDOF 18
