REMARK  11 active torsions:
REMARK  status: ('A' for Active; 'I' for Inactive)
REMARK    1  A    between atoms: C2_10  and  N_2 
REMARK    2  A    between atoms: C1_6  and  O_3 
REMARK    3  A    between atoms: O_3  and  C8_26 
REMARK    4  A    between atoms: P_4  and  S_5 
REMARK    5  A    between atoms: P_4  and  O2_12 
REMARK    6  A    between atoms: C8_26  and  P_4 
REMARK    7  A    between atoms: C1_6  and  C2_10 
REMARK    8  A    between atoms: O2_12  and  P1_9 
REMARK    9  A    between atoms: P1_9  and  O5_21 
REMARK   10  A    between atoms: O5_21  and  P2_13 
REMARK   11  A    between atoms: C7_24  and  N4_18 
ROOT
ATOM      1  O   EOI d          49.191 -50.730  76.937  0.00  0.00    -0.374 OA
ENDROOT
BRANCH   1   2
ATOM      2  C1  EOI d          49.626 -51.868  76.193  0.00  0.00     0.136 C 
ATOM      3  C   EOI d          49.327 -53.082  77.033  0.00  0.00     0.041 C 
BRANCH   2   4
ATOM      4  C2  EOI d          51.137 -51.764  75.795  0.00  0.00     0.163 C 
BRANCH   4   5
ATOM      5  N   EOI d          52.082 -51.434  76.855  0.00  0.00    -0.322 N 
ATOM      6  C3  EOI d          52.272 -50.203  77.413  0.00  0.00     0.212 A 
ATOM      7  N1  EOI d          53.195 -50.167  78.344  0.00  0.00    -0.236 NA
ATOM      8  C4  EOI d          53.643 -51.478  78.405  0.00  0.00     0.149 A 
ATOM      9  C5  EOI d          52.969 -52.267  77.488  0.00  0.00     0.165 A 
ATOM     10  C7  EOI d          54.596 -52.118  79.223  0.00  0.00     0.155 A 
ATOM     11  N2  EOI d          53.136 -53.583  77.284  0.00  0.00    -0.222 NA
ATOM     12  C6  EOI d          54.062 -54.082  78.112  0.00  0.00     0.237 A 
ATOM     13  N3  EOI d          54.782 -53.449  79.047  0.00  0.00    -0.222 NA
BRANCH  10  14
ATOM     14  N4  EOI d          55.305 -51.493  80.166  0.00  0.00    -0.382 N 
ATOM     15  H9  EOI d          55.181 -50.482  80.318  0.00  0.00     0.157 HD
ATOM     16  H10 EOI d          55.976 -52.022  80.741  0.00  0.00     0.157 HD
ENDBRANCH  10  14
ENDBRANCH   4   5
ENDBRANCH   2   4
ENDBRANCH   1   2
BRANCH   1  17
ATOM     17  C8  EOI d          48.106 -49.954  76.404  0.00  0.00     0.281 C 
BRANCH  17  18
ATOM     18  P   EOI d          48.720 -48.592  75.318  0.00  0.00     0.284 P 
ATOM     19  O1  EOI d          50.130 -48.234  75.474  0.00  0.00    -0.277 OA
BRANCH  18  20
ATOM     20  S   EOI d          47.353 -47.141  75.546  0.00  0.00    -0.084 SA
ATOM     21  H4  EOI d          46.431 -47.526  75.412  0.00  0.00     0.111 HD
ENDBRANCH  18  20
BRANCH  18  22
ATOM     22  O2  EOI d          48.433 -49.105  73.858  0.00  0.00    -0.217 OA
BRANCH  22  23
ATOM     23  P1  EOI d          48.423 -49.952  72.515  0.00  0.00     0.425 P 
ATOM     24  O3  EOI d          49.756 -50.530  72.240  0.00  0.00    -0.624 OA
ATOM     25  O4  EOI d          47.826 -48.991  71.487  0.00  0.00    -0.624 OA
BRANCH  23  26
ATOM     26  O5  EOI d          47.304 -51.008  72.749  0.00  0.00    -0.173 OA
BRANCH  26  27
ATOM     27  P2  EOI d          46.065 -51.894  73.189  0.00  0.00     0.431 P 
ATOM     28  O6  EOI d          45.728 -53.056  72.315  0.00  0.00    -0.616 OA
ATOM     29  O7  EOI d          44.931 -50.854  73.324  0.00  0.00    -0.616 OA
ATOM     30  O8  EOI d          46.517 -52.328  74.593  0.00  0.00    -0.616 OA
ENDBRANCH  26  27
ENDBRANCH  23  26
ENDBRANCH  22  23
ENDBRANCH  18  22
ENDBRANCH  17  18
ENDBRANCH   1  17
TORSDOF 11
