REMARK  9 active torsions:
REMARK  status: ('A' for Active; 'I' for Inactive)
REMARK    1  A    between atoms: C1_1  and  C2_4 
REMARK    2  A    between atoms: C4_6  and  N4_7 
REMARK    3  A    between atoms: C5_8  and  N5_9 
REMARK       I    between atoms: N5_9  and  C10_10 
REMARK    4  A    between atoms: C6_13  and  C7_15 
REMARK    5  A    between atoms: C7_15  and  C8_17 
REMARK    6  A    between atoms: C7_15  and  O7_16 
REMARK    7  A    between atoms: C8_17  and  C9_19 
REMARK    8  A    between atoms: C8_17  and  O8_18 
REMARK    9  A    between atoms: C9_19  and  O9_20 
ROOT
ATOM      1  C2  MOL d          24.187  18.807  64.073  0.00  0.00     0.144 C 
ATOM      2  C3  MOL d          23.497  17.780  63.471  0.00  0.00     0.051 C 
ATOM      3  C4  MOL d          24.187  16.694  62.639  0.00  0.00     0.234 C 
ATOM      4  C5  MOL d          25.700  16.750  62.831  0.00  0.00     0.150 C 
ATOM      5  C6  MOL d          26.149  18.214  62.817  0.00  0.00     0.185 C 
ATOM      6  O6  MOL d          25.578  18.842  63.941  0.00  0.00    -0.335 OA
ENDROOT
BRANCH   5   7
ATOM      7  C7  MOL d          27.669  18.356  62.904  0.00  0.00     0.180 C 
BRANCH   7   8
ATOM      8  C8  MOL d          28.052  19.827  62.904  0.00  0.00     0.173 C 
BRANCH   8   9
ATOM      9  C9  MOL d          29.523  20.106  63.100  0.00  0.00     0.198 C 
BRANCH   9  10
ATOM     10  O9  MOL d          30.294  19.368  62.230  0.00  0.00    -0.398 OA
ATOM     11  H18 MOL d          30.061  19.590  61.336  0.00  0.00     0.209 HD
ENDBRANCH   9  10
ENDBRANCH   8   9
BRANCH   8  12
ATOM     12  O8  MOL d          27.735  20.200  61.632  0.00  0.00    -0.391 OA
ATOM     13  H15 MOL d          28.255  19.697  61.017  0.00  0.00     0.210 HD
ENDBRANCH   8  12
ENDBRANCH   7   8
BRANCH   7  14
ATOM     14  O7  MOL d          28.141  17.731  64.078  0.00  0.00    -0.390 OA
ATOM     15  H13 MOL d          27.756  18.154  64.837  0.00  0.00     0.210 HD
ENDBRANCH   7  14
ENDBRANCH   5   7
BRANCH   4  16
ATOM     16  N5  MOL d          26.327  16.038  61.693  0.00  0.00    -0.352 N 
ATOM     17  C10 MOL d          26.921  14.861  61.882  0.00  0.00     0.214 C 
ATOM     18  C11 MOL d          27.530  14.163  60.659  0.00  0.00     0.117 C 
ATOM     19  O10 MOL d          27.019  14.329  62.995  0.00  0.00    -0.274 OA
ATOM     20  H7  MOL d          26.304  16.443  60.779  0.00  0.00     0.163 HD
ENDBRANCH   4  16
BRANCH   3  21
ATOM     21  N4  MOL d          23.637  15.422  63.082  0.00  0.00    -0.070 N 
ATOM     22  H3  MOL d          22.639  15.420  62.941  0.00  0.00     0.275 HD
ATOM     23  H4  MOL d          23.838  15.292  64.061  0.00  0.00     0.275 HD
ATOM     24  H5  MOL d          24.053  14.673  62.551  0.00  0.00     0.275 HD
ENDBRANCH   3  21
BRANCH   1  25
ATOM     25  C1  MOL d          23.547  19.823  64.794  0.00  0.00     0.233 C 
ATOM     26  O1B MOL d          22.320  19.788  65.025  0.00  0.00    -0.642 OA
ATOM     27  O1A MOL d          24.239  20.800  65.125  0.00  0.00    -0.642 OA
ENDBRANCH   1  25
TORSDOF 9
