REMARK  14 active torsions:
REMARK  status: ('A' for Active; 'I' for Inactive)
REMARK    1  A    between atoms: N_1  and  CA_2 
REMARK    2  A    between atoms: CA_2  and  C_3 
REMARK    3  A    between atoms: CA_2  and  CB_5 
REMARK       I    between atoms: C_3  and  N_10 
REMARK    4  A    between atoms: CB_5  and  CG_6 
REMARK    5  A    between atoms: CG_6  and  CD_7 
REMARK    6  A    between atoms: CD_7  and  CE_8 
REMARK    7  A    between atoms: CE_8  and  NZ_9 
REMARK    8  A    between atoms: N_10  and  CA_11 
REMARK    9  A    between atoms: CA_11  and  C_12 
REMARK       I    between atoms: C_12  and  N_14 
REMARK   10  A    between atoms: N_14  and  CA_15 
REMARK   11  A    between atoms: CA_15  and  C_16 
REMARK   12  A    between atoms: CA_15  and  CB_18 
REMARK   13  A    between atoms: CB_18  and  CG_19 
REMARK   14  A    between atoms: CG_19  and  CD_20 
ROOT
ATOM      1  C   LYS d          13.921 -24.019  11.540  0.00  0.00     0.248 C 
ATOM      2  O   LYS d          14.721 -23.756  12.412  0.00  0.00    -0.271 OA
ATOM      3  N   LYS d          14.186 -24.827  10.514  0.00  0.00    -0.351 N 
ATOM      4  H16 LYS d          13.473 -24.982   9.831  0.00  0.00     0.163 HD
ENDROOT
BRANCH   3   5
ATOM      5  CA  LYS d          15.479 -25.500  10.343  0.00  0.00     0.225 C 
BRANCH   5   6
ATOM      6  C   LYS d          16.528 -24.601   9.728  0.00  0.00     0.236 C 
ATOM      7  O   LYS d          16.249 -23.852   8.796  0.00  0.00    -0.272 OA
ATOM      8  N   LYS d          17.751 -24.687  10.241  0.00  0.00    -0.345 N 
ATOM      9  H19 LYS d          17.947 -25.404  10.911  0.00  0.00     0.163 HD
BRANCH   8  10
ATOM     10  CA  LYS d          18.818 -23.767   9.857  0.00  0.00     0.186 C 
BRANCH  10  11
ATOM     11  C   LYS d          20.097 -24.532   9.541  0.00  0.00     0.196 C 
ATOM     12  O   LYS d          20.834 -24.131   8.643  0.00  0.00    -0.646 OA
ATOM     13  O1  LYS d          20.397 -25.567  10.195  0.00  0.00    -0.646 OA
ENDBRANCH  10  11
BRANCH  10  14
ATOM     14  CB  LYS d          19.017 -22.753  10.982  0.00  0.00     0.046 C 
BRANCH  14  15
ATOM     15  CG  LYS d          20.400 -22.118  11.159  0.00  0.00     0.116 C 
BRANCH  15  16
ATOM     16  CD  LYS d          20.848 -21.223  10.019  0.00  0.00     0.172 C 
ATOM     17  OE1 LYS d          20.228 -20.158   9.793  0.00  0.00    -0.648 OA
ATOM     18  OE2 LYS d          21.867 -21.569   9.378  0.00  0.00    -0.648 OA
ENDBRANCH  15  16
ENDBRANCH  14  15
ENDBRANCH  10  14
ENDBRANCH   8  10
ENDBRANCH   5   6
ENDBRANCH   3   5
BRANCH   1  19
ATOM     19  CA  LYS d          12.527 -23.413  11.583  0.00  0.00     0.274 C 
BRANCH  19  20
ATOM     20  N   LYS d          12.070 -23.227  12.995  0.00  0.00    -0.067 N 
ATOM     21  H1  LYS d          11.146 -22.825  12.999  0.00  0.00     0.275 HD
ATOM     22  H2  LYS d          12.706 -22.611  13.476  0.00  0.00     0.275 HD
ATOM     23  H3  LYS d          12.050 -24.120  13.462  0.00  0.00     0.275 HD
ENDBRANCH  19  20
BRANCH  19  24
ATOM     24  CB  LYS d          12.512 -22.079  10.814  0.00  0.00     0.042 C 
BRANCH  24  25
ATOM     25  CG  LYS d          13.216 -20.912  11.474  0.00  0.00     0.004 C 
BRANCH  25  26
ATOM     26  CD  LYS d          13.233 -19.732  10.501  0.00  0.00     0.027 C 
BRANCH  26  27
ATOM     27  CE  LYS d          13.657 -18.406  11.086  0.00  0.00     0.229 C 
BRANCH  27  28
ATOM     28  NZ  LYS d          14.240 -18.461  12.458  0.00  0.00    -0.079 N 
ATOM     29  H13 LYS d          14.489 -17.530  12.755  0.00  0.00     0.274 HD
ATOM     30  H14 LYS d          15.063 -19.042  12.450  0.00  0.00     0.274 HD
ATOM     31  H15 LYS d          13.562 -18.847  13.096  0.00  0.00     0.274 HD
ENDBRANCH  27  28
ENDBRANCH  26  27
ENDBRANCH  25  26
ENDBRANCH  24  25
ENDBRANCH  19  24
ENDBRANCH   1  19
TORSDOF 14
