REMARK  3 active torsions:
REMARK  status: ('A' for Active; 'I' for Inactive)
REMARK    1  A    between atoms: C51_2  and  C11_4 
REMARK    2  A    between atoms: C14_8  and  C47_10 
REMARK    3  A    between atoms: C47_10  and  C4_12 
ROOT
ATOM      1  C4  9RA d          -2.245  18.867  -2.779  0.00  0.00    -0.019 A 
ATOM      2  C3  9RA d          -1.501  19.984  -2.423  0.00  0.00    -0.050 A 
ATOM      3  C43 9RA d          -1.845  20.786  -1.165  0.00  0.00     0.049 C 
ATOM      4  C2  9RA d          -0.463  20.402  -3.246  0.00  0.00     0.016 A 
ATOM      5  C5  9RA d          -1.932  18.189  -3.951  0.00  0.00     0.021 A 
ATOM      6  C6  9RA d          -0.890  18.605  -4.776  0.00  0.00    -0.042 A 
ATOM      7  C19 9RA d          -0.601  17.805  -6.050  0.00  0.00    -0.020 C 
ATOM      8  C27 9RA d          -0.548  16.317  -5.698  0.00  0.00     0.020 C 
ATOM      9  C31 9RA d          -1.730  18.057  -7.049  0.00  0.00     0.020 C 
ATOM     10  C20 9RA d           0.728  18.218  -6.693  0.00  0.00     0.015 C 
ATOM     11  C21 9RA d           0.852  19.737  -6.716  0.00  0.00     0.015 C 
ATOM     12  C22 9RA d           1.008  20.242  -5.281  0.00  0.00    -0.020 C 
ATOM     13  C1  9RA d          -0.150  19.730  -4.418  0.00  0.00    -0.043 A 
ATOM     14  C39 9RA d           1.031  21.768  -5.287  0.00  0.00     0.020 C 
ATOM     15  C35 9RA d           2.321  19.733  -4.692  0.00  0.00     0.020 C 
ENDROOT
BRANCH   1  16
ATOM     16  C47 9RA d          -3.274  18.437  -1.939  0.00  0.00    -0.025 C 
ATOM     17  C48 9RA d          -2.962  17.609  -0.869  0.00  0.00     0.025 C 
BRANCH  16  18
ATOM     18  C14 9RA d          -4.595  18.809  -2.165  0.00  0.00    -0.026 A 
ATOM     19  C13 9RA d          -5.579  18.538  -1.215  0.00  0.00     0.013 A 
ATOM     20  C12 9RA d          -6.911  18.843  -1.465  0.00  0.00     0.019 A 
ATOM     21  C11 9RA d          -7.281  19.426  -2.673  0.00  0.00     0.040 A 
ATOM     22  C10 9RA d          -6.302  19.711  -3.619  0.00  0.00     0.019 A 
ATOM     23  C9  9RA d          -4.969  19.403  -3.366  0.00  0.00     0.013 A 
BRANCH  21  24
ATOM     24  C51 9RA d          -8.757  19.673  -3.005  0.00  0.00     0.209 C 
ATOM     25  O53 9RA d          -9.620  18.969  -2.436  0.00  0.00    -0.644 OA
ATOM     26  O52 9RA d          -9.020  20.553  -3.851  0.00  0.00    -0.644 OA
ENDBRANCH  21  24
ENDBRANCH  16  18
ENDBRANCH   1  16
TORSDOF 3
