REMARK  12 active torsions:
REMARK  status: ('A' for Active; 'I' for Inactive)
REMARK    1  A    between atoms: S_1  and  N5'_27 
REMARK    2  A    between atoms: NBB_35  and  S_1 
REMARK    3  A    between atoms: C1'_12  and  N9_11 
REMARK    4  A    between atoms: C2'_15  and  O2'_16 
REMARK    5  A    between atoms: C7B_30  and  C2B_17 
REMARK    6  A    between atoms: C3'_19  and  O3'_20 
REMARK    7  A    between atoms: C5'_26  and  C4'_23 
REMARK    8  A    between atoms: N5'_27  and  C5'_26 
REMARK    9  A    between atoms: C8B_31  and  C7B_30 
REMARK   10  A    between atoms: C9B_32  and  C8B_31 
REMARK   11  A    between atoms: CAB_33  and  C9B_32 
REMARK   12  A    between atoms: CBB_34  and  CAB_33 
REMARK       I    between atoms: CBB_34  and  NBB_35 
ROOT
ATOM      1  N5' BS5 d          -4.358  -3.561   7.005  0.00  0.00    -0.300 N 
ATOM      2  H17 BS5 d          -5.261  -3.139   6.929  0.00  0.00     0.173 HD
ENDROOT
BRANCH   1   3
ATOM      3  S   BS5 d          -4.092  -4.983   6.330  0.00  0.00     0.321 S 
ATOM      4  OP1 BS5 d          -5.291  -5.369   5.645  0.00  0.00    -0.182 OA
ATOM      5  OP2 BS5 d          -3.004  -4.865   5.401  0.00  0.00    -0.182 OA
BRANCH   3   6
ATOM      6  NBB BS5 d          -3.718  -6.027   7.393  0.00  0.00    -0.237 N 
ATOM      7  CBB BS5 d          -4.557  -6.413   8.363  0.00  0.00     0.232 C 
ATOM      8  OCB BS5 d          -5.637  -5.891   8.564  0.00  0.00    -0.273 OA
ATOM      9  H29 BS5 d          -2.807  -6.437   7.359  0.00  0.00     0.183 HD
BRANCH   7  10
ATOM     10  CAB BS5 d          -4.118  -7.573   9.230  0.00  0.00     0.104 C 
BRANCH  10  11
ATOM     11  C9B BS5 d          -4.137  -7.177  10.711  0.00  0.00     0.009 C 
BRANCH  11  12
ATOM     12  C8B BS5 d          -3.707  -8.336  11.610  0.00  0.00     0.002 C 
BRANCH  12  13
ATOM     13  C7B BS5 d          -3.480  -7.875  13.045  0.00  0.00     0.017 C 
BRANCH  13  14
ATOM     14  C2B BS5 d          -3.478  -9.063  14.002  0.00  0.00     0.072 C 
ATOM     15  S1B BS5 d          -3.396  -8.601  15.704  0.00  0.00    -0.160 SA
ATOM     16  C6B BS5 d          -2.815 -10.159  16.293  0.00  0.00     0.101 C 
ATOM     17  C5B BS5 d          -1.949 -10.690  15.151  0.00  0.00     0.119 A 
ATOM     18  N1B BS5 d          -0.563 -10.349  15.378  0.00  0.00    -0.336 N 
ATOM     19  C4B BS5 d          -2.271  -9.981  13.834  0.00  0.00     0.123 A 
ATOM     20  C3B BS5 d          -0.130  -9.456  14.495  0.00  0.00     0.316 A 
ATOM     21  H6  BS5 d          -0.001 -10.737  16.108  0.00  0.00     0.164 HD
ATOM     22  N2B BS5 d          -1.055  -9.243  13.561  0.00  0.00    -0.335 N 
ATOM     23  O3B BS5 d           0.963  -8.902  14.550  0.00  0.00    -0.247 OA
ATOM     24  H10 BS5 d          -0.926  -8.647  12.769  0.00  0.00     0.164 HD
ENDBRANCH  13  14
ENDBRANCH  12  13
ENDBRANCH  11  12
ENDBRANCH  10  11
ENDBRANCH   7  10
ENDBRANCH   3   6
ENDBRANCH   1   3
BRANCH   1  25
ATOM     25  C5' BS5 d          -3.305  -2.876   7.727  0.00  0.00     0.168 C 
BRANCH  25  26
ATOM     26  C4' BS5 d          -3.704  -1.412   7.837  0.00  0.00     0.174 C 
ATOM     27  C3' BS5 d          -2.611  -0.518   8.384  0.00  0.00     0.181 C 
ATOM     28  C2' BS5 d          -3.393   0.615   9.013  0.00  0.00     0.198 C 
ATOM     29  C1' BS5 d          -4.728   0.007   9.388  0.00  0.00     0.262 C 
ATOM     30  O4' BS5 d          -4.803  -1.265   8.739  0.00  0.00    -0.354 OA
BRANCH  27  31
ATOM     31  O3' BS5 d          -1.775  -0.031   7.332  0.00  0.00    -0.390 OA
ATOM     32  H12 BS5 d          -2.313   0.379   6.665  0.00  0.00     0.210 HD
ENDBRANCH  27  31
BRANCH  28  33
ATOM     33  O2' BS5 d          -3.652   1.598   8.005  0.00  0.00    -0.388 OA
ATOM     34  H8  BS5 d          -2.834   2.004   7.742  0.00  0.00     0.210 HD
ENDBRANCH  28  33
BRANCH  29  35
ATOM     35  N9  BS5 d          -4.786  -0.260  10.841  0.00  0.00    -0.294 N 
ATOM     36  C4  BS5 d          -5.900  -0.497  11.529  0.00  0.00     0.167 A 
ATOM     37  N3  BS5 d          -7.213  -0.557  11.214  0.00  0.00    -0.222 NA
ATOM     38  C5  BS5 d          -5.487  -0.714  12.921  0.00  0.00     0.149 A 
ATOM     39  C2  BS5 d          -8.134  -0.827  12.159  0.00  0.00     0.237 A 
ATOM     40  N1  BS5 d          -7.830  -1.037  13.453  0.00  0.00    -0.222 NA
ATOM     41  C6  BS5 d          -6.557  -0.999  13.903  0.00  0.00     0.155 A 
ATOM     42  N6  BS5 d          -6.268  -1.218  15.209  0.00  0.00    -0.382 N 
ATOM     43  H2  BS5 d          -5.291  -1.185  15.533  0.00  0.00     0.157 HD
ATOM     44  H3  BS5 d          -7.026  -1.418  15.878  0.00  0.00     0.157 HD
ATOM     45  N7  BS5 d          -4.144  -0.592  12.952  0.00  0.00    -0.236 NA
ATOM     46  C8  BS5 d          -3.737  -0.314  11.685  0.00  0.00     0.214 A 
ENDBRANCH  29  35
ENDBRANCH  25  26
ENDBRANCH   1  25
TORSDOF 12
