REMARK  6 active torsions:
REMARK  status: ('A' for Active; 'I' for Inactive)
REMARK    1  A    between atoms: C6_4  and  N6_15 
REMARK    2  A    between atoms: C5'_7  and  S_6 
REMARK    3  A    between atoms: C4'_8  and  C5'_7 
REMARK    4  A    between atoms: C10_11  and  N1'_10 
REMARK    5  A    between atoms: C10_11  and  C9_12 
REMARK    6  A    between atoms: C3'_19  and  O3'_20 
ROOT
ATOM      1  C2  TDI d           3.000 -21.994 -10.867  0.00  0.00     0.236 A 
ATOM      2  C4  TDI d           3.790 -20.598 -12.601  0.00  0.00     0.098 A 
ATOM      3  C5  TDI d           4.086 -21.708 -13.313  0.00  0.00     0.107 A 
ATOM      4  C6  TDI d           3.882 -22.955 -12.806  0.00  0.00     0.151 A 
ATOM      5  C9  TDI d           4.152 -19.521 -13.310  0.00  0.00     0.014 A 
ATOM      6  C8  TDI d           4.635 -19.942 -14.459  0.00  0.00     0.099 A 
ATOM      7  N7  TDI d           4.602 -21.276 -14.444  0.00  0.00    -0.360 N 
ATOM      8  N1  TDI d           3.353 -23.131 -11.590  0.00  0.00    -0.223 NA
ATOM      9  N3  TDI d           3.218 -20.741 -11.397  0.00  0.00    -0.239 NA
ATOM     10  H14 TDI d           4.933 -21.881 -15.209  0.00  0.00     0.165 HD
ENDROOT
BRANCH   5  11
ATOM     11  C10 TDI d           3.962 -18.031 -12.969  0.00  0.00     0.277 C 
BRANCH  11  12
ATOM     12  N1' TDI d           4.875 -17.379 -11.988  0.00  0.00    -0.064 N 
ATOM     13  C1' TDI d           6.345 -17.377 -12.217  0.00  0.00     0.243 C 
ATOM     14  C4' TDI d           6.968 -17.591 -10.869  0.00  0.00     0.051 C 
ATOM     15  C3' TDI d           5.865 -17.140  -9.926  0.00  0.00     0.150 C 
ATOM     16  C2' TDI d           4.594 -17.712 -10.584  0.00  0.00     0.267 C 
ATOM     17  H10 TDI d           4.625 -16.406 -12.072  0.00  0.00     0.280 HD
BRANCH  14  18
ATOM     18  C5' TDI d           7.408 -19.075 -10.694  0.00  0.00     0.082 C 
BRANCH  18  19
ATOM     19  S   TDI d           8.335 -19.325  -9.148  0.00  0.00    -0.173 SA
ATOM     20  CS5 TDI d           9.971 -18.930  -9.687  0.00  0.00     0.089 C 
ENDBRANCH  18  19
ENDBRANCH  14  18
BRANCH  15  21
ATOM     21  O3' TDI d           5.847 -15.699  -9.768  0.00  0.00    -0.393 OA
ATOM     22  H20 TDI d           6.656 -15.416  -9.358  0.00  0.00     0.210 HD
ENDBRANCH  15  21
ENDBRANCH  11  12
ENDBRANCH   5  11
BRANCH   4  23
ATOM     23  N6  TDI d           4.199 -24.053 -13.533  0.00  0.00    -0.382 N 
ATOM     24  H15 TDI d           4.041 -24.993 -13.142  0.00  0.00     0.157 HD
ATOM     25  H16 TDI d           4.598 -23.948 -14.477  0.00  0.00     0.157 HD
ENDBRANCH   4  23
TORSDOF 6
