REMARK  10 active torsions:
REMARK  status: ('A' for Active; 'I' for Inactive)
REMARK    1  A    between atoms: C8_8  and  C29_29 
REMARK    2  A    between atoms: N10_10  and  C12_12 
REMARK    3  A    between atoms: C12_12  and  C13_13 
REMARK    4  A    between atoms: C13_13  and  C14_14 
REMARK    5  A    between atoms: C13_13  and  O15_15 
REMARK    6  A    between atoms: C14_14  and  C16_16 
REMARK    7  A    between atoms: C14_14  and  N17_17 
REMARK    8  A    between atoms: C16_16  and  C21_21 
REMARK       I    between atoms: N17_17  and  C18_18 
REMARK    9  A    between atoms: C18_18  and  O19_19 
REMARK   10  A    between atoms: O19_19  and  C34_34 
ROOT
ATOM      1  C13 MOL d          13.975  23.917   5.138  0.00  0.00     0.160 C 
ENDROOT
BRANCH   1   2
ATOM      2  C12 MOL d          12.861  24.831   5.604  0.00  0.00     0.169 C 
BRANCH   2   3
ATOM      3  N10 MOL d          11.606  24.095   5.795  0.00  0.00    -0.304 N 
ATOM      4  C9  MOL d          10.806  23.697   4.620  0.00  0.00     0.141 C 
ATOM      5  C8  MOL d           9.787  24.758   4.208  0.00  0.00     0.016 C 
ATOM      6  C7  MOL d           8.702  24.925   5.269  0.00  0.00     0.047 C 
ATOM      7  C4  MOL d           9.037  25.841   6.412  0.00  0.00    -0.032 A 
ATOM      8  C3  MOL d           8.316  27.018   6.529  0.00  0.00     0.051 A 
ATOM      9  C5  MOL d           9.980  25.550   7.392  0.00  0.00     0.086 A 
ATOM     10  C2  MOL d           8.560  27.884   7.576  0.00  0.00     0.117 A 
ATOM     11  C1  MOL d           9.507  27.587   8.536  0.00  0.00     0.044 A 
ATOM     12  F33 MOL d           7.881  29.041   7.675  0.00  0.00    -0.206 F 
ATOM     13  C6  MOL d          10.218  26.407   8.447  0.00  0.00     0.029 A 
ATOM     14  S11 MOL d          10.925  24.039   7.345  0.00  0.00     0.261 S 
ATOM     15  O27 MOL d          11.958  24.067   8.353  0.00  0.00    -0.200 OA
ATOM     16  O28 MOL d           9.928  22.984   7.341  0.00  0.00    -0.200 OA
BRANCH   5  17
ATOM     17  C29 MOL d           9.233  24.449   2.811  0.00  0.00    -0.046 C 
ATOM     18  C30 MOL d           8.463  25.610   2.229  0.00  0.00     0.015 C 
ATOM     19  C31 MOL d           8.305  23.245   2.800  0.00  0.00     0.015 C 
ATOM     20  C32 MOL d          10.375  24.195   1.850  0.00  0.00     0.015 C 
ENDBRANCH   5  17
ENDBRANCH   2   3
ENDBRANCH   1   2
BRANCH   1  21
ATOM     21  C14 MOL d          14.429  22.841   6.114  0.00  0.00     0.121 C 
BRANCH  21  22
ATOM     22  C16 MOL d          15.106  23.354   7.381  0.00  0.00     0.066 C 
BRANCH  22  23
ATOM     23  C21 MOL d          15.446  22.229   8.301  0.00  0.00    -0.056 A 
ATOM     24  C22 MOL d          16.736  21.733   8.329  0.00  0.00     0.007 A 
ATOM     25  C23 MOL d          17.056  20.679   9.164  0.00  0.00     0.001 A 
ATOM     26  C24 MOL d          16.083  20.113   9.963  0.00  0.00     0.000 A 
ATOM     27  C25 MOL d          14.795  20.610   9.940  0.00  0.00     0.001 A 
ATOM     28  C26 MOL d          14.475  21.671   9.114  0.00  0.00     0.007 A 
ENDBRANCH  22  23
ENDBRANCH  21  22
BRANCH  21  29
ATOM     29  N17 MOL d          15.298  21.941   5.394  0.00  0.00    -0.329 N 
ATOM     30  C18 MOL d          14.886  20.687   5.005  0.00  0.00     0.361 C 
ATOM     31  O20 MOL d          13.763  20.224   5.185  0.00  0.00    -0.238 OA
ATOM     32  H   MOL d          16.227  22.238   5.171  0.00  0.00     0.165 HD
BRANCH  30  33
ATOM     33  O19 MOL d          15.954  20.043   4.426  0.00  0.00    -0.296 OA
BRANCH  33  34
ATOM     34  C34 MOL d          15.685  18.783   3.816  0.00  0.00     0.159 C 
ATOM     35  C35 MOL d          17.047  18.192   3.521  0.00  0.00     0.200 C 
ATOM     36  O37 MOL d          17.379  18.652   2.216  0.00  0.00    -0.389 OA
ATOM     37  C38 MOL d          16.160  18.653   1.490  0.00  0.00     0.170 C 
ATOM     38  C36 MOL d          15.074  19.036   2.459  0.00  0.00     0.061 C 
ENDBRANCH  33  34
ENDBRANCH  30  33
ENDBRANCH  21  29
ENDBRANCH   1  21
BRANCH   1  39
ATOM     39  O15 MOL d          15.069  24.723   4.762  0.00  0.00    -0.392 OA
ATOM     40  H   MOL d          15.436  25.137   5.534  0.00  0.00     0.210 HD
ENDBRANCH   1  39
TORSDOF 10
