REMARK  9 active torsions:
REMARK  status: ('A' for Active; 'I' for Inactive)
REMARK    1  A    between atoms: C5_5  and  N8_8 
REMARK    2  A    between atoms: C6_6  and  O7_7 
REMARK    3  A    between atoms: N8_8  and  C9_9 
REMARK    4  A    between atoms: C9_9  and  C10_10 
REMARK    5  A    between atoms: C9_9  and  O17_17 
REMARK    6  A    between atoms: C10_10  and  C11_11 
REMARK    7  A    between atoms: C10_10  and  O18_18 
REMARK    8  A    between atoms: C11_11  and  O12_12 
REMARK    9  A    between atoms: O12_12  and  P13_13 
ROOT
ATOM      1  C9  HPF d          48.196  28.058  14.647  0.00  0.00     0.249 C 
ENDROOT
BRANCH   1   2
ATOM      2  N8  HPF d          49.305  27.745  15.581  0.00  0.00    -0.359 N 
ATOM      3  H6  HPF d          49.522  28.357  16.381  0.00  0.00     0.162 HD
BRANCH   2   4
ATOM      4  C5  HPF d          50.082  26.524  15.317  0.00  0.00     0.063 A 
ATOM      5  C4  HPF d          49.430  25.279  15.340  0.00  0.00     0.032 A 
ATOM      6  C3  HPF d          50.220  24.130  15.082  0.00  0.00     0.002 A 
ATOM      7  C2  HPF d          51.632  24.149  14.788  0.00  0.00     0.003 A 
ATOM      8  C1  HPF d          52.225  25.477  14.792  0.00  0.00     0.039 A 
ATOM      9  C6  HPF d          51.438  26.630  15.060  0.00  0.00     0.092 A 
BRANCH   9  10
ATOM     10  O7  HPF d          52.034  27.857  15.060  0.00  0.00    -0.358 OA
ATOM     11  H5  HPF d          51.629  28.405  14.398  0.00  0.00     0.217 HD
ENDBRANCH   9  10
ENDBRANCH   2   4
ENDBRANCH   1   2
BRANCH   1  12
ATOM     12  C10 HPF d          48.599  28.051  13.164  0.00  0.00     0.191 C 
BRANCH  12  13
ATOM     13  C11 HPF d          47.448  28.347  12.237  0.00  0.00     0.218 C 
BRANCH  13  14
ATOM     14  O12 HPF d          47.916  28.060  10.877  0.00  0.00    -0.280 OA
BRANCH  14  15
ATOM     15  P13 HPF d          48.244  29.342   9.952  0.00  0.00     0.422 P 
ATOM     16  O14 HPF d          46.886  30.214   9.877  0.00  0.00    -0.617 OA
ATOM     17  O15 HPF d          49.472  30.197  10.613  0.00  0.00    -0.617 OA
ATOM     18  O16 HPF d          48.594  28.701   8.656  0.00  0.00    -0.617 OA
ENDBRANCH  14  15
ENDBRANCH  13  14
ENDBRANCH  12  13
BRANCH  12  19
ATOM     19  O18 HPF d          49.538  29.163  13.086  0.00  0.00    -0.389 OA
ATOM     20  H12 HPF d          49.850  29.251  12.193  0.00  0.00     0.210 HD
ENDBRANCH  12  19
ENDBRANCH   1  12
BRANCH   1  21
ATOM     21  O17 HPF d          47.110  27.164  14.871  0.00  0.00    -0.374 OA
ATOM     22  H11 HPF d          46.403  27.369  14.270  0.00  0.00     0.212 HD
ENDBRANCH   1  21
TORSDOF 9
