4yhq_ligand

Created by X-TOOL on Sun Nov 13 14:29:03 2016
 75 78  0  0  0  0  0  0  0  0999 V2000
  -18.0230    0.0850   -6.4920  N 0  0  0  3  0  3
  -17.6380    0.0220   -5.1850  C 0  0  0  1  0  3
  -18.0380   -1.0480   -4.3970  C 0  0  0  2  0  3
  -17.6860   -1.1330   -3.0480  C 0  0  0  2  0  3
  -16.8660   -0.1740   -2.4350  C 0  0  0  1  0  3
  -16.4890    0.9100   -3.2500  C 0  0  0  2  0  3
  -16.8570    1.0240   -4.6280  C 0  0  0  2  0  3
  -16.4840   -0.2170   -0.8150  S 0  0  0  1  0  4
  -16.5810   -1.5760   -0.3580  O 0  0  0  1  0  1
  -15.2290    0.4640   -0.6020  O 0  0  0  1  0  1
  -17.5610    0.5810   -0.0080  N 0  0  0  1  0  3
  -17.5500    2.0700   -0.1410  C 0  0  0  3  0  4
  -18.0150    2.8660    1.0590  C 0  0  0  2  0  4
  -16.9780    2.7290    2.1810  C 0  0  0  4  0  4
  -18.1730    4.3620    0.8040  C 0  0  0  4  0  4
  -18.8380   -0.1160    0.2960  C 0  0  0  3  0  4
  -19.0980   -0.4140    1.7600  C 0  0  0  2  0  4
  -20.4920   -0.7600    1.8940  O 0  0  0  2  0  2
  -18.2270   -1.5680    2.2440  C 0  0  0  2  0  4
  -18.3230   -1.6660    3.7230  N 0  0  0  2  0  3
  -17.3730   -1.1410    4.5410  C 0  0  0  1  0  3
  -16.3310   -0.6330    4.2700  O 0  0  0  1  0  1
  -17.7110   -1.3240    5.8890  O 0  0  0  1  0  2
  -16.7470   -1.1070    6.9280  C 0  0  0  2  0  4
  -17.4530   -0.2560    7.9730  C 0  0  0  3  0  4
  -18.2420   -1.2170    8.6900  O 0  0  0  1  0  2
  -17.5870   -2.4880    8.6830  C 0  0  0  2  0  4
  -18.4870   -3.4230    8.0230  O 0  0  0  1  0  2
  -17.9900   -3.9800    6.8110  C 0  0  0  3  0  4
  -16.5090   -3.6740    6.8410  C 0  0  0  1  0  4
  -16.4260   -2.4020    7.7140  C 0  0  0  2  0  4
  -18.6050   -2.9680    1.7000  C 0  0  0  3  0  4
  -18.1170   -4.9340    3.2090  C 0  0  0  2  0  3
  -17.3130   -5.9150    3.7790  C 0  0  0  2  0  3
  -15.9570   -5.8930    3.4610  C 0  0  0  2  0  3
  -15.4300   -4.9450    2.5730  C 0  0  0  2  0  3
  -16.2790   -3.9690    1.9980  C 0  0  0  2  0  3
  -17.6290   -3.9930    2.2760  C 0  0  0  1  0  3
  -15.9970   -3.4950    5.6030  F 0  0  0  1  0  1
  -15.7040   -4.5000    7.4530  F 0  0  0  1  0  1
  -18.6029   -0.6649   -6.8948  H 0  0  0  1  0  1
  -17.7338    0.8825   -7.0762  H 0  0  0  1  0  1
  -18.6374   -1.8359   -4.8386  H 0  0  0  1  0  1
  -18.0569   -1.9634   -2.4581  H 0  0  0  1  0  1
  -15.8890    1.6990   -2.8111  H 0  0  0  1  0  1
  -16.5338    1.8716   -5.2214  H 0  0  0  1  0  1
  -18.2013    2.3333   -0.9875  H 0  0  0  1  0  1
  -16.5173    2.3765   -0.3637  H 0  0  0  1  0  1
  -18.9817    2.4586    1.3898  H 0  0  0  1  0  1
  -17.3084    3.3051    3.0579  H 0  0  0  1  0  1
  -16.0083    3.1146    1.8332  H 0  0  0  1  0  1
  -16.8737    1.6692    2.4566  H 0  0  0  1  0  1
  -18.9099    4.5216    0.0031  H 0  0  0  1  0  1
  -17.2046    4.7866    0.5010  H 0  0  0  1  0  1
  -18.5185    4.8563    1.7239  H 0  0  0  1  0  1
  -18.8377   -1.0723   -0.2476  H 0  0  0  1  0  1
  -19.6615    0.5142   -0.0710  H 0  0  0  1  0  1
  -18.8776    0.4798    2.3621  H 0  0  0  1  0  1
  -20.6801   -1.5240    1.3616  H 0  0  0  1  0  1
  -17.1888   -1.3507    1.9526  H 0  0  0  1  0  1
  -19.1094   -2.1318    4.1287  H 0  0  0  1  0  1
  -15.8360   -0.6358    6.5305  H 0  0  0  1  0  1
  -18.0906    0.5046    7.4989  H 0  0  0  1  0  1
  -16.7281    0.2360    8.6382  H 0  0  0  1  0  1
  -17.2867   -2.8094    9.6912  H 0  0  0  1  0  1
  -18.4681   -3.5081    5.9400  H 0  0  0  1  0  1
  -18.1633   -5.0658    6.7809  H 0  0  0  1  0  1
  -15.4501   -2.3366    8.2172  H 0  0  0  1  0  1
  -18.5390   -2.9694    0.6020  H 0  0  0  1  0  1
  -19.6310   -3.2202    2.0061  H 0  0  0  1  0  1
  -19.1623   -4.8898    3.4928  H 0  0  0  1  0  1
  -17.7246   -6.6660    4.4435  H 0  0  0  1  0  1
  -15.2951   -6.6247    3.9099  H 0  0  0  1  0  1
  -14.3744   -4.9592    2.3271  H 0  0  0  1  0  1
  -15.8702   -3.2078    1.3434  H 0  0  0  1  0  1
  2  1  1  0  0  2
  3  2  4  0  0  1
  7  2  4  0  0  1
  4  3  4  0  0  1
  5  4  4  0  0  1
  5  6  4  0  0  1
  8  5  1  0  0  2
  6  7  4  0  0  1
  8  9  2  0  0  2
  8 10  2  0  0  2
 11  8  1  0  0  2
 11 12  1  0  0  2
 16 11  1  0  0  2
 12 13  1  0  0  2
 13 14  1  0  0  2
 13 15  1  0  0  2
 17 16  1  0  0  2
 17 18  1  0  0  2
 19 17  1  0  0  2
 19 20  1  0  0  2
 32 19  1  0  0  2
 20 21  1  0  0  2
 21 22  2  0  0  2
 21 23  1  0  0  2
 23 24  1  0  0  2
 24 25  1  0  0  1
 24 31  1  0  0  1
 25 26  1  0  0  1
 27 26  1  0  0  1
 27 28  1  0  0  1
 31 27  1  0  0  1
 29 28  1  0  0  1
 30 29  1  0  0  1
 31 30  1  0  0  1
 30 39  1  0  0  2
 30 40  1  0  0  2
 38 32  1  0  0  2
 33 34  4  0  0  1
 33 38  4  0  0  1
 34 35  4  0  0  1
 35 36  4  0  0  1
 36 37  4  0  0  1
 37 38  4  0  0  1
  1 41  1  0  0  2
  1 42  1  0  0  2
  3 43  1  0  0  2
  4 44  1  0  0  2
  6 45  1  0  0  2
  7 46  1  0  0  2
 12 47  1  0  0  2
 12 48  1  0  0  2
 13 49  1  0  0  2
 14 50  1  0  0  2
 14 51  1  0  0  2
 14 52  1  0  0  2
 15 53  1  0  0  2
 15 54  1  0  0  2
 15 55  1  0  0  2
 16 56  1  0  0  2
 16 57  1  0  0  2
 17 58  1  0  0  2
 18 59  1  0  0  2
 19 60  1  0  0  2
 20 61  1  0  0  2
 24 62  1  0  0  2
 25 63  1  0  0  2
 25 64  1  0  0  2
 27 65  1  0  0  2
 29 66  1  0  0  2
 29 67  1  0  0  2
 31 68  1  0  0  2
 32 69  1  0  0  2
 32 70  1  0  0  2
 33 71  1  0  0  2
 34 72  1  0  0  2
 35 73  1  0  0  2
 36 74  1  0  0  2
 37 75  1  0  0  2
M  END
> <MOLECULAR_FORMULA>
C27H35N3O7SF2

> <MOLECULAR_WEIGHT>
583.4

> <NUM_HB_ATOMS>
9  

> <NUM_ROTOR>
11 

> <XLOGP2>
2.53 

$$$$
