REMARK  14 active torsions:
REMARK  status: ('A' for Active; 'I' for Inactive)
REMARK    1  A    between atoms: C2_2  and  N1_1 
REMARK    2  A    between atoms: S8_8  and  C5_5 
REMARK    3  A    between atoms: N11_11  and  S8_8 
REMARK    4  A    between atoms: N11_11  and  C12_12 
REMARK    5  A    between atoms: C16_16  and  N11_11 
REMARK    6  A    between atoms: C12_12  and  C13_13 
REMARK    7  A    between atoms: C17_17  and  C16_16 
REMARK    8  A    between atoms: C17_17  and  O18_18 
REMARK    9  A    between atoms: C19_19  and  C17_17 
REMARK   10  A    between atoms: C19_19  and  N20_20 
REMARK   11  A    between atoms: C32_32  and  C19_19 
REMARK       I    between atoms: N20_20  and  C21_21 
REMARK   12  A    between atoms: C21_21  and  O23_23 
REMARK   13  A    between atoms: O23_23  and  C24_24 
REMARK   14  A    between atoms: C38_38  and  C32_32 
ROOT
ATOM      1  C19 G10 d         -18.227  -1.568   2.244  0.00  0.00     0.121 C 
ENDROOT
BRANCH   1   2
ATOM      2  C17 G10 d         -19.098  -0.414   1.760  0.00  0.00     0.160 C 
BRANCH   2   3
ATOM      3  C16 G10 d         -18.838  -0.116   0.296  0.00  0.00     0.169 C 
BRANCH   3   4
ATOM      4  N11 G10 d         -17.561   0.581  -0.008  0.00  0.00    -0.304 N 
BRANCH   4   5
ATOM      5  S8  G10 d         -16.484  -0.217  -0.815  0.00  0.00     0.260 S 
ATOM      6  O9  G10 d         -16.581  -1.576  -0.358  0.00  0.00    -0.200 OA
ATOM      7  O10 G10 d         -15.229   0.464  -0.602  0.00  0.00    -0.200 OA
BRANCH   5   8
ATOM      8  C5  G10 d         -16.866  -0.174  -2.435  0.00  0.00     0.079 A 
ATOM      9  C4  G10 d         -17.686  -1.133  -3.048  0.00  0.00     0.027 A 
ATOM     10  C3  G10 d         -18.038  -1.048  -4.397  0.00  0.00     0.030 A 
ATOM     11  C2  G10 d         -17.638   0.022  -5.185  0.00  0.00     0.025 A 
ATOM     12  C7  G10 d         -16.857   1.024  -4.628  0.00  0.00     0.030 A 
ATOM     13  C6  G10 d         -16.489   0.910  -3.250  0.00  0.00     0.027 A 
BRANCH  11  14
ATOM     14  N1  G10 d         -18.023   0.085  -6.492  0.00  0.00    -0.399 N 
ATOM     15  H1  G10 d         -18.603  -0.665  -6.895  0.00  0.00     0.156 HD
ATOM     16  H2  G10 d         -17.734   0.882  -7.076  0.00  0.00     0.156 HD
ENDBRANCH  11  14
ENDBRANCH   5   8
ENDBRANCH   4   5
BRANCH   4  17
ATOM     17  C12 G10 d         -17.550   2.070  -0.141  0.00  0.00     0.139 C 
BRANCH  17  18
ATOM     18  C13 G10 d         -18.015   2.866   1.059  0.00  0.00    -0.004 C 
ATOM     19  C14 G10 d         -16.978   2.729   2.181  0.00  0.00     0.011 C 
ATOM     20  C15 G10 d         -18.173   4.362   0.804  0.00  0.00     0.011 C 
ENDBRANCH  17  18
ENDBRANCH   4  17
ENDBRANCH   3   4
ENDBRANCH   2   3
BRANCH   2  21
ATOM     21  O18 G10 d         -20.492  -0.760   1.894  0.00  0.00    -0.392 OA
ATOM     22  H19 G10 d         -20.680  -1.524   1.362  0.00  0.00     0.210 HD
ENDBRANCH   2  21
ENDBRANCH   1   2
BRANCH   1  23
ATOM     23  N20 G10 d         -18.323  -1.666   3.723  0.00  0.00    -0.329 N 
ATOM     24  C21 G10 d         -17.373  -1.141   4.541  0.00  0.00     0.361 C 
ATOM     25  O22 G10 d         -16.331  -0.633   4.270  0.00  0.00    -0.238 OA
ATOM     26  H21 G10 d         -19.109  -2.132   4.129  0.00  0.00     0.165 HD
BRANCH  24  27
ATOM     27  O23 G10 d         -17.711  -1.324   5.889  0.00  0.00    -0.296 OA
BRANCH  27  28
ATOM     28  C24 G10 d         -16.747  -1.107   6.928  0.00  0.00     0.172 C 
ATOM     29  C25 G10 d         -17.453  -0.256   7.973  0.00  0.00     0.204 C 
ATOM     30  O26 G10 d         -18.242  -1.217   8.690  0.00  0.00    -0.358 OA
ATOM     31  C27 G10 d         -17.587  -2.488   8.683  0.00  0.00     0.272 C 
ATOM     32  O28 G10 d         -18.487  -3.423   8.023  0.00  0.00    -0.355 OA
ATOM     33  C31 G10 d         -16.426  -2.402   7.714  0.00  0.00     0.147 C 
ATOM     34  C29 G10 d         -17.990  -3.980   6.811  0.00  0.00     0.250 C 
ATOM     35  C30 G10 d         -16.509  -3.674   6.841  0.00  0.00     0.275 C 
ATOM     36  F39 G10 d         -15.997  -3.495   5.603  0.00  0.00    -0.203 F 
ATOM     37  F40 G10 d         -15.704  -4.500   7.453  0.00  0.00    -0.203 F 
ENDBRANCH  27  28
ENDBRANCH  24  27
ENDBRANCH   1  23
BRANCH   1  38
ATOM     38  C32 G10 d         -18.605  -2.968   1.700  0.00  0.00     0.066 C 
BRANCH  38  39
ATOM     39  C38 G10 d         -17.629  -3.993   2.276  0.00  0.00    -0.056 A 
ATOM     40  C33 G10 d         -18.117  -4.934   3.209  0.00  0.00     0.007 A 
ATOM     41  C34 G10 d         -17.313  -5.915   3.779  0.00  0.00     0.001 A 
ATOM     42  C35 G10 d         -15.957  -5.893   3.461  0.00  0.00     0.000 A 
ATOM     43  C36 G10 d         -15.430  -4.945   2.573  0.00  0.00     0.001 A 
ATOM     44  C37 G10 d         -16.279  -3.969   1.998  0.00  0.00     0.007 A 
ENDBRANCH  38  39
ENDBRANCH   1  38
TORSDOF 14
