REMARK  2 active torsions:
REMARK  status: ('A' for Active; 'I' for Inactive)
REMARK    1  A    between atoms: C1_1  and  C_7 
REMARK    2  A    between atoms: C_7  and  N1_8 
ROOT
ATOM      1  C   BEN d          -2.174  13.363  15.237  0.00  0.00     0.102 C 
ATOM      2  N2  BEN d          -1.737  12.144  15.005  0.00  0.00    -0.385 N 
ATOM      3  H8  BEN d          -1.129  11.676  15.692  0.00  0.00     0.157 HD
ATOM      4  H9  BEN d          -2.003  11.658  14.137  0.00  0.00     0.157 HD
ENDROOT
BRANCH   1   5
ATOM      5  C1  BEN d          -1.834  14.088  16.401  0.00  0.00     0.007 A 
ATOM      6  C2  BEN d          -1.204  13.469  17.482  0.00  0.00     0.015 A 
ATOM      7  C3  BEN d          -0.872  14.182  18.628  0.00  0.00     0.001 A 
ATOM      8  C4  BEN d          -1.167  15.537  18.719  0.00  0.00     0.000 A 
ATOM      9  C5  BEN d          -1.790  16.165  17.642  0.00  0.00     0.001 A 
ATOM     10  C6  BEN d          -2.133  15.449  16.491  0.00  0.00     0.015 A 
ENDBRANCH   1   5
BRANCH   1  11
ATOM     11  N1  BEN d          -2.945  13.883  14.306  0.00  0.00    -0.385 N 
ATOM     12  H6  BEN d          -3.179  13.335  13.466  0.00  0.00     0.157 HD
ATOM     13  H7  BEN d          -3.314  14.838  14.417  0.00  0.00     0.157 HD
ENDBRANCH   1  11
TORSDOF 2
