REMARK  10 active torsions:
REMARK  status: ('A' for Active; 'I' for Inactive)
REMARK    1  A    between atoms: C65_1  and  C34_10 
REMARK    2  A    between atoms: C61_6  and  C25_7 
REMARK    3  A    between atoms: C25_7  and  N43_8 
REMARK    4  A    between atoms: C34_10  and  C31_11 
REMARK    5  A    between atoms: C31_11  and  N29_24 
REMARK    6  A    between atoms: C31_11  and  C35_12 
REMARK       I    between atoms: C35_12  and  N81_14 
REMARK    7  A    between atoms: C40_19  and  C48_20 
REMARK    8  A    between atoms: C48_20  and  O55_22 
REMARK    9  A    between atoms: N29_24  and  S12_25 
REMARK   10  A    between atoms: S12_25  and  C2_28 
ROOT
ATOM      1  C31 FD2 d          -3.793   4.153  22.254  0.00  0.00     0.189 C 
ENDROOT
BRANCH   1   2
ATOM      2  C34 FD2 d          -3.805   4.361  20.707  0.00  0.00     0.074 C 
BRANCH   2   3
ATOM      3  C65 FD2 d          -3.035   5.609  20.247  0.00  0.00    -0.055 A 
ATOM      4  C64 FD2 d          -1.674   5.516  19.893  0.00  0.00     0.007 A 
ATOM      5  C63 FD2 d          -0.965   6.651  19.476  0.00  0.00     0.002 A 
ATOM      6  C62 FD2 d          -1.611   7.899  19.404  0.00  0.00     0.015 A 
ATOM      7  C61 FD2 d          -2.975   8.014  19.758  0.00  0.00     0.007 A 
ATOM      8  C66 FD2 d          -3.680   6.861  20.178  0.00  0.00     0.022 A 
BRANCH   7   9
ATOM      9  C25 FD2 d          -3.669   9.360  19.670  0.00  0.00     0.102 C 
ATOM     10  N54 FD2 d          -4.951   9.466  19.969  0.00  0.00    -0.385 N 
ATOM     11  H7  FD2 d          -5.480   8.635  20.269  0.00  0.00     0.157 HD
ATOM     12  H8  FD2 d          -5.421  10.380  19.902  0.00  0.00     0.157 HD
BRANCH   9  13
ATOM     13  N43 FD2 d          -2.976  10.402  19.287  0.00  0.00    -0.385 N 
ATOM     14  H5  FD2 d          -3.428  11.325  19.221  0.00  0.00     0.157 HD
ATOM     15  H6  FD2 d          -1.978  10.299  19.052  0.00  0.00     0.157 HD
ENDBRANCH   9  13
ENDBRANCH   7   9
ENDBRANCH   2   3
ENDBRANCH   1   2
BRANCH   1  16
ATOM     16  N29 FD2 d          -4.863   4.928  22.886  0.00  0.00    -0.301 N 
ATOM     17  H24 FD2 d          -5.066   5.851  22.560  0.00  0.00     0.173 HD
BRANCH  16  18
ATOM     18  S12 FD2 d          -5.778   4.256  24.193  0.00  0.00     0.259 S 
ATOM     19  O33 FD2 d          -6.113   2.905  23.902  0.00  0.00    -0.201 OA
ATOM     20  O32 FD2 d          -6.794   5.205  24.567  0.00  0.00    -0.201 OA
BRANCH  18  21
ATOM     21  C2  FD2 d          -4.570   4.289  25.422  0.00  0.00     0.080 A 
ATOM     22  C1  FD2 d          -3.895   3.132  25.817  0.00  0.00     0.037 A 
ATOM     23  C9  FD2 d          -2.890   3.207  26.837  0.00  0.00    -0.025 A 
ATOM     24  C10 FD2 d          -2.600   4.459  27.439  0.00  0.00    -0.026 A 
ATOM     25  C8  FD2 d          -2.191   2.037  27.262  0.00  0.00     0.012 A 
ATOM     26  C4  FD2 d          -3.306   5.625  27.019  0.00  0.00     0.014 A 
ATOM     27  C5  FD2 d          -1.605   4.523  28.460  0.00  0.00     0.012 A 
ATOM     28  C3  FD2 d          -4.284   5.526  26.017  0.00  0.00     0.026 A 
ATOM     29  C6  FD2 d          -0.904   3.353  28.880  0.00  0.00     0.001 A 
ATOM     30  C7  FD2 d          -1.208   2.107  28.266  0.00  0.00     0.001 A 
ENDBRANCH  18  21
ENDBRANCH  16  18
ENDBRANCH   1  16
BRANCH   1  31
ATOM     31  C35 FD2 d          -2.469   4.514  22.904  0.00  0.00     0.243 C 
ATOM     32  N81 FD2 d          -1.414   3.678  23.021  0.00  0.00    -0.350 N 
ATOM     33  C75 FD2 d          -0.164   4.173  23.571  0.00  0.00     0.127 C 
ATOM     34  C71 FD2 d          -1.509   2.346  22.445  0.00  0.00     0.127 C 
ATOM     35  C74 FD2 d           0.336   3.158  24.637  0.00  0.00     0.034 C 
ATOM     36  C40 FD2 d           0.375   1.708  24.055  0.00  0.00     0.088 C 
ATOM     37  C72 FD2 d          -1.024   1.316  23.492  0.00  0.00     0.034 C 
ATOM     38  O36 FD2 d          -2.417   5.659  23.345  0.00  0.00    -0.271 OA
BRANCH  36  39
ATOM     39  C48 FD2 d           0.796   0.806  25.054  0.00  0.00     0.262 C 
ATOM     40  O49 FD2 d           0.185  -0.187  25.437  0.00  0.00    -0.265 OA
BRANCH  39  41
ATOM     41  O55 FD2 d           1.999   1.168  25.536  0.00  0.00    -0.326 OA
ATOM     42  C99 FD2 d           2.176   0.934  26.951  0.00  0.00     0.213 C 
ENDBRANCH  39  41
ENDBRANCH  36  39
ENDBRANCH   1  31
TORSDOF 10
