REMARK  5 active torsions:
REMARK  status: ('A' for Active; 'I' for Inactive)
REMARK    1  A    between atoms: P14_2  and  C8_5 
REMARK    2  A    between atoms: C8_5  and  P9_6 
REMARK    3  A    between atoms: C8_5  and  O13_10 
REMARK    4  A    between atoms: C8_5  and  C7_11 
REMARK    5  A    between atoms: C7_11  and  N15_12 
ROOT
ATOM      1  C8  ZOL d          28.638  46.114   5.841  0.00  0.00     0.301 C 
ENDROOT
BRANCH   1   2
ATOM      2  P14 ZOL d          29.531  44.949   4.696  0.00  0.00     0.311 P 
ATOM      3  O17 ZOL d          28.978  43.494   5.090  0.00  0.00    -0.637 OA
ATOM      4  O16 ZOL d          28.969  45.370   3.241  0.00  0.00    -0.637 OA
ATOM      5  O15 ZOL d          31.003  45.027   4.846  0.00  0.00    -0.637 OA
ENDBRANCH   1   2
BRANCH   1   6
ATOM      6  P9  ZOL d          26.820  45.744   5.616  0.00  0.00     0.311 P 
ATOM      7  O10 ZOL d          26.575  44.293   6.263  0.00  0.00    -0.637 OA
ATOM      8  O11 ZOL d          26.033  46.835   6.497  0.00  0.00    -0.637 OA
ATOM      9  O12 ZOL d          26.483  45.767   4.169  0.00  0.00    -0.637 OA
ENDBRANCH   1   6
BRANCH   1  10
ATOM     10  O13 ZOL d          28.914  47.452   5.415  0.00  0.00    -0.364 OA
ATOM     11  H1  ZOL d          28.608  47.569   4.523  0.00  0.00     0.212 HD
ENDBRANCH   1  10
BRANCH   1  12
ATOM     12  C7  ZOL d          29.106  45.865   7.278  0.00  0.00     0.197 C 
BRANCH  12  13
ATOM     13  N15 ZOL d          28.450  46.758   8.249  0.00  0.00    -0.346 N 
ATOM     14  C16 ZOL d          28.373  48.079   8.155  0.00  0.00     0.209 A 
ATOM     15  N17 ZOL d          27.766  48.495   9.268  0.00  0.00    -0.255 NA
ATOM     16  C18 ZOL d          27.481  47.444  10.034  0.00  0.00     0.135 A 
ATOM     17  C19 ZOL d          27.908  46.356   9.396  0.00  0.00     0.111 A 
ENDBRANCH  12  13
ENDBRANCH   1  12
TORSDOF 5
