REMARK  3 active torsions:
REMARK  status: ('A' for Active; 'I' for Inactive)
REMARK    1  A    between atoms: CAI_1  and  CAH_4 
REMARK    2  A    between atoms: CAH_4  and  CAG_6 
REMARK    3  A    between atoms: CAG_6  and  PAJ_7 
ROOT
ATOM      1  CAH GZ3 d          -6.683 -84.999   0.774  0.00  0.00     0.095 C 
ATOM      2  CAA GZ3 d          -7.363 -83.921   1.614  0.00  0.00     0.022 C 
ENDROOT
BRANCH   1   3
ATOM      3  CAI GZ3 d          -5.209 -84.843   0.412  0.00  0.00     0.177 C 
ATOM      4  OAB GZ3 d          -4.660 -85.560  -0.443  0.00  0.00    -0.648 OA
ATOM      5  OAD GZ3 d          -4.585 -83.980   0.996  0.00  0.00    -0.648 OA
ENDBRANCH   1   3
BRANCH   1   6
ATOM      6  CAG GZ3 d          -7.260 -86.313   0.482  0.00  0.00     0.161 C 
BRANCH   6   7
ATOM      7  PAJ GZ3 d          -8.986 -86.726   0.784  0.00  0.00     0.260 P 
ATOM      8  OAE GZ3 d          -9.049 -88.298   0.664  0.00  0.00    -0.640 OA
ATOM      9  OAF GZ3 d          -9.294 -86.436   2.271  0.00  0.00    -0.640 OA
ATOM     10  OAC GZ3 d          -9.936 -86.038  -0.166  0.00  0.00    -0.640 OA
ENDBRANCH   6   7
ENDBRANCH   1   6
TORSDOF 3
