REMARK  5 active torsions:
REMARK  status: ('A' for Active; 'I' for Inactive)
REMARK    1  A    between atoms: C4_1  and  C3_11 
REMARK    2  A    between atoms: N5_12  and  C4_1 
REMARK    3  A    between atoms: C8_3  and  C6_2 
REMARK       I    between atoms: C6_2  and  N5_12 
REMARK    4  A    between atoms: C3_11  and  O2_10 
REMARK    5  A    between atoms: C11_15  and  C12_16 
ROOT
ATOM      1  C8  AJ5 d           2.534 -11.587  -5.336  0.00  0.00     0.033 A 
ATOM      2  C10 AJ5 d           3.408 -10.677  -7.397  0.00  0.00     0.015 A 
ATOM      3  C9  AJ5 d           3.268 -10.613  -6.017  0.00  0.00     0.018 A 
ATOM      4  C11 AJ5 d           2.812 -11.694  -8.171  0.00  0.00    -0.004 A 
ATOM      5  C25 AJ5 d           2.058 -12.707  -7.476  0.00  0.00     0.046 A 
ATOM      6 CL   AJ5 d           1.242 -14.072  -8.246  0.00  0.00    -0.083 Cl
ATOM      7  C27 AJ5 d           1.942 -12.635  -6.083  0.00  0.00     0.042 A 
ENDROOT
BRANCH   4   8
ATOM      8  C12 AJ5 d           3.063 -11.785  -9.650  0.00  0.00    -0.022 A 
ATOM      9  C13 AJ5 d           4.413 -11.828 -10.045  0.00  0.00     0.013 A 
ATOM     10  C14 AJ5 d           4.806 -11.970 -11.362  0.00  0.00     0.015 A 
ATOM     11  C15 AJ5 d           3.808 -12.131 -12.377  0.00  0.00    -0.003 A 
ATOM     12  C16 AJ5 d           4.106 -12.339 -13.829  0.00  0.00    -0.044 A 
ATOM     13  C23 AJ5 d           2.440 -12.110 -11.958  0.00  0.00     0.046 A 
ATOM     14  C17 AJ5 d           5.560 -12.417 -14.308  0.00  0.00     0.049 C 
ATOM     15  C18 AJ5 d           3.063 -12.523 -14.735  0.00  0.00     0.082 A 
ATOM     16  C19 AJ5 d           1.726 -12.489 -14.236  0.00  0.00     0.246 A 
ATOM     17  O20 AJ5 d           0.746 -12.662 -14.981  0.00  0.00    -0.268 OA
ATOM     18  N21 AJ5 d           1.479 -12.278 -12.911  0.00  0.00    -0.323 N 
ATOM     19  H18 AJ5 d           0.524 -12.244 -12.617  0.00  0.00     0.169 HD
ATOM     20  C24 AJ5 d           2.072 -11.961 -10.623  0.00  0.00     0.042 A 
ENDBRANCH   4   8
BRANCH   1  21
ATOM     21  C6  AJ5 d           2.415 -11.562  -3.831  0.00  0.00     0.251 C 
ATOM     22  N5  AJ5 d           2.608 -10.447  -3.113  0.00  0.00    -0.355 N 
ATOM     23  H14 AJ5 d           2.794  -9.596  -3.605  0.00  0.00     0.162 HD
ATOM     24  O7  AJ5 d           2.223 -12.619  -3.244  0.00  0.00    -0.268 OA
BRANCH  22  25
ATOM     25  C4  AJ5 d           2.562 -10.402  -1.649  0.00  0.00     0.149 C 
BRANCH  25  26
ATOM     26  C3  AJ5 d           3.917  -9.824  -1.174  0.00  0.00     0.186 C 
BRANCH  26  27
ATOM     27  O2  AJ5 d           5.013 -10.752  -1.407  0.00  0.00    -0.394 OA
ATOM     28  C1  AJ5 d           6.360 -10.335  -1.099  0.00  0.00     0.201 C 
ENDBRANCH  26  27
ENDBRANCH  25  26
ENDBRANCH  22  25
ENDBRANCH   1  21
TORSDOF 5
