REMARK  8 active torsions:
REMARK  status: ('A' for Active; 'I' for Inactive)
REMARK    1  A    between atoms: C1_1  and  O7_7 
REMARK    2  A    between atoms: C4_4  and  S12_12 
REMARK    3  A    between atoms: O7_7  and  C8_8 
REMARK    4  A    between atoms: S12_12  and  N13_13 
REMARK    5  A    between atoms: N13_13  and  C14_14 
REMARK    6  A    between atoms: C14_14  and  C15_15 
REMARK    7  A    between atoms: C15_15  and  O16_16 
REMARK    8  A    between atoms: O16_16  and  P17_17 
ROOT
ATOM      1  S12 F9F d          48.194  27.217  15.552  0.00  0.00     0.258 S 
ATOM      2  O21 F9F d          48.087  27.438  17.012  0.00  0.00    -0.201 OA
ATOM      3  O22 F9F d          46.879  26.904  14.932  0.00  0.00    -0.201 OA
ENDROOT
BRANCH   1   4
ATOM      4  C4  F9F d          49.241  25.773  15.312  0.00  0.00     0.079 A 
ATOM      5  C3  F9F d          48.908  24.584  15.947  0.00  0.00     0.028 A 
ATOM      6  C2  F9F d          49.677  23.309  15.867  0.00  0.00     0.038 A 
ATOM      7  C1  F9F d          50.867  23.397  15.009  0.00  0.00     0.078 A 
ATOM      8  C6  F9F d          51.274  24.602  14.316  0.00  0.00     0.038 A 
ATOM      9  C5  F9F d          50.492  25.789  14.432  0.00  0.00     0.028 A 
BRANCH   7  10
ATOM     10  O7  F9F d          51.789  22.345  14.763  0.00  0.00    -0.255 OA
BRANCH  10  11
ATOM     11  C8  F9F d          51.356  20.942  14.568  0.00  0.00     0.530 C 
ATOM     12  F9F F9F d          52.374  20.267  14.046  0.00  0.00    -0.144 F 
ATOM     13  F10 F9F d          50.380  20.830  13.630  0.00  0.00    -0.144 F 
ATOM     14  F11 F9F d          50.945  20.308  15.698  0.00  0.00    -0.144 F 
ENDBRANCH  10  11
ENDBRANCH   7  10
ENDBRANCH   1   4
BRANCH   1  15
ATOM     15  N13 F9F d          48.798  28.592  14.706  0.00  0.00    -0.313 N 
ATOM     16  H5  F9F d          49.017  29.440  15.188  0.00  0.00     0.172 HD
BRANCH  15  17
ATOM     17  C14 F9F d          48.981  28.475  13.241  0.00  0.00     0.159 C 
BRANCH  17  18
ATOM     18  C15 F9F d          47.814  28.964  12.575  0.00  0.00     0.202 C 
BRANCH  18  19
ATOM     19  O16 F9F d          47.794  28.439  11.259  0.00  0.00    -0.281 OA
BRANCH  19  20
ATOM     20  P17 F9F d          48.048  29.466  10.021  0.00  0.00     0.422 P 
ATOM     21  O18 F9F d          49.212  30.347  10.313  0.00  0.00    -0.617 OA
ATOM     22  O19 F9F d          48.289  28.646   8.826  0.00  0.00    -0.617 OA
ATOM     23  O20 F9F d          46.807  30.262   9.887  0.00  0.00    -0.617 OA
ENDBRANCH  19  20
ENDBRANCH  18  19
ENDBRANCH  17  18
ENDBRANCH  15  17
ENDBRANCH   1  15
TORSDOF 8
