REMARK  8 active torsions:
REMARK  status: ('A' for Active; 'I' for Inactive)
REMARK    1  A    between atoms: C8_9  and  O8_10 
REMARK    2  A    between atoms: C10_12  and  O10_13 
REMARK    3  A    between atoms: O10_13  and  C1'_28 
REMARK    4  A    between atoms: C12_15  and  O12_16 
REMARK    5  A    between atoms: C12_15  and  C13_17 
REMARK    6  A    between atoms: C17_22  and  O17_23 
REMARK    7  A    between atoms: C3'_30  and  N3'_31 
REMARK    8  A    between atoms: C4'_32  and  O4'_33 
ROOT
ATOM      1  C1  DM5 d          13.665  -8.128  23.836  0.00  0.00     0.016 A 
ATOM      2  C2  DM5 d          13.557  -7.483  25.098  0.00  0.00     0.001 A 
ATOM      3  C3  DM5 d          14.669  -7.179  25.878  0.00  0.00     0.001 A 
ATOM      4  C4  DM5 d          15.936  -7.562  25.418  0.00  0.00     0.016 A 
ATOM      5  C5  DM5 d          16.072  -8.217  24.161  0.00  0.00     0.029 A 
ATOM      6  C6  DM5 d          17.332  -8.579  23.690  0.00  0.00     0.197 A 
ATOM      7  O6  DM5 d          18.360  -8.349  24.348  0.00  0.00    -0.286 OA
ATOM      8  C7  DM5 d          17.456  -9.227  22.429  0.00  0.00     0.066 A 
ATOM      9  C8  DM5 d          18.754  -9.624  22.020  0.00  0.00     0.090 A 
ATOM     10  C9  DM5 d          18.863 -10.299  20.781  0.00  0.00     0.014 A 
ATOM     11  C10 DM5 d          20.263 -10.780  20.335  0.00  0.00     0.164 C 
ATOM     12  C11 DM5 d          20.386 -11.481  18.961  0.00  0.00     0.083 C 
ATOM     13  C12 DM5 d          19.107 -12.253  18.536  0.00  0.00     0.124 C 
ATOM     14  C15 DM5 d          17.891 -11.332  18.642  0.00  0.00     0.088 C 
ATOM     15  C16 DM5 d          17.766 -10.572  20.009  0.00  0.00    -0.009 A 
ATOM     16  C17 DM5 d          16.508 -10.197  20.412  0.00  0.00     0.088 A 
ATOM     17  C18 DM5 d          16.365  -9.529  21.663  0.00  0.00     0.066 A 
ATOM     18  C19 DM5 d          15.103  -9.146  22.143  0.00  0.00     0.197 A 
ATOM     19  O19 DM5 d          14.065  -9.420  21.512  0.00  0.00    -0.286 OA
ATOM     20  C20 DM5 d          14.953  -8.487  23.378  0.00  0.00     0.029 A 
ENDROOT
BRANCH  11  21
ATOM     21  O10 DM5 d          20.453 -11.975  21.251  0.00  0.00    -0.351 OA
BRANCH  21  22
ATOM     22  C1' DM5 d          21.705 -11.831  22.025  0.00  0.00     0.263 C 
ATOM     23  C2' DM5 d          21.664 -12.869  23.227  0.00  0.00     0.096 C 
ATOM     24  C3' DM5 d          21.772 -14.299  22.631  0.00  0.00     0.219 C 
ATOM     25  C4' DM5 d          23.038 -14.468  21.743  0.00  0.00     0.177 C 
ATOM     26  C5' DM5 d          23.024 -13.423  20.589  0.00  0.00     0.151 C 
ATOM     27  O5' DM5 d          22.792 -12.047  21.052  0.00  0.00    -0.354 OA
ATOM     28  C6' DM5 d          24.311 -13.429  19.709  0.00  0.00     0.042 C 
BRANCH  24  29
ATOM     29  N3' DM5 d          21.753 -15.334  23.715  0.00  0.00    -0.072 N 
ATOM     30  H20 DM5 d          21.824 -16.252  23.304  0.00  0.00     0.274 HD
ATOM     31  H21 DM5 d          20.891 -15.263  24.232  0.00  0.00     0.274 HD
ATOM     32  H22 DM5 d          22.531 -15.183  24.337  0.00  0.00     0.274 HD
ENDBRANCH  24  29
BRANCH  25  33
ATOM     33  O4' DM5 d          24.224 -14.344  22.575  0.00  0.00    -0.391 OA
ATOM     34  H24 DM5 d          25.000 -14.447  22.036  0.00  0.00     0.210 HD
ENDBRANCH  25  33
ENDBRANCH  21  22
ENDBRANCH  11  21
BRANCH   9  35
ATOM     35  O8  DM5 d          19.671  -9.351  22.817  0.00  0.00    -0.359 OA
ATOM     36  H14 DM5 d          19.312  -8.894  23.568  0.00  0.00     0.217 HD
ENDBRANCH   9  35
BRANCH  13  37
ATOM     37  O12 DM5 d          19.060 -13.402  19.505  0.00  0.00    -0.382 OA
ATOM     38  H8  DM5 d          19.004 -13.065  20.392  0.00  0.00     0.211 HD
ENDBRANCH  13  37
BRANCH  13  39
ATOM     39  C13 DM5 d          19.140 -12.750  17.073  0.00  0.00     0.157 C 
ATOM     40  O13 DM5 d          19.101 -13.969  16.858  0.00  0.00    -0.295 OA
ATOM     41  C14 DM5 d          19.281 -11.765  15.859  0.00  0.00     0.094 C 
ENDBRANCH  13  39
BRANCH  16  42
ATOM     42  O17 DM5 d          15.452 -10.556  19.633  0.00  0.00    -0.359 OA
ATOM     43  H15 DM5 d          15.770 -10.986  18.848  0.00  0.00     0.217 HD
ENDBRANCH  16  42
TORSDOF 8
