3e85_ligand

Created by X-TOOL on Fri Sep 26 17:34:44 2014
 28 29  0  0  0  0  0  0  0  0999 V2000
   20.0150   12.6880   60.7570  N 0  0  0  2  0  3
   20.6020   11.5100   60.8660  C 0  0  0  1  0  3
   19.9630   10.8630   61.8650  N 0  0  0  2  0  3
   21.5090   11.0880   60.1930  O 0  0  0  1  0  1
   20.1010   13.8410   59.9490  C 0  0  0  1  0  3
   19.5200   15.0000   60.3920  C 0  0  0  2  0  3
   19.5260   16.1530   59.6680  C 0  0  0  2  0  3
   20.1360   16.1310   58.4610  C 0  0  0  2  0  3
   20.7300   14.9600   58.0100  C 0  0  0  2  0  3
   20.6930   13.7900   58.7530  C 0  0  0  2  0  3
   20.0470    9.6360   62.5500  C 0  0  0  1  0  3
   19.3300    9.6520   63.7120  C 0  0  0  2  0  3
   19.3030    8.5610   64.5240  C 0  0  0  2  0  3
   19.9860    7.4360   64.1890  C 0  0  0  2  0  3
   20.6990    7.4070   63.0340  C 0  0  0  2  0  3
   20.7440    8.5250   62.2070  C 0  0  0  2  0  3
   19.3012   12.7933   61.4494  H 0  0  0  1  0  1
   19.2111   11.4172   62.2220  H 0  0  0  1  0  1
   19.0344   14.9989   61.3611  H 0  0  0  1  0  1
   19.0590   17.0556   60.0451  H 0  0  0  1  0  1
   20.1610   17.0246   57.8479  H 0  0  0  1  0  1
   21.2362   14.9605   57.0514  H 0  0  0  1  0  1
   21.1274   12.8703   58.3780  H 0  0  0  1  0  1
   18.7773   10.5422   63.9899  H 0  0  0  1  0  1
   18.7322    8.5898   65.4451  H 0  0  0  1  0  1
   19.9621    6.5684   64.8384  H 0  0  0  1  0  1
   21.2362    6.5079   62.7546  H 0  0  0  1  0  1
   21.3314    8.5078   61.2961  H 0  0  0  1  0  1
  1  2  1  0  0  2
  1  5  1  0  0  2
  2  3  1  0  0  2
  2  4  2  0  0  2
  3 11  1  0  0  2
  5  6  4  0  0  1
  5 10  4  0  0  1
  6  7  4  0  0  1
  7  8  4  0  0  1
  8  9  4  0  0  1
  9 10  4  0  0  1
 11 12  4  0  0  1
 11 16  4  0  0  1
 12 13  4  0  0  1
 13 14  4  0  0  1
 14 15  4  0  0  1
 15 16  4  0  0  1
  1 17  1  0  0  2
  3 18  1  0  0  2
  6 19  1  0  0  2
  7 20  1  0  0  2
  8 21  1  0  0  2
  9 22  1  0  0  2
 10 23  1  0  0  2
 12 24  1  0  0  2
 13 25  1  0  0  2
 14 26  1  0  0  2
 15 27  1  0  0  2
 16 28  1  0  0  2
M  END
> <MOLECULAR_FORMULA>
C13H12N2O

> <MOLECULAR_WEIGHT>
212.1

> <NUM_HB_ATOMS>
3  

> <NUM_ROTOR>
0  

> <XLOGP2>
2.52 

$$$$
