REMARK  2 active torsions:
REMARK  status: ('A' for Active; 'I' for Inactive)
REMARK       I    between atoms: N7_1  and  C8_2 
REMARK    1  A    between atoms: N7_1  and  C5_5 
REMARK       I    between atoms: C8_2  and  N9_3 
REMARK    2  A    between atoms: N9_3  and  C10_11 
ROOT
ATOM      1  N7  BSU d          20.015  12.688  60.757  0.00  0.00    -0.309 N 
ATOM      2  C8  BSU d          20.602  11.510  60.866  0.00  0.00     0.325 C 
ATOM      3  N9  BSU d          19.963  10.863  61.865  0.00  0.00    -0.309 N 
ATOM      4  O11 BSU d          21.509  11.088  60.193  0.00  0.00    -0.247 OA
ATOM      5  H1  BSU d          19.301  12.793  61.449  0.00  0.00     0.170 HD
ATOM      6  H2  BSU d          19.211  11.417  62.222  0.00  0.00     0.170 HD
ENDROOT
BRANCH   1   7
ATOM      7  C5  BSU d          20.101  13.841  59.949  0.00  0.00     0.036 A 
ATOM      8  C4  BSU d          19.520  15.000  60.392  0.00  0.00     0.029 A 
ATOM      9  C3  BSU d          19.526  16.153  59.668  0.00  0.00     0.002 A 
ATOM     10  C2  BSU d          20.136  16.131  58.461  0.00  0.00     0.000 A 
ATOM     11  C1  BSU d          20.730  14.960  58.010  0.00  0.00     0.002 A 
ATOM     12  C6  BSU d          20.693  13.790  58.753  0.00  0.00     0.029 A 
ENDBRANCH   1   7
BRANCH   3  13
ATOM     13  C10 BSU d          20.047   9.636  62.550  0.00  0.00     0.036 A 
ATOM     14  C16 BSU d          19.330   9.652  63.712  0.00  0.00     0.029 A 
ATOM     15  C15 BSU d          19.303   8.561  64.524  0.00  0.00     0.002 A 
ATOM     16  C14 BSU d          19.986   7.436  64.189  0.00  0.00     0.000 A 
ATOM     17  C13 BSU d          20.699   7.407  63.034  0.00  0.00     0.002 A 
ATOM     18  C12 BSU d          20.744   8.525  62.207  0.00  0.00     0.029 A 
ENDBRANCH   3  13
TORSDOF 2
