REMARK  9 active torsions:
REMARK  status: ('A' for Active; 'I' for Inactive)
REMARK    1  A    between atoms: N1_1  and  C2_2 
REMARK    2  A    between atoms: C2_2  and  C3_3 
REMARK    3  A    between atoms: C3_3  and  C4_4 
REMARK    4  A    between atoms: C4_4  and  C5_5 
REMARK    5  A    between atoms: C5_5  and  N6_6 
REMARK    6  A    between atoms: N6_6  and  C7_7 
REMARK    7  A    between atoms: C7_7  and  C8_8 
REMARK    8  A    between atoms: C8_8  and  C9_9 
REMARK    9  A    between atoms: C9_9  and  N10_10 
ROOT
ATOM      1  N6  SPD d          21.672  30.055  34.321  0.00  0.00    -0.075 N 
ATOM      2  H12 SPD d          22.283  30.095  35.122  0.00  0.00     0.277 HD
ATOM      3  H13 SPD d          21.354  29.108  34.188  0.00  0.00     0.277 HD
ENDROOT
BRANCH   1   4
ATOM      4  C5  SPD d          22.458  30.397  33.178  0.00  0.00     0.232 C 
BRANCH   4   5
ATOM      5  C4  SPD d          23.927  30.063  33.321  0.00  0.00     0.029 C 
BRANCH   5   6
ATOM      6  C3  SPD d          24.202  28.749  32.589  0.00  0.00     0.029 C 
BRANCH   6   7
ATOM      7  C2  SPD d          25.674  28.661  32.205  0.00  0.00     0.229 C 
BRANCH   7   8
ATOM      8  N1  SPD d          26.024  27.288  31.879  0.00  0.00    -0.079 N 
ATOM      9  H1  SPD d          26.999  27.241  31.627  0.00  0.00     0.274 HD
ATOM     10  H2  SPD d          25.461  26.972  31.105  0.00  0.00     0.274 HD
ATOM     11  H3  SPD d          25.855  26.699  32.679  0.00  0.00     0.274 HD
ENDBRANCH   7   8
ENDBRANCH   6   7
ENDBRANCH   5   6
ENDBRANCH   4   5
ENDBRANCH   1   4
BRANCH   1  12
ATOM     12  C7  SPD d          20.499  30.857  34.640  0.00  0.00     0.233 C 
BRANCH  12  13
ATOM     13  C8  SPD d          19.247  29.982  34.689  0.00  0.00     0.055 C 
BRANCH  13  14
ATOM     14  C9  SPD d          18.079  30.623  35.449  0.00  0.00     0.231 C 
BRANCH  14  15
ATOM     15  N10 SPD d          16.856  30.085  34.873  0.00  0.00    -0.079 N 
ATOM     16  H20 SPD d          16.059  30.482  35.346  0.00  0.00     0.274 HD
ATOM     17  H21 SPD d          16.846  29.083  34.981  0.00  0.00     0.274 HD
ATOM     18  H22 SPD d          16.816  30.317  33.893  0.00  0.00     0.274 HD
ENDBRANCH  14  15
ENDBRANCH  13  14
ENDBRANCH  12  13
ENDBRANCH   1  12
TORSDOF 9
