REMARK  1 active torsions:
REMARK  status: ('A' for Active; 'I' for Inactive)
REMARK    1  A    between atoms: C2_2  and  C10_10 
ROOT
ATOM      1  C1  AVX d           8.518 -22.280  -5.696  0.00  0.00     0.053 A 
ATOM      2  C2  AVX d           9.633 -22.201  -6.578  0.00  0.00    -0.001 A 
ATOM      3  C3  AVX d          10.611 -21.211  -6.482  0.00  0.00     0.036 A 
ATOM      4  C4  AVX d          10.543 -20.227  -5.533  0.00  0.00     0.048 A 
ATOM      5  C5  AVX d           9.421 -20.235  -4.600  0.00  0.00     0.122 A 
ATOM      6  C6  AVX d           8.427 -21.281  -4.708  0.00  0.00     0.107 A 
ATOM      7  O7  AVX d           7.540 -21.006  -3.710  0.00  0.00    -0.323 OA
ATOM      8  C8  AVX d           7.995 -19.921  -2.875  0.00  0.00     0.352 C 
ATOM      9  O9  AVX d           9.133 -19.387  -3.567  0.00  0.00    -0.322 OA
ATOM     10 BR15 AVX d          11.810 -18.885  -5.354  0.00  0.00    -0.048 Br
ENDROOT
BRANCH   2  11
ATOM     11  C10 AVX d           9.950 -23.189  -7.647  0.00  0.00     0.091 A 
ATOM     12  N11 AVX d          11.249 -23.636  -7.774  0.00  0.00    -0.171 NA
ATOM     13  N12 AVX d          11.257 -24.553  -8.827  0.00  0.00    -0.258 N 
ATOM     14  C13 AVX d          10.007 -24.632  -9.280  0.00  0.00     0.119 A 
ATOM     15  C16 AVX d          12.570 -25.182  -9.168  0.00  0.00     0.182 C 
ATOM     16  C14 AVX d           9.116 -23.812  -8.590  0.00  0.00     0.083 A 
ATOM     17  N17 AVX d           9.661 -25.445 -10.317  0.00  0.00    -0.384 N 
ATOM     18  H9  AVX d           8.684 -25.480 -10.640  0.00  0.00     0.157 HD
ATOM     19  H10 AVX d          10.377 -26.025 -10.778  0.00  0.00     0.157 HD
ENDBRANCH   2  11
TORSDOF 1
