REMARK  5 active torsions:
REMARK  status: ('A' for Active; 'I' for Inactive)
REMARK       I    between atoms: C02_2  and  N03_3 
REMARK       I    between atoms: C02_2  and  N28_28 
REMARK    1  A    between atoms: N03_3  and  C04_4 
REMARK    2  A    between atoms: C04_4  and  C05_5 
REMARK    3  A    between atoms: C13_13  and  N14_14 
REMARK       I    between atoms: N14_14  and  C15_15 
REMARK    4  A    between atoms: C15_15  and  C17_17 
REMARK       I    between atoms: C17_17  and  N19_19 
REMARK    5  A    between atoms: N19_19  and  C20_20 
ROOT
ATOM      1  C05 1C1 d          -2.508 -13.552 -12.531  0.00  0.00     0.035 A 
ATOM      2  C06 1C1 d          -3.222 -13.097 -13.763  0.00  0.00     0.047 A 
ATOM      3  C07 1C1 d          -4.083 -14.277 -14.170  0.00  0.00    -0.049 A 
ATOM      4  C08 1C1 d          -4.971 -14.414 -15.367  0.00  0.00     0.007 A 
ATOM      5  C09 1C1 d          -5.685 -15.625 -15.513  0.00  0.00     0.001 A 
ATOM      6  C10 1C1 d          -5.594 -16.680 -14.597  0.00  0.00     0.001 A 
ATOM      7  C11 1C1 d          -4.751 -16.572 -13.454  0.00  0.00     0.010 A 
ATOM      8  C12 1C1 d          -3.969 -15.300 -13.270  0.00  0.00    -0.029 A 
ATOM      9  C13 1C1 d          -3.027 -14.877 -12.163  0.00  0.00     0.124 A 
ENDROOT
BRANCH   9  10
ATOM     10  N14 1C1 d          -3.844 -14.736 -10.962  0.00  0.00    -0.344 N 
ATOM     11  C15 1C1 d          -3.423 -15.306  -9.690  0.00  0.00     0.310 C 
ATOM     12  O16 1C1 d          -2.240 -15.529  -9.503  0.00  0.00    -0.262 OA
ATOM     13  H14 1C1 d          -4.710 -14.238 -11.014  0.00  0.00     0.163 HD
BRANCH  11  14
ATOM     14  C17 1C1 d          -4.404 -15.210  -8.558  0.00  0.00     0.313 C 
ATOM     15  O18 1C1 d          -5.494 -14.672  -8.798  0.00  0.00    -0.262 OA
ATOM     16  N19 1C1 d          -3.941 -15.504  -7.204  0.00  0.00    -0.319 N 
ATOM     17  H15 1C1 d          -3.169 -16.131  -7.098  0.00  0.00     0.169 HD
BRANCH  16  18
ATOM     18  C20 1C1 d          -4.528 -14.947  -6.009  0.00  0.00     0.038 A 
ATOM     19  C21 1C1 d          -5.844 -14.814  -5.938  0.00  0.00     0.073 A 
ATOM     20  C22 1C1 d          -6.538 -14.591  -4.764  0.00  0.00     0.140 A 
ATOM     21  F23 1C1 d          -7.858 -14.448  -4.650  0.00  0.00    -0.204 F 
ATOM     22  C24 1C1 d          -5.698 -14.520  -3.588  0.00  0.00     0.072 A 
ATOM     23 CL1  1C1 d          -6.553 -14.221  -2.119  0.00  0.00    -0.081 Cl
ATOM     24  C26 1C1 d          -4.297 -14.655  -3.681  0.00  0.00     0.029 A 
ATOM     25  C27 1C1 d          -3.747 -14.868  -4.932  0.00  0.00     0.031 A 
ENDBRANCH  16  18
ENDBRANCH  11  14
ENDBRANCH   9  10
BRANCH   1  26
ATOM     26  C04 1C1 d          -1.011 -13.535 -12.807  0.00  0.00     0.145 C 
BRANCH  26  27
ATOM     27  N03 1C1 d          -0.225 -13.791 -11.597  0.00  0.00    -0.227 N 
ATOM     28  C02 1C1 d           0.600 -15.000 -11.522  0.00  0.00     0.665 C 
ATOM     29  N01 1C1 d           1.274 -15.243 -10.449  0.00  0.00    -0.235 N 
ATOM     30  N28 1C1 d           0.648 -15.838 -12.558  0.00  0.00    -0.235 N 
ATOM     31  H1  1C1 d           1.857 -16.090 -10.387  0.00  0.00     0.174 HD
ATOM     32  H2  1C1 d           1.230 -14.590  -9.654  0.00  0.00     0.174 HD
ATOM     33  H19 1C1 d           1.228 -16.688 -12.506  0.00  0.00     0.174 HD
ATOM     34  H20 1C1 d           0.106 -15.635 -13.410  0.00  0.00     0.174 HD
ATOM     35  H3  1C1 d          -0.252 -13.129 -10.808  0.00  0.00     0.177 HD
ENDBRANCH  26  27
ENDBRANCH   1  26
TORSDOF 5
