REMARK  7 active torsions:
REMARK  status: ('A' for Active; 'I' for Inactive)
REMARK    1  A    between atoms: N7_7  and  C4_4 
REMARK    2  A    between atoms: C5_5  and  N18_18 
REMARK    3  A    between atoms: C6_6  and  O21_21 
REMARK    4  A    between atoms: C23_23  and  N7_7 
REMARK    5  A    between atoms: C8_8  and  C23_23 
REMARK    6  A    between atoms: C11_11  and  S14_14 
REMARK    7  A    between atoms: S14_14  and  N17_17 
ROOT
ATOM      1  N7  J71 d          -4.288   6.113  12.570  0.00  0.00    -0.368 N 
ATOM      2  H2  J71 d          -5.201   5.691  12.349  0.00  0.00     0.161 HD
ENDROOT
BRANCH   1   3
ATOM      3  C4  J71 d          -3.975   7.392  12.033  0.00  0.00     0.163 A 
ATOM      4  N3  J71 d          -2.759   7.936  12.313  0.00  0.00    -0.222 NA
ATOM      5  C2  J71 d          -2.437   9.148  11.818  0.00  0.00     0.238 A 
ATOM      6  N1  J71 d          -3.301   9.857  11.059  0.00  0.00    -0.216 NA
ATOM      7  C6  J71 d          -4.527   9.411  10.698  0.00  0.00     0.203 A 
ATOM      8  C5  J71 d          -4.908   8.106  11.201  0.00  0.00     0.200 A 
BRANCH   7   9
ATOM      9  O21 J71 d          -5.276  10.385   9.814  0.00  0.00    -0.337 OA
ATOM     10  C22 J71 d          -5.704  11.698  10.190  0.00  0.00     0.211 C 
ENDBRANCH   7   9
BRANCH   8  11
ATOM     11  N18 J71 d          -6.219   7.391  10.946  0.00  0.00    -0.107 N 
ATOM     12  O19 J71 d          -6.274   6.399  10.325  0.00  0.00    -0.531 OA
ATOM     13  O20 J71 d          -7.377   7.866  11.383  0.00  0.00    -0.531 OA
ENDBRANCH   8  11
ENDBRANCH   1   3
BRANCH   1  14
ATOM     14  C23 J71 d          -3.392   5.404  13.393  0.00  0.00     0.160 C 
BRANCH  14  15
ATOM     15  C8  J71 d          -4.082   4.329  14.215  0.00  0.00    -0.041 A 
ATOM     16  C9  J71 d          -5.445   4.327  14.596  0.00  0.00     0.010 A 
ATOM     17  C10 J71 d          -5.895   3.215  15.396  0.00  0.00     0.026 A 
ATOM     18  C11 J71 d          -5.013   2.135  15.674  0.00  0.00     0.079 A 
ATOM     19  C12 J71 d          -3.674   2.164  15.304  0.00  0.00     0.026 A 
ATOM     20  C13 J71 d          -3.229   3.251  14.537  0.00  0.00     0.010 A 
BRANCH  18  21
ATOM     21  S14 J71 d          -5.634   0.851  16.648  0.00  0.00     0.256 S 
ATOM     22  O15 J71 d          -5.120   0.910  17.966  0.00  0.00    -0.201 OA
ATOM     23  O16 J71 d          -7.090   0.859  16.460  0.00  0.00    -0.201 OA
BRANCH  21  24
ATOM     24  N17 J71 d          -4.920  -0.492  15.945  0.00  0.00    -0.324 N 
ATOM     25  H7  J71 d          -5.103  -1.405  16.311  0.00  0.00     0.169 HD
ATOM     26  H8  J71 d          -4.311  -0.381  15.160  0.00  0.00     0.169 HD
ENDBRANCH  21  24
ENDBRANCH  18  21
ENDBRANCH  14  15
ENDBRANCH   1  14
TORSDOF 7
