REMARK  7 active torsions:
REMARK  status: ('A' for Active; 'I' for Inactive)
REMARK    1  A    between atoms: CBC_2  and  CAN_5 
REMARK    2  A    between atoms: CAN_5  and  CAT_6 
REMARK       I    between atoms: CAT_6  and  N_8 
REMARK    3  A    between atoms: CG_10  and  OD1_11 
REMARK    4  A    between atoms: CA_13  and  C_14 
REMARK       I    between atoms: C_14  and  NAR_16 
REMARK    5  A    between atoms: NAR_16  and  CAM_17 
REMARK    6  A    between atoms: CAM_17  and  CAV_18 
REMARK    7  A    between atoms: CAX_23  and  CAY_24 
ROOT
ATOM      1  C   MOL d          12.372  53.501  89.190  0.00  0.00     0.241 C 
ATOM      2  O   MOL d          12.864  52.417  89.498  0.00  0.00    -0.271 OA
ATOM      3  NAR MOL d          11.450  53.637  88.194  0.00  0.00    -0.355 N 
ATOM      4  H   MOL d          11.092  54.544  87.974  0.00  0.00     0.162 HD
ENDROOT
BRANCH   1   5
ATOM      5  CA  MOL d          12.851  54.673  89.797  0.00  0.00     0.181 C 
ATOM      6  N   MOL d          13.263  54.511  91.242  0.00  0.00    -0.336 N 
ATOM      7  CAT MOL d          12.339  54.244  92.219  0.00  0.00     0.221 C 
ATOM      8  CD2 MOL d          14.722  54.793  91.360  0.00  0.00     0.158 C 
ATOM      9  OAE MOL d          11.142  54.089  91.966  0.00  0.00    -0.273 OA
ATOM     10  CG  MOL d          15.040  55.679  90.170  0.00  0.00     0.138 C 
ATOM     11  CB  MOL d          14.159  55.114  89.094  0.00  0.00     0.068 C 
BRANCH   7  12
ATOM     12  CAN MOL d          12.806  54.227  93.726  0.00  0.00     0.111 C 
BRANCH  12  13
ATOM     13  CBC MOL d          12.860  52.812  94.247  0.00  0.00    -0.043 C 
ATOM     14  CAB MOL d          11.436  52.187  94.260  0.00  0.00     0.015 C 
ATOM     15  CAC MOL d          13.799  51.935  93.395  0.00  0.00     0.015 C 
ATOM     16  CAD MOL d          13.363  52.896  95.717  0.00  0.00     0.015 C 
ENDBRANCH  12  13
ENDBRANCH   7  12
BRANCH  10  17
ATOM     17  OD1 MOL d          14.695  57.048  90.441  0.00  0.00    -0.394 OA
ATOM     18  H   MOL d          14.903  57.582  89.683  0.00  0.00     0.210 HD
ENDBRANCH  10  17
ENDBRANCH   1   5
BRANCH   3  19
ATOM     19  CAM MOL d          10.973  52.461  87.435  0.00  0.00     0.161 C 
BRANCH  19  20
ATOM     20  CAV MOL d          11.791  52.231  86.266  0.00  0.00    -0.040 A 
ATOM     21  CAI MOL d          11.542  51.097  85.465  0.00  0.00     0.010 A 
ATOM     22  CAK MOL d          12.311  50.806  84.327  0.00  0.00     0.015 A 
ATOM     23  CAX MOL d          13.355  51.665  83.917  0.00  0.00    -0.000 A 
ATOM     24  CAJ MOL d          13.619  52.779  84.721  0.00  0.00     0.015 A 
ATOM     25  CAH MOL d          12.846  53.065  85.870  0.00  0.00     0.010 A 
BRANCH  23  26
ATOM     26  CAY MOL d          14.132  51.441  82.831  0.00  0.00     0.111 A 
ATOM     27  OAS MOL d          15.442  51.802  82.762  0.00  0.00    -0.301 OA
ATOM     28  CAL MOL d          15.921  51.415  81.554  0.00  0.00     0.259 A 
ATOM     29  NAQ MOL d          14.948  50.838  80.875  0.00  0.00    -0.239 NA
ATOM     30  CAW MOL d          13.852  50.858  81.652  0.00  0.00     0.067 A 
ATOM     31  CAA MOL d          12.514  50.262  81.176  0.00  0.00     0.073 C 
ENDBRANCH  23  26
ENDBRANCH  19  20
ENDBRANCH   3  19
TORSDOF 7
