2qv7_ligand

Created by X-TOOL on Fri Sep 26 17:34:41 2014
 39 41  0  0  0  0  0  0  0  0999 V2000
   70.4880   42.0690   27.0210  P 0  0  0  1  0  4
   70.8080   43.5390   27.1680  O 0  0  0  1  0  1
   70.6270   41.5660   25.6060  O 0  0  0  1  0  1
   71.1460   41.1530   28.0250  O 0  0  0  1  0  1
   67.9850   40.7810   27.7640  P 0  0  0  1  0  4
   68.7400   39.5050   27.5200  O 0  0  0  1  0  1
   66.6410   40.9810   27.1110  O 0  0  0  1  0  1
   68.9060   42.0640   27.3840  O 0  0  0  1  0  2
   67.7130   40.9590   29.3380  O 0  0  0  1  0  2
   68.7080   40.7000   30.3260  C 0  0  0  3  0  4
   68.0500   40.2100   31.6140  C 0  0  0  2  0  4
   67.5430   41.3110   32.3770  O 0  0  0  1  0  2
   66.8570   39.2950   31.3610  C 0  0  0  2  0  4
   67.2400   37.9170   31.4470  O 0  0  0  2  0  2
   65.8590   39.6420   32.4460  C 0  0  0  2  0  4
   65.7960   38.5660   33.3790  O 0  0  0  2  0  2
   66.4010   40.8880   33.1350  C 0  0  0  2  0  4
   65.4110   41.9940   33.2010  N 0  0  0  1  0  3
   64.1820   42.0220   32.6460  C 0  0  0  2  0  3
   63.5550   43.1980   32.8950  N 0  0  0  1  0  2
   64.3920   43.9540   33.6230  C 0  0  0  1  0  3
   64.3600   45.3070   34.2210  C 0  0  0  1  0  3
   63.2700   46.0990   34.0770  N 0  0  0  3  0  3
   65.4530   45.7240   34.9120  N 0  0  0  1  0  2
   66.5440   44.9430   35.0540  C 0  0  0  2  0  3
   66.6380   43.7030   34.5330  N 0  0  0  1  0  2
   65.6150   43.1590   33.8240  C 0  0  0  1  0  3
   69.2668   41.6249   30.5315  H 0  0  0  1  0  1
   69.3989   39.9292   29.9539  H 0  0  0  1  0  1
   68.8047   39.6676   32.2024  H 0  0  0  1  0  1
   66.4278   39.4910   30.3674  H 0  0  0  1  0  1
   67.5832   37.7384   32.3147  H 0  0  0  1  0  1
   64.8638   39.8336   32.0185  H 0  0  0  1  0  1
   65.5207   37.7751   32.9305  H 0  0  0  1  0  1
   66.7068   40.6298   34.1596  H 0  0  0  1  0  1
   63.7488   41.2046   32.0714  H 0  0  0  1  0  1
   63.2575   47.0393   34.4971  H 0  0  0  1  0  1
   62.4539   45.7607   33.5474  H 0  0  0  1  0  1
   67.3865   45.3316   35.6146  H 0  0  0  1  0  1
  1  2  2  0  0  2
  1  3  2  0  0  2
  1  4  2  0  0  2
  8  1  1  0  0  2
  5  6  2  0  0  2
  5  7  2  0  0  2
  5  8  1  0  0  2
  5  9  1  0  0  2
  9 10  1  0  0  2
 10 11  1  0  0  2
 11 12  1  0  0  1
 11 13  1  0  0  1
 12 17  1  0  0  1
 13 14  1  0  0  2
 13 15  1  0  0  1
 15 16  1  0  0  2
 15 17  1  0  0  1
 17 18  1  0  0  2
 18 19  1  0  0  1
 18 27  1  0  0  1
 19 20  2  0  0  1
 20 21  1  0  0  1
 21 22  4  0  0  1
 21 27  4  0  0  1
 22 23  1  0  0  2
 22 24  4  0  0  1
 24 25  4  0  0  1
 25 26  4  0  0  1
 26 27  4  0  0  1
 10 28  1  0  0  2
 10 29  1  0  0  2
 11 30  1  0  0  2
 13 31  1  0  0  2
 14 32  1  0  0  2
 15 33  1  0  0  2
 16 34  1  0  0  2
 17 35  1  0  0  2
 19 36  1  0  0  2
 23 37  1  0  0  2
 23 38  1  0  0  2
 25 39  1  0  0  2
M  END
> <MOLECULAR_FORMULA>
C10H12N5O10P2

> <MOLECULAR_WEIGHT>
424.1

> <NUM_HB_ATOMS>
15 

> <NUM_ROTOR>
5  

> <XLOGP2>
-3.21

$$$$
