REMARK  7 active torsions:
REMARK  status: ('A' for Active; 'I' for Inactive)
REMARK    1  A    between atoms: CAQ_17  and  OAD_4 
REMARK    2  A    between atoms: CAL_12  and  CAK_11 
REMARK    3  A    between atoms: CAK_11  and  OAN_14 
REMARK    4  A    between atoms: CAP_16  and  CAL_12 
REMARK    5  A    between atoms: NAR_18  and  CAM_13 
REMARK    6  A    between atoms: CAM_13  and  PAS_19 
REMARK    7  A    between atoms: OAN_14  and  PAT_20 
ROOT
ATOM      1  OAA HDX d          12.238   0.302  18.704  0.00  0.00    -0.265 OA
ATOM      2  CAI HDX d          13.021   2.543  15.450  0.00  0.00     0.027 A 
ATOM      3  CAJ HDX d          14.041   1.827  16.080  0.00  0.00     0.095 A 
ATOM      4  CAO HDX d          12.463   0.998  17.679  0.00  0.00     0.281 A 
ATOM      5  CAP HDX d          11.711   2.497  15.932  0.00  0.00    -0.016 A 
ATOM      6  CAQ HDX d          11.427   1.712  17.056  0.00  0.00     0.141 A 
ATOM      7  NAR HDX d          13.791   1.071  17.165  0.00  0.00    -0.309 N 
ENDROOT
BRANCH   5   8
ATOM      8  CAL HDX d          10.647   3.306  15.206  0.00  0.00     0.068 C 
BRANCH   8   9
ATOM      9  CAK HDX d          11.094   4.762  14.980  0.00  0.00     0.187 C 
BRANCH   9  10
ATOM     10  OAN HDX d          11.588   4.953  13.637  0.00  0.00    -0.282 OA
BRANCH  10  11
ATOM     11  PAT HDX d          11.410   6.330  12.785  0.00  0.00     0.422 P 
ATOM     12  OAC HDX d          12.830   6.869  12.740  0.00  0.00    -0.617 OA
ATOM     13  OAG HDX d          10.832   5.923  11.443  0.00  0.00    -0.617 OA
ATOM     14  OAH HDX d          10.435   7.164  13.585  0.00  0.00    -0.617 OA
ENDBRANCH  10  11
ENDBRANCH   9  10
ENDBRANCH   8   9
ENDBRANCH   5   8
BRANCH   6  15
ATOM     15  OAD HDX d          10.161   1.633  17.572  0.00  0.00    -0.355 OA
ATOM     16  H1  HDX d           9.573   2.165  17.049  0.00  0.00     0.218 HD
ENDBRANCH   6  15
BRANCH   7  17
ATOM     17  CAM HDX d          14.841   0.315  17.836  0.00  0.00     0.277 C 
BRANCH  17  18
ATOM     18  PAS HDX d          16.492   0.486  17.153  0.00  0.00     0.278 P 
ATOM     19  OAB HDX d          16.491  -0.261  15.838  0.00  0.00    -0.638 OA
ATOM     20  OAE HDX d          16.836   1.943  16.998  0.00  0.00    -0.638 OA
ATOM     21  OAF HDX d          17.341  -0.238  18.195  0.00  0.00    -0.638 OA
ENDBRANCH  17  18
ENDBRANCH   7  17
TORSDOF 7
