REMARK  4 active torsions:
REMARK  status: ('A' for Active; 'I' for Inactive)
REMARK    1  A    between atoms: C1_1  and  C2_4 
REMARK    2  A    between atoms: C2_4  and  O2_5 
REMARK    3  A    between atoms: C2_4  and  C3_6 
REMARK    4  A    between atoms: C3_6  and  C1'_7 
ROOT
ATOM      1  C3  LOF d          -2.697  30.808  -9.604  0.00  0.00     0.081 C 
ENDROOT
BRANCH   1   2
ATOM      2  C2  LOF d          -2.496  29.735  -8.525  0.00  0.00     0.223 C 
BRANCH   2   3
ATOM      3  C1  LOF d          -1.016  29.492  -8.258  0.00  0.00     0.203 C 
ATOM      4  O11 LOF d          -0.240  30.337  -7.757  0.00  0.00    -0.646 OA
ATOM      5  O12 LOF d          -0.737  28.352  -8.692  0.00  0.00    -0.646 OA
ENDBRANCH   2   3
BRANCH   2   6
ATOM      6  O2  LOF d          -3.143  29.951  -7.521  0.00  0.00    -0.385 OA
ATOM      7  H2  LOF d          -4.052  30.093  -7.756  0.00  0.00     0.210 HD
ENDBRANCH   2   6
ENDBRANCH   1   2
BRANCH   1   8
ATOM      8  C1' LOF d          -2.478  30.181 -10.942  0.00  0.00    -0.055 A 
ATOM      9  C2' LOF d          -1.230  30.390 -11.576  0.00  0.00     0.007 A 
ATOM     10  C3' LOF d          -0.948  29.873 -12.854  0.00  0.00     0.001 A 
ATOM     11  C4' LOF d          -1.896  29.108 -13.544  0.00  0.00     0.000 A 
ATOM     12  C5' LOF d          -3.143  28.879 -12.939  0.00  0.00     0.001 A 
ATOM     13  C6' LOF d          -3.409  29.429 -11.685  0.00  0.00     0.007 A 
ENDBRANCH   1   8
TORSDOF 4
