REMARK  2 active torsions:
REMARK  status: ('A' for Active; 'I' for Inactive)
REMARK    1  A    between atoms: C2_2  and  C7_7 
REMARK    2  A    between atoms: C3_3  and  C8_10 
ROOT
ATOM      1  N1  NTM d         -26.365  14.292  -7.288  0.00  0.00    -0.253 NA
ATOM      2  C2  NTM d         -25.536  13.237  -7.274  0.00  0.00     0.149 A 
ATOM      3  C3  NTM d         -25.872  12.107  -6.529  0.00  0.00     0.076 A 
ATOM      4  C4  NTM d         -27.058  12.112  -5.801  0.00  0.00     0.022 A 
ATOM      5  C5  NTM d         -27.887  13.228  -5.839  0.00  0.00     0.020 A 
ATOM      6  C6  NTM d         -27.501  14.320  -6.611  0.00  0.00     0.117 A 
ENDROOT
BRANCH   2   7
ATOM      7  C7  NTM d         -24.197  13.353  -8.007  0.00  0.00     0.230 C 
ATOM      8  O1  NTM d         -24.197  13.886  -9.137  0.00  0.00    -0.643 OA
ATOM      9  O2  NTM d         -23.166  12.960  -7.420  0.00  0.00    -0.643 OA
ENDBRANCH   2   7
BRANCH   3  10
ATOM     10  C8  NTM d         -25.036  10.827  -6.570  0.00  0.00     0.212 C 
ATOM     11  O3  NTM d         -24.419  10.556  -7.623  0.00  0.00    -0.644 OA
ATOM     12  O4  NTM d         -24.997  10.125  -5.536  0.00  0.00    -0.644 OA
ENDBRANCH   3  10
TORSDOF 2
