REMARK  1 active torsions:
REMARK  status: ('A' for Active; 'I' for Inactive)
REMARK    1  A    between atoms: C7_7  and  C10_10 
ROOT
ATOM      1  C1  MOL d           9.528  34.782  29.123  0.00  0.00     0.043 A 
ATOM      2  C2  MOL d           9.401  34.411  27.772  0.00  0.00    -0.005 A 
ATOM      3  N3  MOL d           9.178  36.113  29.233  0.00  0.00    -0.350 N 
ATOM      4  C4  MOL d           9.897  33.863  30.100  0.00  0.00     0.032 A 
ATOM      5  C5  MOL d           8.974  35.584  27.064  0.00  0.00     0.050 A 
ATOM      6  C6  MOL d           9.622  33.085  27.418  0.00  0.00     0.037 A 
ATOM      7  C7  MOL d           8.831  36.588  27.984  0.00  0.00     0.111 A 
ATOM      8  C8  MOL d          10.103  32.536  29.728  0.00  0.00     0.026 A 
ATOM      9  C9  MOL d           9.952  32.167  28.399  0.00  0.00     0.035 A 
ATOM     10 CL   MOL d          10.128  30.490  27.958  0.00  0.00    -0.084 Cl
ATOM     11  H1  MOL d           9.176  36.662  30.105  0.00  0.00     0.166 HD
ENDROOT
BRANCH   7  12
ATOM     12  C10 MOL d           8.415  38.003  27.863  0.00  0.00     0.226 C 
ATOM     13  O12 MOL d           8.246  38.423  26.633  0.00  0.00    -0.643 OA
ATOM     14  O13 MOL d           8.191  38.693  28.859  0.00  0.00    -0.643 OA
ENDBRANCH   7  12
TORSDOF 1
