REMARK  20 active torsions:
REMARK  status: ('A' for Active; 'I' for Inactive)
REMARK    1  A    between atoms: C1_2  and  O1_4 
REMARK    2  A    between atoms: C2_5  and  C1_2 
REMARK    3  A    between atoms: C1_2  and  C7_19 
REMARK    4  A    between atoms: C1_2  and  C25_37 
REMARK       I    between atoms: N1_3  and  C2_5 
REMARK    5  A    between atoms: C3_8  and  N1_3 
REMARK    6  A    between atoms: N2_6  and  N3_9 
REMARK    7  A    between atoms: C9_21  and  N2_6 
REMARK    8  A    between atoms: N2_6  and  C10_22 
REMARK    9  A    between atoms: C3_8  and  C4_11 
REMARK   10  A    between atoms: C34_45  and  C3_8 
REMARK       I    between atoms: N3_9  and  C12_24 
REMARK   11  A    between atoms: C13_25  and  N4_12 
REMARK       I    between atoms: N4_12  and  C18_30 
REMARK       I    between atoms: N5_15  and  C34_45 
REMARK   12  A    between atoms: C37_48  and  N5_15 
REMARK   13  A    between atoms: C18_30  and  O5_16 
REMARK   14  A    between atoms: C7_19  and  C8_20 
REMARK   15  A    between atoms: C8_20  and  C9_21 
REMARK   16  A    between atoms: C10_22  and  C11_23 
REMARK   17  A    between atoms: C12_24  and  C13_25 
REMARK   18  A    between atoms: C13_25  and  C14_26 
REMARK   19  A    between atoms: C25_37  and  C26_38 
REMARK   20  A    between atoms: C36_47  and  C37_48 
ROOT
ATOM      1  C7  EQM d          13.178  23.500   5.247  0.00  0.00     0.050 C 
ENDROOT
BRANCH   1   2
ATOM      2  C1  EQM d          11.970  24.258   4.670  0.00  0.00     0.142 C 
BRANCH   2   3
ATOM      3  O1  EQM d          12.376  25.598   4.357  0.00  0.00    -0.380 OA
ATOM      4  H2  EQM d          13.104  25.573   3.747  0.00  0.00     0.211 HD
ENDBRANCH   2   3
BRANCH   2   5
ATOM      5  C2  EQM d          10.891  24.318   5.574  0.00  0.00     0.253 C 
ATOM      6  N1  EQM d          10.208  25.534   5.717  0.00  0.00    -0.344 N 
ATOM      7  H1  EQM d          10.649  26.370   5.390  0.00  0.00     0.163 HD
ATOM      8  O2  EQM d          10.424  23.307   6.105  0.00  0.00    -0.270 OA
BRANCH   6   9
ATOM      9  C3  EQM d           8.860  25.637   6.332  0.00  0.00     0.184 C 
BRANCH   9  10
ATOM     10  C4  EQM d           8.958  26.135   7.784  0.00  0.00    -0.022 C 
ATOM     11  C5  EQM d           9.735  27.453   7.843  0.00  0.00     0.017 C 
ATOM     12  C6  EQM d           7.545  26.367   8.319  0.00  0.00     0.017 C 
ATOM     13  C35 EQM d           9.663  25.091   8.651  0.00  0.00     0.017 C 
ENDBRANCH   9  10
BRANCH   9  14
ATOM     14  C34 EQM d           8.018  26.478   5.576  0.00  0.00     0.241 C 
ATOM     15  N5  EQM d           6.789  26.001   5.114  0.00  0.00    -0.356 N 
ATOM     16  H10 EQM d           6.483  25.081   5.357  0.00  0.00     0.162 HD
ATOM     17  O6  EQM d           8.338  27.626   5.256  0.00  0.00    -0.271 OA
BRANCH  15  18
ATOM     18  C37 EQM d           5.941  26.869   4.260  0.00  0.00     0.149 C 
BRANCH  18  19
ATOM     19  C36 EQM d           5.188  26.093   3.381  0.00  0.00    -0.018 C 
ATOM     20  C33 EQM d           5.803  25.349   2.379  0.00  0.00     0.008 C 
ENDBRANCH  18  19
ENDBRANCH  15  18
ENDBRANCH   9  14
ENDBRANCH   6   9
ENDBRANCH   2   5
BRANCH   2  21
ATOM     21  C25 EQM d          11.551  23.548   3.368  0.00  0.00     0.086 C 
BRANCH  21  22
ATOM     22  C26 EQM d          10.263  23.910   2.983  0.00  0.00    -0.055 A 
ATOM     23  C27 EQM d          10.047  25.102   2.301  0.00  0.00     0.007 A 
ATOM     24  C28 EQM d           8.757  25.462   1.924  0.00  0.00     0.001 A 
ATOM     25  C29 EQM d           7.687  24.623   2.216  0.00  0.00     0.000 A 
ATOM     26  C30 EQM d           7.909  23.420   2.877  0.00  0.00     0.001 A 
ATOM     27  C31 EQM d           9.203  23.041   3.214  0.00  0.00     0.007 A 
ENDBRANCH  21  22
ENDBRANCH   2  21
ENDBRANCH   1   2
BRANCH   1  28
ATOM     28  C8  EQM d          13.678  24.127   6.555  0.00  0.00     0.033 C 
BRANCH  28  29
ATOM     29  C9  EQM d          15.136  23.712   6.820  0.00  0.00     0.263 C 
BRANCH  29  30
ATOM     30  N2  EQM d          15.278  22.282   7.152  0.00  0.00     0.015 N 
ATOM     31  H3  EQM d          14.374  21.882   7.351  0.00  0.00     0.309 HD
BRANCH  30  32
ATOM     32  N3  EQM d          15.802  21.689   6.198  0.00  0.00    -0.185 N 
ATOM     33  C12 EQM d          15.134  20.669   5.616  0.00  0.00     0.265 C 
ATOM     34  O3  EQM d          14.002  20.311   5.953  0.00  0.00    -0.269 OA
ATOM     35  H5  EQM d          16.705  21.961   5.864  0.00  0.00     0.197 HD
BRANCH  33  36
ATOM     36  C13 EQM d          16.027  19.764   4.748  0.00  0.00     0.188 C 
BRANCH  36  37
ATOM     37  N4  EQM d          16.703  18.756   5.576  0.00  0.00    -0.323 N 
ATOM     38  C18 EQM d          18.037  18.781   5.750  0.00  0.00     0.360 C 
ATOM     39  O4  EQM d          18.731  19.533   5.051  0.00  0.00    -0.239 OA
ATOM     40  H6  EQM d          16.163  18.040   6.018  0.00  0.00     0.165 HD
BRANCH  38  41
ATOM     41  O5  EQM d          18.631  17.780   6.469  0.00  0.00    -0.309 OA
ATOM     42  C19 EQM d          19.914  18.204   6.941  0.00  0.00     0.215 C 
ENDBRANCH  38  41
ENDBRANCH  36  37
BRANCH  36  43
ATOM     43  C14 EQM d          15.276  19.082   3.602  0.00  0.00    -0.022 C 
ATOM     44  C15 EQM d          16.299  18.509   2.619  0.00  0.00     0.017 C 
ATOM     45  C16 EQM d          14.410  17.939   4.141  0.00  0.00     0.017 C 
ATOM     46  C17 EQM d          14.387  20.094   2.878  0.00  0.00     0.017 C 
ENDBRANCH  36  43
ENDBRANCH  33  36
ENDBRANCH  30  32
BRANCH  30  47
ATOM     47  C10 EQM d          16.158  22.164   8.333  0.00  0.00     0.301 C 
BRANCH  47  48
ATOM     48  C11 EQM d          16.230  20.856   8.820  0.00  0.00    -0.030 A 
ATOM     49  C20 EQM d          15.086  20.235   9.306  0.00  0.00     0.010 A 
ATOM     50  C21 EQM d          15.159  18.946   9.824  0.00  0.00     0.019 A 
ATOM     51  C22 EQM d          16.388  18.311   9.957  0.00  0.00     0.011 A 
ATOM     52 BR   EQM d          16.479  16.593  10.775  0.00  0.00    -0.051 Br
ATOM     53  C23 EQM d          17.548  18.975   9.573  0.00  0.00     0.019 A 
ATOM     54  C24 EQM d          17.467  20.243   8.997  0.00  0.00     0.010 A 
ENDBRANCH  47  48
ENDBRANCH  30  47
ENDBRANCH  29  30
ENDBRANCH  28  29
ENDBRANCH   1  28
TORSDOF 20
