REMARK  14 active torsions:
REMARK  status: ('A' for Active; 'I' for Inactive)
REMARK    1  A    between atoms: C25_1  and  O27_3 
REMARK       I    between atoms: N24_9  and  C25_1 
REMARK    2  A    between atoms: O27_3  and  C28_4 
REMARK    3  A    between atoms: C19_10  and  N24_9 
REMARK    4  A    between atoms: C19_10  and  C20_11 
REMARK    5  A    between atoms: C17_15  and  C19_10 
REMARK       I    between atoms: N16_23  and  C17_15 
REMARK    6  A    between atoms: C12_19  and  C10_17 
REMARK       I    between atoms: C10_17  and  N9_48 
REMARK    7  A    between atoms: C14_21  and  O33_24 
REMARK    8  A    between atoms: O33_24  and  C34_25 
REMARK    9  A    between atoms: C42_33  and  O45_35 
REMARK   10  A    between atoms: C50_40  and  N52_42 
REMARK       I    between atoms: N52_42  and  C53_43 
REMARK   11  A    between atoms: C53_43  and  C55_45 
REMARK   12  A    between atoms: N9_48  and  C4_49 
REMARK   13  A    between atoms: C4_49  and  C2_54 
REMARK   14  A    between atoms: C6_50  and  C7_52 
ROOT
ATOM      1  C17 L5T d          41.152  46.401   8.875  0.00  0.00     0.244 C 
ATOM      2  O18 L5T d          42.365  46.178   8.741  0.00  0.00    -0.271 OA
ATOM      3  C12 L5T d          41.269  47.912   6.878  0.00  0.00     0.181 C 
ATOM      4  C13 L5T d          40.210  48.775   6.153  0.00  0.00     0.069 C 
ATOM      5  C14 L5T d          38.890  48.051   6.426  0.00  0.00     0.149 C 
ATOM      6  C15 L5T d          39.092  47.652   7.888  0.00  0.00     0.159 C 
ATOM      7  N16 L5T d          40.512  47.268   7.969  0.00  0.00    -0.334 N 
ENDROOT
BRANCH   5   8
ATOM      8  O33 L5T d          38.864  46.810   5.631  0.00  0.00    -0.343 OA
BRANCH   8   9
ATOM      9  C34 L5T d          38.313  46.800   4.322  0.00  0.00     0.084 A 
ATOM     10  C35 L5T d          37.645  48.029   3.809  0.00  0.00     0.071 A 
ATOM     11  C36 L5T d          37.100  48.038   2.544  0.00  0.00     0.089 A 
ATOM     12  N37 L5T d          37.179  46.868   1.775  0.00  0.00    -0.246 NA
ATOM     13  C47 L5T d          36.446  49.195   2.007  0.00  0.00     0.095 A 
ATOM     14  C38 L5T d          37.781  45.665   2.158  0.00  0.00     0.073 A 
ATOM     15  C39 L5T d          38.374  45.656   3.545  0.00  0.00     0.026 A 
ATOM     16  C43 L5T d          37.823  44.550   1.375  0.00  0.00     0.069 A 
ATOM     17  C40 L5T d          39.040  44.384   4.034  0.00  0.00     0.019 A 
ATOM     18  C41 L5T d          39.018  43.221   3.060  0.00  0.00     0.038 A 
ATOM     19  C42 L5T d          38.456  43.287   1.814  0.00  0.00     0.070 A 
ATOM     20  C48 L5T d          35.945  49.303   0.721  0.00  0.00     0.087 A 
ATOM     21  N51 L5T d          36.272  50.309   2.806  0.00  0.00    -0.222 NA
ATOM     22  S49 L5T d          35.232  50.832   0.520  0.00  0.00    -0.061 SA
ATOM     23  C50 L5T d          35.651  51.247   2.133  0.00  0.00     0.173 A 
BRANCH  19  24
ATOM     24  O45 L5T d          38.388  42.252   0.838  0.00  0.00    -0.356 OA
ATOM     25  C46 L5T d          38.955  40.957   1.123  0.00  0.00     0.210 C 
ENDBRANCH  19  24
BRANCH  23  26
ATOM     26  N52 L5T d          35.347  52.457   2.726  0.00  0.00    -0.305 N 
ATOM     27  C53 L5T d          34.413  53.372   2.269  0.00  0.00     0.227 C 
ATOM     28  O54 L5T d          33.742  53.186   1.243  0.00  0.00    -0.273 OA
ATOM     29  H35 L5T d          35.846  52.694   3.560  0.00  0.00     0.171 HD
BRANCH  27  30
ATOM     30  C55 L5T d          34.298  54.633   3.171  0.00  0.00     0.070 C 
ATOM     31  C56 L5T d          32.867  54.831   3.703  0.00  0.00     0.019 C 
ATOM     32  C57 L5T d          34.780  55.889   2.427  0.00  0.00     0.019 C 
ENDBRANCH  27  30
ENDBRANCH  23  26
ENDBRANCH   8   9
ENDBRANCH   5   8
BRANCH   3  33
ATOM     33  C10 L5T d          42.412  48.825   7.393  0.00  0.00     0.241 C 
ATOM     34  O11 L5T d          42.269  49.559   8.366  0.00  0.00    -0.271 OA
ATOM     35  N9  L5T d          43.590  48.682   6.684  0.00  0.00    -0.340 N 
ATOM     36  H43 L5T d          43.544  48.325   5.751  0.00  0.00     0.163 HD
BRANCH  35  37
ATOM     37  C4  L5T d          44.901  49.028   7.235  0.00  0.00     0.129 A 
ATOM     38  C6  L5T d          45.482  48.050   8.287  0.00  0.00     0.049 A 
ATOM     39  C5  L5T d          46.075  48.090   6.911  0.00  0.00     0.054 A 
BRANCH  38  40
ATOM     40  C7  L5T d          46.269  48.451   9.451  0.00  0.00    -0.029 C 
ATOM     41  C8  L5T d          45.840  48.380  10.721  0.00  0.00     0.007 C 
ENDBRANCH  38  40
BRANCH  37  42
ATOM     42  C2  L5T d          45.237  50.536   7.194  0.00  0.00     0.203 C 
ATOM     43  O1  L5T d          44.361  51.329   6.700  0.00  0.00    -0.646 OA
ATOM     44  O3  L5T d          46.348  50.947   7.617  0.00  0.00    -0.646 OA
ENDBRANCH  37  42
ENDBRANCH  35  37
ENDBRANCH   3  33
BRANCH   1  45
ATOM     45  C19 L5T d          40.331  45.744  10.027  0.00  0.00     0.186 C 
BRANCH  45  46
ATOM     46  N24 L5T d          40.356  44.298   9.841  0.00  0.00    -0.323 N 
ATOM     47  C25 L5T d          39.391  43.649   9.159  0.00  0.00     0.361 C 
ATOM     48  O26 L5T d          38.425  44.198   8.631  0.00  0.00    -0.238 OA
ATOM     49  H10 L5T d          41.112  43.772  10.231  0.00  0.00     0.165 HD
BRANCH  47  50
ATOM     50  O27 L5T d          39.641  42.307   9.143  0.00  0.00    -0.299 OA
BRANCH  50  51
ATOM     51  C28 L5T d          40.203  41.823   7.924  0.00  0.00     0.133 C 
ATOM     52  C29 L5T d          39.186  41.417   6.879  0.00  0.00     0.032 C 
ATOM     53  C30 L5T d          40.013  40.570   5.924  0.00  0.00     0.002 C 
ATOM     54  C31 L5T d          41.151  40.021   6.764  0.00  0.00     0.002 C 
ATOM     55  C32 L5T d          40.866  40.488   8.176  0.00  0.00     0.032 C 
ENDBRANCH  50  51
ENDBRANCH  47  50
ENDBRANCH  45  46
BRANCH  45  56
ATOM     56  C20 L5T d          40.698  46.238  11.489  0.00  0.00    -0.022 C 
ATOM     57  C21 L5T d          40.329  47.738  11.641  0.00  0.00     0.017 C 
ATOM     58  C22 L5T d          42.191  46.046  11.871  0.00  0.00     0.017 C 
ATOM     59  C23 L5T d          39.847  45.459  12.529  0.00  0.00     0.017 C 
ENDBRANCH  45  56
ENDBRANCH   1  45
TORSDOF 14
