REMARK  1 active torsions:
REMARK  status: ('A' for Active; 'I' for Inactive)
REMARK    1  A    between atoms: C17_17  and  O97_21 
ROOT
ATOM      1  C1  R18 d          27.273   5.328   3.712  0.00  0.00     0.047 C 
ATOM      2  C2  R18 d          26.451   6.542   4.134  0.00  0.00     0.087 C 
ATOM      3  C3  R18 d          24.963   6.408   3.961  0.00  0.00     0.150 C 
ATOM      4  C4  R18 d          24.402   5.107   4.298  0.00  0.00     0.057 C 
ATOM      5  C5  R18 d          25.131   3.947   4.372  0.00  0.00    -0.048 C 
ATOM      6  C6  R18 d          24.433   2.611   4.748  0.00  0.00     0.040 C 
ATOM      7  C7  R18 d          25.175   1.449   4.073  0.00  0.00     0.014 C 
ATOM      8  C8  R18 d          26.655   1.430   4.497  0.00  0.00     0.025 C 
ATOM      9  C9  R18 d          27.336   2.801   4.146  0.00  0.00    -0.047 C 
ATOM     10  C10 R18 d          26.622   3.942   4.068  0.00  0.00    -0.045 C 
ATOM     11  C11 R18 d          28.810   2.746   3.939  0.00  0.00     0.005 C 
ATOM     12  C12 R18 d          29.553   1.624   4.018  0.00  0.00    -0.014 C 
ATOM     13  C13 R18 d          28.948   0.264   4.311  0.00  0.00     0.009 C 
ATOM     14  C14 R18 d          27.461   0.261   3.845  0.00  0.00     0.009 C 
ATOM     15  C15 R18 d          26.934  -1.180   4.140  0.00  0.00     0.009 C 
ATOM     16  C16 R18 d          28.241  -1.974   3.851  0.00  0.00     0.039 C 
ATOM     17  C17 R18 d          29.428  -0.966   3.520  0.00  0.00     0.065 C 
ATOM     18  C18 R18 d          29.006   0.031   5.884  0.00  0.00     0.023 C 
ATOM     19  C27 R18 d          29.475  -0.798   2.021  0.00  0.00     0.047 C 
ATOM     20  O83 R18 d          24.247   7.352   3.627  0.00  0.00    -0.293 OA
ENDROOT
BRANCH  17  21
ATOM     21  O97 R18 d          30.633  -1.556   4.060  0.00  0.00    -0.389 OA
ATOM     22  H24 R18 d          31.371  -0.984   3.884  0.00  0.00     0.210 HD
ENDBRANCH  17  21
TORSDOF 1
