REMARK  6 active torsions:
REMARK  status: ('A' for Active; 'I' for Inactive)
REMARK    1  A    between atoms: N1_1  and  S1_2 
REMARK    2  A    between atoms: S1_2  and  C1_5 
REMARK    3  A    between atoms: C4_9  and  N2_10 
REMARK    4  A    between atoms: N2_10  and  C5_11 
REMARK    5  A    between atoms: C5_11  and  C6_12 
REMARK    6  A    between atoms: C10_17  and  C12_19 
ROOT
ATOM      1  C1  FUN d         -11.494 -16.486   7.155  0.00  0.00     0.102 A 
ATOM      2  C2  FUN d         -11.484 -15.415   6.267  0.00  0.00     0.059 A 
ATOM      3 CL1  FUN d         -12.970 -14.651   5.637  0.00  0.00    -0.083 Cl
ATOM      4  C3  FUN d         -10.295 -14.855   5.813  0.00  0.00     0.055 A 
ATOM      5  C4  FUN d          -9.059 -15.352   6.226  0.00  0.00     0.047 A 
ATOM      6  C10 FUN d          -9.043 -16.434   7.121  0.00  0.00     0.068 A 
ATOM      7  C11 FUN d         -10.256 -16.981   7.565  0.00  0.00     0.047 A 
ENDROOT
BRANCH   5   8
ATOM      8  N2  FUN d          -7.899 -14.794   5.784  0.00  0.00    -0.383 N 
ATOM      9  H4  FUN d          -7.015 -15.231   6.081  0.00  0.00     0.160 HD
BRANCH   8  10
ATOM     10  C5  FUN d          -7.817 -13.625   4.922  0.00  0.00     0.184 C 
BRANCH  10  11
ATOM     11  C6  FUN d          -7.926 -13.963   3.453  0.00  0.00     0.070 A 
ATOM     12  C7  FUN d          -8.378 -15.148   2.890  0.00  0.00     0.036 A 
ATOM     13  C8  FUN d          -8.317 -15.025   1.516  0.00  0.00     0.027 A 
ATOM     14  C9  FUN d          -7.831 -13.769   1.232  0.00  0.00     0.142 A 
ATOM     15  O3  FUN d          -7.596 -13.122   2.426  0.00  0.00    -0.325 OA
ENDBRANCH  10  11
ENDBRANCH   8  10
ENDBRANCH   5   8
BRANCH   6  16
ATOM     16  C12 FUN d          -7.760 -17.017   7.654  0.00  0.00     0.211 C 
ATOM     17  O4  FUN d          -7.781 -17.817   8.633  0.00  0.00    -0.644 OA
ATOM     18  O5  FUN d          -6.677 -16.644   7.150  0.00  0.00    -0.644 OA
ENDBRANCH   6  16
BRANCH   1  19
ATOM     19  S1  FUN d         -12.868 -17.160   7.704  0.00  0.00     0.258 S 
ATOM     20  O1  FUN d         -12.582 -18.434   8.389  0.00  0.00    -0.201 OA
ATOM     21  O2  FUN d         -13.829 -17.308   6.602  0.00  0.00    -0.201 OA
BRANCH  19  22
ATOM     22  N1  FUN d         -13.455 -16.224   8.770  0.00  0.00    -0.324 N 
ATOM     23  H1  FUN d         -12.929 -16.013   9.594  0.00  0.00     0.169 HD
ATOM     24  H2  FUN d         -14.363 -15.826   8.640  0.00  0.00     0.169 HD
ENDBRANCH  19  22
ENDBRANCH   1  19
TORSDOF 6
