REMARK  6 active torsions:
REMARK  status: ('A' for Active; 'I' for Inactive)
REMARK    1  A    between atoms: C8_3  and  C9_4 
REMARK    2  A    between atoms: C3_9  and  C2_10 
REMARK    3  A    between atoms: C2_10  and  N1_11 
REMARK    4  A    between atoms: N1_11  and  S13_12 
REMARK    5  A    between atoms: S13_12  and  C15_15 
REMARK    6  A    between atoms: C18_19  and  C21_20 
ROOT
ATOM      1  N1  18U d          80.152   4.399  30.831  0.00  0.00    -0.311 N 
ATOM      2  H   18U d          80.068   3.404  30.881  0.00  0.00     0.172 HD
ENDROOT
BRANCH   1   3
ATOM      3  C2  18U d          81.424   5.159  30.939  0.00  0.00     0.170 C 
BRANCH   3   4
ATOM      4  C3  18U d          82.145   4.830  32.252  0.00  0.00    -0.040 A 
ATOM      5  C4  18U d          81.441   4.340  33.364  0.00  0.00     0.010 A 
ATOM      6  C6  18U d          82.121   4.051  34.550  0.00  0.00     0.019 A 
ATOM      7  C8  18U d          83.506   4.248  34.617  0.00  0.00     0.040 A 
ATOM      8  C7  18U d          84.201   4.738  33.506  0.00  0.00     0.019 A 
ATOM      9  C5  18U d          83.532   5.029  32.316  0.00  0.00     0.010 A 
BRANCH   7  10
ATOM     10  C9  18U d          84.308   3.922  35.879  0.00  0.00     0.209 C 
ATOM     11  O10 18U d          85.343   3.286  35.668  0.00  0.00    -0.644 OA
ATOM     12  O11 18U d          83.925   4.248  37.019  0.00  0.00    -0.644 OA
ENDBRANCH   7  10
ENDBRANCH   3   4
ENDBRANCH   1   3
BRANCH   1  13
ATOM     13  S13 18U d          78.900   5.449  30.616  0.00  0.00     0.260 S 
ATOM     14  O16 18U d          77.592   4.715  30.684  0.00  0.00    -0.200 OA
ATOM     15  O17 18U d          78.990   6.497  31.699  0.00  0.00    -0.200 OA
BRANCH  13  16
ATOM     16  C15 18U d          79.099   6.235  29.070  0.00  0.00     0.103 A 
ATOM     17  C19 18U d          79.153   7.577  28.986  0.00  0.00     0.034 A 
ATOM     18  C22 18U d          79.312   8.079  27.754  0.00  0.00     0.052 A 
ATOM     19  S20 18U d          79.381   6.772  26.668  0.00  0.00    -0.094 SA
ATOM     20  C18 18U d          79.223   5.590  27.842  0.00  0.00     0.104 A 
BRANCH  20  21
ATOM     21  C21 18U d          79.224   4.112  27.484  0.00  0.00     0.218 C 
ATOM     22  O24 18U d          78.977   3.268  28.361  0.00  0.00    -0.643 OA
ATOM     23  O23 18U d          79.463   3.855  26.279  0.00  0.00    -0.643 OA
ENDBRANCH  20  21
ENDBRANCH  13  16
ENDBRANCH   1  13
TORSDOF 6
