REMARK  4 active torsions:
REMARK  status: ('A' for Active; 'I' for Inactive)
REMARK    1  A    between atoms: C12_12  and  N1_1 
REMARK    2  A    between atoms: C6_6  and  C11_11 
REMARK    3  A    between atoms: C6_6  and  C12_12 
REMARK    4  A    between atoms: C17_17  and  O20_20 
ROOT
ATOM      1  N4  MOL d           7.598  11.154  23.560  0.00  0.00    -0.277 N 
ATOM      2  C5  MOL d           7.316  10.289  22.531  0.00  0.00     0.260 A 
ATOM      3  C6  MOL d           5.777  10.054  22.524  0.00  0.00     0.161 A 
ATOM      4  N7  MOL d           5.360  10.980  23.612  0.00  0.00    -0.319 N 
ATOM      5  C8  MOL d           6.409  11.621  24.181  0.00  0.00     0.324 A 
ATOM      6  O9  MOL d           6.308  12.511  25.016  0.00  0.00    -0.247 OA
ATOM      7  O10 MOL d           8.131   9.635  21.794  0.00  0.00    -0.270 OA
ATOM      8  H2  MOL d           8.521  11.421  23.836  0.00  0.00     0.173 HD
ATOM      9  H3  MOL d           4.410  11.114  23.892  0.00  0.00     0.166 HD
ENDROOT
BRANCH   3  10
ATOM     10  C11 MOL d           5.089  10.501  21.221  0.00  0.00    -0.019 A 
ATOM     11  C22 MOL d           5.707  11.486  20.348  0.00  0.00     0.010 A 
ATOM     12  C23 MOL d           5.048  11.841  19.132  0.00  0.00     0.001 A 
ATOM     13  C24 MOL d           3.804  11.251  18.789  0.00  0.00     0.000 A 
ATOM     14  C25 MOL d           3.194  10.303  19.629  0.00  0.00     0.001 A 
ATOM     15  C26 MOL d           3.825   9.935  20.842  0.00  0.00     0.010 A 
ENDBRANCH   3  10
BRANCH   3  16
ATOM     16  C12 MOL d           5.593   8.526  22.837  0.00  0.00     0.199 C 
BRANCH  16  17
ATOM     17  N1  MOL d           6.158   8.344  24.159  0.00  0.00    -0.253 N 
ATOM     18  N2  MOL d           7.538   8.264  24.353  0.00  0.00    -0.295 N 
ATOM     19  C14 MOL d           7.649   8.239  25.725  0.00  0.00     0.064 A 
ATOM     20  H1  MOL d           8.286   8.232  23.646  0.00  0.00     0.187 HD
ATOM     21  C13 MOL d           6.411   8.309  26.358  0.00  0.00     0.064 A 
ATOM     22  C15 MOL d           8.858   8.137  26.423  0.00  0.00     0.035 A 
ATOM     23  C3  MOL d           5.424   8.370  25.298  0.00  0.00     0.274 A 
ATOM     24  C18 MOL d           6.287   8.295  27.706  0.00  0.00     0.056 A 
ATOM     25  O19 MOL d           4.202   8.424  25.387  0.00  0.00    -0.266 OA
ATOM     26  C17 MOL d           7.474   8.201  28.410  0.00  0.00     0.069 A 
ATOM     27  C16 MOL d           8.756   8.118  27.771  0.00  0.00     0.039 A 
BRANCH  26  28
ATOM     28  O20 MOL d           7.297   8.194  29.726  0.00  0.00    -0.356 OA
ATOM     29  C21 MOL d           8.525   8.072  30.533  0.00  0.00     0.210 C 
ENDBRANCH  26  28
ENDBRANCH  16  17
ENDBRANCH   3  16
TORSDOF 4
