REMARK  2 active torsions:
REMARK  status: ('A' for Active; 'I' for Inactive)
REMARK    1  A    between atoms: C12_13  and  C14_5 
REMARK    2  A    between atoms: C8_9  and  C7_15 
ROOT
ATOM      1  C1  T21 d          13.460  -5.990   0.346  0.00  0.00     0.093 A 
ATOM      2  fur T21 d          12.149  -5.366  -3.542  0.00  0.00     0.057 A 
ATOM      3  fur T21 d          12.725  -6.919  -0.385  0.00  0.00     0.055 A 
ATOM      4  C3  T21 d          12.699  -5.359  -2.215  0.00  0.00     0.054 A 
ATOM      5  C7  T21 d          11.520  -6.623  -3.644  0.00  0.00     0.087 A 
ATOM      6  C2  T21 d          13.433  -4.462  -1.451  0.00  0.00     0.192 A 
ATOM      7  O2  T21 d          13.786  -3.250  -1.963  0.00  0.00    -0.171 OA
ATOM      8  N   T21 d          13.793  -4.803  -0.190  0.00  0.00    -0.344 N 
ATOM      9  O1  T21 d          11.675  -7.252  -2.555  0.00  0.00    -0.309 OA
ATOM     10  C4  T21 d          12.364  -6.557  -1.672  0.00  0.00     0.092 A 
ATOM     11  H8  T21 d          14.321  -4.154   0.357  0.00  0.00     0.167 HD
ENDROOT
BRANCH   5  12
ATOM     12  C8  T21 d          10.790  -7.131  -4.840  0.00  0.00    -0.002 A 
ATOM     13  C9  T21 d          10.411  -6.252  -5.848  0.00  0.00     0.014 A 
ATOM     14  C10 T21 d           9.730  -6.725  -6.963  0.00  0.00     0.002 A 
ATOM     15  C11 T21 d           9.428  -8.078  -7.071  0.00  0.00     0.016 A 
ATOM     16  C12 T21 d           9.807  -8.957  -6.063  0.00  0.00     0.048 A 
ATOM     17  C13 T21 d          10.488  -8.484  -4.947  0.00  0.00     0.030 A 
BRANCH  16  18
ATOM     18  C14 T21 d           9.481 -10.416  -6.179  0.00  0.00     0.417 C 
ATOM     19  F3  T21 d           9.349 -10.738  -7.453  0.00  0.00    -0.166 F 
ATOM     20  F1  T21 d           8.352 -10.667  -5.543  0.00  0.00    -0.166 F 
ATOM     21  F2  T21 d          10.455 -11.129  -5.644  0.00  0.00    -0.166 F 
ENDBRANCH  16  18
ENDBRANCH   5  12
TORSDOF 2
