REMARK  5 active torsions:
REMARK  status: ('A' for Active; 'I' for Inactive)
REMARK    1  A    between atoms: C7_5  and  N11_8 
REMARK    2  A    between atoms: C10_7  and  C13_15 
REMARK    3  A    between atoms: C20_22  and  C21_10 
REMARK    4  A    between atoms: C13_15  and  N14_16 
REMARK    5  A    between atoms: N14_16  and  C15_17 
ROOT
ATOM      1  C2  PT1 d           0.678   0.705  10.675  0.00  0.00     0.226 A 
ATOM      2  C3  PT1 d           0.798   1.310   9.414  0.00  0.00     0.160 A 
ATOM      3  C5  PT1 d           2.125   1.518   8.935  0.00  0.00     0.201 A 
ATOM      4  N6  PT1 d          -0.251   1.638   8.659  0.00  0.00    -0.242 NA
ATOM      5  C7  PT1 d           2.978   0.608  10.859  0.00  0.00     0.702 A 
ATOM      6  N9  PT1 d           3.227   1.172   9.663  0.00  0.00    -0.043 NA
ATOM      7  C10 PT1 d          -0.028   2.207   7.450  0.00  0.00     0.070 A 
ATOM      8  C12 PT1 d           1.276   2.427   6.981  0.00  0.00     0.147 A 
ATOM      9  O1  PT1 d          -0.569   0.477  11.197  0.00  0.00    -0.169 OA
ATOM     10  N4  PT1 d           1.783   0.357  11.420  0.00  0.00    -0.164 N 
ATOM     11  N8  PT1 d           2.336   2.085   7.730  0.00  0.00    -0.237 NA
ATOM     12  H4  PT1 d           1.701  -0.058  12.326  0.00  0.00     0.186 HD
ENDROOT
BRANCH   7  13
ATOM     13  C13 PT1 d          -1.213   2.738   6.677  0.00  0.00     0.180 C 
BRANCH  13  14
ATOM     14  N14 PT1 d          -1.107   4.165   6.530  0.00  0.00    -0.384 N 
ATOM     15  H7  PT1 d          -1.220   4.587   5.597  0.00  0.00     0.160 HD
BRANCH  14  16
ATOM     16  C15 PT1 d          -0.855   4.985   7.624  0.00  0.00     0.028 A 
ATOM     17  C17 PT1 d          -1.650   4.939   8.772  0.00  0.00     0.030 A 
ATOM     18  C19 PT1 d          -1.398   5.817   9.835  0.00  0.00     0.020 A 
ATOM     19  C20 PT1 d          -0.363   6.746   9.756  0.00  0.00     0.041 A 
ATOM     20  C18 PT1 d           0.438   6.785   8.630  0.00  0.00     0.020 A 
ATOM     21  C16 PT1 d           0.194   5.915   7.566  0.00  0.00     0.030 A 
BRANCH  19  22
ATOM     22  C21 PT1 d          -0.139   7.719  10.880  0.00  0.00     0.209 C 
ATOM     23  O23 PT1 d          -1.086   7.944  11.724  0.00  0.00    -0.644 OA
ATOM     24  O22 PT1 d           0.975   8.347  11.022  0.00  0.00    -0.644 OA
ENDBRANCH  19  22
ENDBRANCH  14  16
ENDBRANCH  13  14
ENDBRANCH   7  13
BRANCH   5  25
ATOM     25  N11 PT1 d           4.076   0.335  11.612  0.00  0.00    -0.233 N 
ATOM     26  H1  PT1 d           5.017   0.508  11.232  0.00  0.00     0.174 HD
ATOM     27  H2  PT1 d           3.967  -0.045  12.563  0.00  0.00     0.174 HD
ENDBRANCH   5  25
TORSDOF 5
