REMARK  4 active torsions:
REMARK  status: ('A' for Active; 'I' for Inactive)
REMARK    1  A    between atoms: CAJ_10  and  OAC_3 
REMARK    2  A    between atoms: CAO_15  and  CAJ_10 
REMARK    3  A    between atoms: CAP_16  and  OAM_13 
REMARK    4  A    between atoms: CAQ_17  and  CAN_14 
ROOT
ATOM      1  CAE GRI d          -0.042  89.332  23.226  0.00  0.00     0.003 A 
ATOM      2  CAF GRI d           1.310  89.138  23.043  0.00  0.00     0.021 A 
ATOM      3  CAG GRI d          -0.196  83.025  26.702  0.00  0.00     0.014 A 
ATOM      4  CAH GRI d           1.181  82.855  26.485  0.00  0.00     0.040 A 
ATOM      5  CAI GRI d          -0.779  88.339  23.816  0.00  0.00     0.034 A 
ATOM      6  NAK GRI d          -0.816  86.189  24.885  0.00  0.00    -0.244 NA
ATOM      7  NAL GRI d           1.851  85.835  24.504  0.00  0.00    -0.240 NA
ATOM      8  CAO GRI d          -0.875  84.141  26.165  0.00  0.00    -0.004 A 
ATOM      9  CAP GRI d           1.878  83.804  25.714  0.00  0.00     0.099 A 
ATOM     10  CAQ GRI d           1.929  87.987  23.475  0.00  0.00     0.071 A 
ATOM     11  CAR GRI d          -0.139  87.175  24.281  0.00  0.00     0.087 A 
ATOM     12  CAS GRI d          -0.188  85.086  25.415  0.00  0.00     0.097 A 
ATOM     13  CAT GRI d           1.231  86.979  24.084  0.00  0.00     0.103 A 
ATOM     14  CAU GRI d           1.189  84.904  25.197  0.00  0.00     0.120 A 
ENDROOT
BRANCH   8  15
ATOM     15  CAJ GRI d          -2.372  84.318  26.464  0.00  0.00     0.205 C 
BRANCH  15  16
ATOM     16  OAC GRI d          -3.306  84.721  25.372  0.00  0.00    -0.396 OA
ATOM     17  H4  GRI d          -3.039  85.563  25.023  0.00  0.00     0.209 HD
ENDBRANCH  15  16
ENDBRANCH   8  15
BRANCH   9  18
ATOM     18  OAM GRI d           3.246  83.667  25.463  0.00  0.00    -0.353 OA
ATOM     19  CAA GRI d           4.167  82.645  25.979  0.00  0.00     0.210 C 
ENDBRANCH   9  18
BRANCH  10  20
ATOM     20  CAN GRI d           3.367  87.918  23.264  0.00  0.00     0.211 C 
ATOM     21  OAB GRI d           3.924  88.894  22.601  0.00  0.00    -0.644 OA
ATOM     22  OAD GRI d           4.082  86.957  23.798  0.00  0.00    -0.644 OA
ENDBRANCH  10  20
TORSDOF 4
