REMARK  6 active torsions:
REMARK  status: ('A' for Active; 'I' for Inactive)
REMARK    1  A    between atoms: P_1  and  O5'_5 
REMARK    2  A    between atoms: O5'_5  and  C5'_6 
REMARK    3  A    between atoms: C5'_6  and  C4'_7 
REMARK    4  A    between atoms: C3'_9  and  O3'_10 
REMARK    5  A    between atoms: C2'_11  and  O2'_12 
REMARK    6  A    between atoms: C1'_13  and  N1_14 
ROOT
ATOM      1  C4' BMP d          24.455 -18.149  12.031  0.00  0.00     0.180 C 
ATOM      2  O4' BMP d          25.377 -19.023  12.705  0.00  0.00    -0.353 OA
ATOM      3  C3' BMP d          23.919 -17.170  13.046  0.00  0.00     0.182 C 
ATOM      4  C2' BMP d          25.098 -17.078  14.027  0.00  0.00     0.199 C 
ATOM      5  C1' BMP d          25.646 -18.502  14.021  0.00  0.00     0.267 C 
ENDROOT
BRANCH   5   6
ATOM      6  N1  BMP d          27.092 -18.626  14.271  0.00  0.00    -0.239 N 
ATOM      7  C2  BMP d          27.987 -17.912  13.598  0.00  0.00     0.333 A 
ATOM      8  O2  BMP d          27.633 -17.115  12.708  0.00  0.00    -0.246 OA
ATOM      9  N3  BMP d          29.308 -18.043  13.874  0.00  0.00    -0.278 N 
ATOM     10  C4  BMP d          29.762 -18.880  14.838  0.00  0.00     0.234 A 
ATOM     11  H9  BMP d          29.968 -17.505  13.350  0.00  0.00     0.173 HD
ATOM     12  O4  BMP d          31.037 -18.951  15.020  0.00  0.00    -0.273 OA
ATOM     13  C5  BMP d          28.864 -19.685  15.506  0.00  0.00     0.206 A 
ATOM     14  C6  BMP d          27.501 -19.547  15.202  0.00  0.00     0.238 A 
ATOM     15  O1  BMP d          26.639 -20.220  15.789  0.00  0.00    -0.272 OA
ENDBRANCH   5   6
BRANCH   4  16
ATOM     16  O2' BMP d          24.591 -16.732  15.310  0.00  0.00    -0.388 OA
ATOM     17  H7  BMP d          23.980 -17.400  15.598  0.00  0.00     0.210 HD
ENDBRANCH   4  16
BRANCH   1  18
ATOM     18  C5' BMP d          25.193 -17.477  10.864  0.00  0.00     0.217 C 
BRANCH  18  19
ATOM     19  O5' BMP d          24.166 -16.848  10.104  0.00  0.00    -0.280 OA
BRANCH  19  20
ATOM     20  P   BMP d          24.508 -16.012   8.749  0.00  0.00     0.422 P 
ATOM     21  OP1 BMP d          25.814 -15.277   8.966  0.00  0.00    -0.617 OA
ATOM     22  OP2 BMP d          23.318 -15.105   8.624  0.00  0.00    -0.617 OA
ATOM     23  OP3 BMP d          24.586 -17.027   7.627  0.00  0.00    -0.617 OA
ENDBRANCH  19  20
ENDBRANCH  18  19
ENDBRANCH   1  18
BRANCH   3  24
ATOM     24  O3' BMP d          22.801 -17.833  13.696  0.00  0.00    -0.390 OA
ATOM     25  H5  BMP d          22.426 -17.253  14.349  0.00  0.00     0.210 HD
ENDBRANCH   3  24
TORSDOF 6
