REMARK  5 active torsions:
REMARK  status: ('A' for Active; 'I' for Inactive)
REMARK    1  A    between atoms: C1_1  and  C3_3 
REMARK       I    between atoms: N1_25  and  C1_1 
REMARK    2  A    between atoms: C17_16  and  C7_4 
REMARK    3  A    between atoms: N4_23  and  C13_8 
REMARK    4  A    between atoms: C16_11  and  N2_18 
REMARK    5  A    between atoms: C19_12  and  N1_25 
REMARK       I    between atoms: C17_16  and  N4_23 
ROOT
ATOM      1  C17 ME5 d           6.516  43.281  60.036  0.00  0.00     0.252 C 
ATOM      2  N4  ME5 d           6.104  42.990  61.285  0.00  0.00    -0.350 N 
ATOM      3  O2  ME5 d           6.344  44.383  59.535  0.00  0.00    -0.268 OA
ATOM      4  H18 ME5 d           6.293  42.091  61.680  0.00  0.00     0.163 HD
ENDROOT
BRANCH   2   5
ATOM      5  C13 ME5 d           5.391  43.979  62.047  0.00  0.00     0.107 C 
ATOM      6  C12 ME5 d           4.938  43.419  63.377  0.00  0.00     0.027 C 
ATOM      7  C10 ME5 d           4.384  44.505  64.269  0.00  0.00     0.004 C 
ATOM      8  C8  ME5 d           5.043  45.616  63.487  0.00  0.00     0.027 C 
ATOM      9  C19 ME5 d           6.232  45.116  62.669  0.00  0.00     0.107 C 
BRANCH   9  10
ATOM     10  N1  ME5 d           7.246  44.547  63.636  0.00  0.00    -0.350 N 
ATOM     11  C1  ME5 d           8.546  44.945  63.380  0.00  0.00     0.259 C 
ATOM     12  O3  ME5 d           8.865  45.654  62.418  0.00  0.00    -0.267 OA
ATOM     13  H19 ME5 d           7.000  43.939  64.391  0.00  0.00     0.163 HD
BRANCH  11  14
ATOM     14  C3  ME5 d           9.564  44.538  64.259  0.00  0.00     0.074 A 
ATOM     15  C2  ME5 d           9.296  43.886  65.500  0.00  0.00     0.027 A 
ATOM     16  C4  ME5 d          10.537  43.602  66.150  0.00  0.00     0.033 A 
ATOM     17  C5  ME5 d          11.683  44.044  65.368  0.00  0.00     0.075 A 
ATOM     18  S1  ME5 d          11.217  44.782  63.913  0.00  0.00    -0.072 SA
ATOM     19 CL1  ME5 d          13.413  43.857  65.783  0.00  0.00    -0.076 Cl
ENDBRANCH  11  14
ENDBRANCH   9  10
ENDBRANCH   2   5
BRANCH   1  20
ATOM     20  C7  ME5 d           7.149  42.147  59.358  0.00  0.00     0.032 A 
ATOM     21  C22 ME5 d           6.927  40.807  59.931  0.00  0.00     0.019 A 
ATOM     22  C18 ME5 d           7.376  39.642  59.194  0.00  0.00     0.031 A 
ATOM     23  C16 ME5 d           8.065  39.826  57.909  0.00  0.00     0.042 A 
ATOM     24  C14 ME5 d           8.210  41.169  57.333  0.00  0.00     0.031 A 
ATOM     25  C44 ME5 d           7.767  42.334  58.069  0.00  0.00     0.019 A 
BRANCH  23  26
ATOM     26  N2  ME5 d           8.644  38.753  57.183  0.00  0.00    -0.290 N 
ATOM     27  C15 ME5 d           9.856  38.188  57.539  0.00  0.00     0.100 A 
ATOM     28  C23 ME5 d          10.450  37.196  56.683  0.00  0.00     0.018 A 
ATOM     29  C26 ME5 d           9.823  36.776  55.480  0.00  0.00     0.007 A 
ATOM     30  C24 ME5 d           8.561  37.323  55.074  0.00  0.00     0.075 A 
ATOM     31  C21 ME5 d           7.952  38.356  55.976  0.00  0.00     0.252 A 
ATOM     32  O1  ME5 d           6.873  38.887  55.713  0.00  0.00    -0.268 OA
ENDBRANCH  23  26
ENDBRANCH   1  20
TORSDOF 5
