REMARK  14 active torsions:
REMARK  status: ('A' for Active; 'I' for Inactive)
REMARK    1  A    between atoms: O3_17  and  C1_1 
REMARK    2  A    between atoms: C2_2  and  O2_7 
REMARK    3  A    between atoms: C3_3  and  O3_8 
REMARK    4  A    between atoms: C4_4  and  O4_9 
REMARK    5  A    between atoms: C5_5  and  C6_6 
REMARK    6  A    between atoms: C6_6  and  O6_11 
REMARK    7  A    between atoms: OH_32  and  C1_13 
REMARK    8  A    between atoms: C2_14  and  N2_15 
REMARK       I    between atoms: N2_15  and  C7_23 
REMARK    9  A    between atoms: C3_16  and  O3_17 
REMARK   10  A    between atoms: C4_18  and  O4_19 
REMARK   11  A    between atoms: C5_20  and  C6_21 
REMARK   12  A    between atoms: C6_21  and  O6_22 
REMARK   13  A    between atoms: C1_26  and  N1_33 
REMARK   14  A    between atoms: C4_29  and  OH_32 
ROOT
ATOM      1  O   GAL d           2.557 -24.646  -0.004  0.00  0.00    -0.349 OA
ATOM      2  C1  GAL d           1.405 -24.401  -0.825  0.00  0.00     0.292 C 
ATOM      3  C2  GAL d           0.749 -23.095  -0.370  0.00  0.00     0.170 C 
ATOM      4  C3  GAL d           1.725 -21.926  -0.506  0.00  0.00     0.183 C 
ATOM      5  C4  GAL d           2.995 -22.274   0.274  0.00  0.00     0.180 C 
ATOM      6  C5  GAL d           3.544 -23.621  -0.201  0.00  0.00     0.179 C 
ENDROOT
BRANCH   4   7
ATOM      7  O3  GAL d           1.093 -20.732  -0.023  0.00  0.00    -0.348 OA
BRANCH   7   8
ATOM      8  C1  GAL d           1.892 -19.568  -0.280  0.00  0.00     0.292 C 
ATOM      9  C2  GAL d           0.934 -18.375  -0.325  0.00  0.00     0.204 C 
ATOM     10  C3  GAL d           1.703 -17.060  -0.463  0.00  0.00     0.183 C 
ATOM     11  C4  GAL d           2.738 -16.975   0.658  0.00  0.00     0.180 C 
ATOM     12  C5  GAL d           3.633 -18.216   0.610  0.00  0.00     0.179 C 
ATOM     13  O5  GAL d           2.840 -19.400   0.787  0.00  0.00    -0.348 OA
BRANCH   9  14
ATOM     14  O2  GAL d           0.020 -18.529  -1.413  0.00  0.00    -0.388 OA
ATOM     15  H8  GAL d          -0.451 -19.348  -1.316  0.00  0.00     0.210 HD
ENDBRANCH   9  14
BRANCH  10  16
ATOM     16  O3  GAL d           0.794 -15.961  -0.360  0.00  0.00    -0.390 OA
ATOM     17  H9  GAL d           0.353 -15.994   0.481  0.00  0.00     0.210 HD
ENDBRANCH  10  16
BRANCH  11  18
ATOM     18  O4  GAL d           2.057 -16.925   1.915  0.00  0.00    -0.390 OA
ATOM     19  H10 GAL d           1.502 -16.154   1.943  0.00  0.00     0.210 HD
ENDBRANCH  11  18
BRANCH  12  20
ATOM     20  C6  GAL d           4.710 -18.132   1.695  0.00  0.00     0.198 C 
BRANCH  20  21
ATOM     21  O6  GAL d           5.612 -19.236   1.573  0.00  0.00    -0.398 OA
ATOM     22  H11 GAL d           5.131 -20.049   1.671  0.00  0.00     0.209 HD
ENDBRANCH  20  21
ENDBRANCH  12  20
ENDBRANCH   7   8
ENDBRANCH   4   7
BRANCH   3  23
ATOM     23  N2  GAL d          -0.456 -22.818  -1.166  0.00  0.00    -0.360 N 
ATOM     24  C7  GAL d          -1.648 -23.293  -0.816  0.00  0.00     0.147 C 
ATOM     25  O7  GAL d          -1.767 -24.056   0.303  0.00  0.00    -0.178 OA
ATOM     26  C8  GAL d          -2.768 -23.003  -1.586  0.00  0.00     0.100 C 
ATOM     27  H14 GAL d          -0.377 -22.259  -1.991  0.00  0.00     0.162 HD
ENDBRANCH   3  23
BRANCH   5  28
ATOM     28  O4  GAL d           2.707 -22.351   1.672  0.00  0.00    -0.390 OA
ATOM     29  H17 GAL d           2.376 -21.513   1.972  0.00  0.00     0.210 HD
ENDBRANCH   5  28
BRANCH   2  30
ATOM     30  OH  GAL d           1.844 -24.290  -2.187  0.00  0.00    -0.318 OA
BRANCH  30  31
ATOM     31  C4  GAL d           0.850 -24.562  -3.075  0.00  0.00     0.072 A 
ATOM     32  C3  GAL d           0.921 -24.027  -4.357  0.00  0.00     0.039 A 
ATOM     33  C2  GAL d          -0.037 -24.365  -5.307  0.00  0.00     0.039 A 
ATOM     34  C1  GAL d          -1.069 -25.235  -4.973  0.00  0.00     0.103 A 
ATOM     35  C6  GAL d          -1.147 -25.762  -3.688  0.00  0.00     0.039 A 
ATOM     36  C5  GAL d          -0.186 -25.426  -2.741  0.00  0.00     0.039 A 
BRANCH  34  37
ATOM     37  N1  GAL d          -1.980 -25.562  -5.884  0.00  0.00    -0.116 N 
ATOM     38  O2  GAL d          -3.057 -26.423  -5.537  0.00  0.00    -0.532 OA
ATOM     39  O3  GAL d          -1.887 -25.032  -7.199  0.00  0.00    -0.532 OA
ENDBRANCH  34  37
ENDBRANCH  30  31
ENDBRANCH   2  30
BRANCH   6  40
ATOM     40  C6  GAL d           4.805 -23.965   0.593  0.00  0.00     0.198 C 
BRANCH  40  41
ATOM     41  O6  GAL d           5.339 -25.202   0.116  0.00  0.00    -0.398 OA
ATOM     42  H21 GAL d           4.693 -25.889   0.230  0.00  0.00     0.209 HD
ENDBRANCH  40  41
ENDBRANCH   6  40
TORSDOF 14
