REMARK  11 active torsions:
REMARK  status: ('A' for Active; 'I' for Inactive)
REMARK    1  A    between atoms: N_1  and  CA_2 
REMARK    2  A    between atoms: CA_2  and  CB_3 
REMARK    3  A    between atoms: CA_2  and  C_6 
REMARK    4  A    between atoms: CB_3  and  CG_4 
REMARK    5  A    between atoms: CG_4  and  SD_5 
REMARK    6  A    between atoms: SD_5  and  C5'_9 
REMARK    7  A    between atoms: C5'_9  and  C4'_10 
REMARK    8  A    between atoms: C3'_12  and  O3'_13 
REMARK    9  A    between atoms: C2'_14  and  O2'_15 
REMARK   10  A    between atoms: C1'_16  and  N9_17 
REMARK   11  A    between atoms: C6_21  and  N6_22 
ROOT
ATOM      1  C4' SAH d          21.046   5.193  11.399  0.00  0.00     0.165 C 
ATOM      2  O4' SAH d          20.254   4.314  10.625  0.00  0.00    -0.355 OA
ATOM      3  C3' SAH d          21.733   6.137  10.419  0.00  0.00     0.180 C 
ATOM      4  C2' SAH d          21.235   5.708   9.051  0.00  0.00     0.198 C 
ATOM      5  C1' SAH d          20.769   4.286   9.313  0.00  0.00     0.262 C 
ENDROOT
BRANCH   1   6
ATOM      6  C5' SAH d          20.171   5.913  12.418  0.00  0.00     0.108 C 
BRANCH   6   7
ATOM      7  SD  SAH d          21.149   6.804  13.651  0.00  0.00    -0.166 SA
BRANCH   7   8
ATOM      8  CG  SAH d          21.172   5.351  14.736  0.00  0.00     0.076 C 
BRANCH   8   9
ATOM      9  CB  SAH d          22.526   4.650  14.725  0.00  0.00     0.054 C 
BRANCH   9  10
ATOM     10  CA  SAH d          22.684   3.518  15.734  0.00  0.00     0.284 C 
BRANCH  10  11
ATOM     11  N   SAH d          21.629   2.520  15.587  0.00  0.00    -0.065 N 
ATOM     12  H   SAH d          21.643   2.152  14.649  0.00  0.00     0.275 HD
ATOM     13  H   SAH d          20.734   2.948  15.766  0.00  0.00     0.275 HD
ATOM     14  H   SAH d          21.781   1.771  16.244  0.00  0.00     0.275 HD
ENDBRANCH  10  11
BRANCH  10  15
ATOM     15  C   SAH d          22.679   4.086  17.144  0.00  0.00     0.204 C 
ATOM     16  O   SAH d          23.697   4.582  17.628  0.00  0.00    -0.646 OA
ATOM     17  OXT SAH d          21.655   4.058  17.827  0.00  0.00    -0.646 OA
ENDBRANCH  10  15
ENDBRANCH   9  10
ENDBRANCH   8   9
ENDBRANCH   7   8
ENDBRANCH   6   7
ENDBRANCH   1   6
BRANCH   3  18
ATOM     18  O3' SAH d          23.125   5.931  10.500  0.00  0.00    -0.390 OA
ATOM     19  H   SAH d          23.324   5.029  10.276  0.00  0.00     0.210 HD
ENDBRANCH   3  18
BRANCH   5  20
ATOM     20  N9  SAH d          19.749   3.810   8.364  0.00  0.00    -0.294 N 
ATOM     21  C8  SAH d          18.655   4.492   7.902  0.00  0.00     0.214 A 
ATOM     22  N7  SAH d          17.981   3.684   7.051  0.00  0.00    -0.236 NA
ATOM     23  C5  SAH d          18.630   2.499   6.969  0.00  0.00     0.149 A 
ATOM     24  C6  SAH d          18.378   1.335   6.254  0.00  0.00     0.155 A 
ATOM     25  C4  SAH d          19.744   2.568   7.789  0.00  0.00     0.167 A 
ATOM     26  N1  SAH d          19.242   0.267   6.369  0.00  0.00    -0.222 NA
ATOM     27  C2  SAH d          20.345   0.354   7.197  0.00  0.00     0.237 A 
ATOM     28  N3  SAH d          20.589   1.514   7.902  0.00  0.00    -0.222 NA
BRANCH  24  29
ATOM     29  N6  SAH d          17.316   1.250   5.457  0.00  0.00    -0.382 N 
ATOM     30  H   SAH d          17.136   0.384   4.930  0.00  0.00     0.157 HD
ATOM     31  H   SAH d          16.674   2.051   5.367  0.00  0.00     0.157 HD
ENDBRANCH  24  29
ENDBRANCH   5  20
BRANCH   4  32
ATOM     32  O2' SAH d          22.250   5.750   8.075  0.00  0.00    -0.388 OA
ATOM     33  H   SAH d          22.956   5.166   8.328  0.00  0.00     0.210 HD
ENDBRANCH   4  32
TORSDOF 11
