REMARK  9 active torsions:
REMARK  status: ('A' for Active; 'I' for Inactive)
REMARK    1  A    between atoms: C3_3  and  C2_2 
REMARK    2  A    between atoms: C8_6  and  C7_5 
REMARK       I    between atoms: N10_24  and  C8_6 
REMARK    3  A    between atoms: C11_7  and  N10_24 
REMARK    4  A    between atoms: S18_29  and  C13_9 
REMARK    5  A    between atoms: C16_12  and  O17_13 
REMARK    6  A    between atoms: N21_25  and  C22_14 
REMARK    7  A    between atoms: N21_25  and  C24_15 
REMARK    8  A    between atoms: C4_18  and  C27_16 
REMARK    9  A    between atoms: N21_25  and  S18_29 
ROOT
ATOM      1  C11 MOL d           3.724   5.577  23.029  0.00  0.00     0.070 A 
ATOM      2  C12 MOL d           3.472   4.486  22.212  0.00  0.00     0.057 A 
ATOM      3  C13 MOL d           2.793   3.402  22.761  0.00  0.00     0.082 A 
ATOM      4  C14 MOL d           2.365   3.390  24.076  0.00  0.00     0.028 A 
ATOM      5  C15 MOL d           2.621   4.477  24.882  0.00  0.00     0.040 A 
ATOM      6  C16 MOL d           3.297   5.549  24.341  0.00  0.00     0.092 A 
ENDROOT
BRANCH   1   7
ATOM      7  N10 MOL d           4.403   6.762  22.651  0.00  0.00    -0.319 N 
ATOM      8  C8  MOL d           5.077   6.893  21.462  0.00  0.00     0.273 C 
ATOM      9  O9  MOL d           5.274   5.967  20.699  0.00  0.00    -0.266 OA
ATOM     10  H   MOL d           4.391   7.539  23.280  0.00  0.00     0.169 HD
BRANCH   8  11
ATOM     11  C7  MOL d           5.566   8.205  21.166  0.00  0.00     0.108 A 
ATOM     12  C3  MOL d           5.204   9.476  21.589  0.00  0.00    -0.010 A 
ATOM     13  C4  MOL d           6.058  10.402  20.938  0.00  0.00     0.040 A 
ATOM     14  C5  MOL d           6.911   9.670  20.125  0.00  0.00     0.020 A 
ATOM     15  N6  MOL d           6.595   8.354  20.280  0.00  0.00    -0.354 N 
ATOM     16  C26 MOL d           8.011  10.046  19.195  0.00  0.00     0.069 C 
ATOM     17  H   MOL d           7.067   7.577  19.795  0.00  0.00     0.166 HD
BRANCH  12  18
ATOM     18  C2  MOL d           4.129   9.799  22.552  0.00  0.00     0.037 C 
ATOM     19  C1  MOL d           4.706   9.996  23.947  0.00  0.00     0.010 C 
ENDBRANCH  12  18
BRANCH  13  20
ATOM     20  C27 MOL d           6.096  11.839  21.015  0.00  0.00     0.158 C 
ATOM     21  O28 MOL d           7.117  12.484  20.810  0.00  0.00    -0.293 OA
ATOM     22  C29 MOL d           4.817  12.545  21.301  0.00  0.00     0.097 C 
ENDBRANCH  13  20
ENDBRANCH   8  11
ENDBRANCH   1   7
BRANCH   6  23
ATOM     23  O17 MOL d           3.567   6.655  25.126  0.00  0.00    -0.358 OA
ATOM     24  H   MOL d           4.035   7.301  24.610  0.00  0.00     0.217 HD
ENDBRANCH   6  23
BRANCH   3  25
ATOM     25  S18 MOL d           2.388   1.916  21.828  0.00  0.00     0.260 S 
ATOM     26  O19 MOL d           3.072   1.882  20.545  0.00  0.00    -0.200 OA
ATOM     27  O20 MOL d           2.463   0.815  22.779  0.00  0.00    -0.200 OA
BRANCH  25  28
ATOM     28  N21 MOL d           0.756   2.344  21.529  0.00  0.00    -0.307 N 
BRANCH  28  29
ATOM     29  C22 MOL d           0.518   3.453  20.574  0.00  0.00     0.131 C 
ATOM     30  C23 MOL d           0.113   2.909  19.219  0.00  0.00     0.027 C 
ENDBRANCH  28  29
BRANCH  28  31
ATOM     31  C24 MOL d          -0.204   1.226  21.402  0.00  0.00     0.131 C 
ATOM     32  C25 MOL d           0.574  -0.052  21.172  0.00  0.00     0.027 C 
ENDBRANCH  28  31
ENDBRANCH  25  28
ENDBRANCH   3  25
TORSDOF 9
