REMARK  7 active torsions:
REMARK  status: ('A' for Active; 'I' for Inactive)
REMARK    1  A    between atoms: C01_1  and  N17_17 
REMARK    2  A    between atoms: C01_1  and  C02_2 
REMARK    3  A    between atoms: C02_2  and  C03_3 
REMARK    4  A    between atoms: C03_3  and  N04_4 
REMARK       I    between atoms: N04_4  and  C05_5 
REMARK    5  A    between atoms: C05_5  and  C07_7 
REMARK    6  A    between atoms: C10_10  and  S13_13 
REMARK    7  A    between atoms: S13_13  and  NP6_16 
ROOT
ATOM      1  N04 SBR d          -3.104   4.297  13.076  0.00  0.00    -0.356 N 
ATOM      2  C05 SBR d          -4.414   4.216  13.660  0.00  0.00     0.251 C 
ATOM      3  O06 SBR d          -5.210   5.128  13.456  0.00  0.00    -0.268 OA
ATOM      4  H6  SBR d          -2.392   3.606  13.198  0.00  0.00     0.162 HD
ENDROOT
BRANCH   1   5
ATOM      5  C03 SBR d          -2.929   5.587  12.233  0.00  0.00     0.128 C 
BRANCH   5   6
ATOM      6  C02 SBR d          -2.483   6.710  13.176  0.00  0.00     0.018 C 
ATOM      7  C26 SBR d          -1.874   6.119  14.470  0.00  0.00     0.013 C 
BRANCH   6   8
ATOM      8  C01 SBR d          -1.415   7.570  12.424  0.00  0.00     0.134 C 
BRANCH   8   9
ATOM      9  N17 SBR d          -0.968   8.683  13.244  0.00  0.00    -0.356 N 
ATOM     10  C20 SBR d          -1.374   9.915  13.176  0.00  0.00     0.044 A 
ATOM     11  C25 SBR d          -0.686  10.687  14.147  0.00  0.00    -0.008 A 
ATOM     12  C21 SBR d          -2.334  10.528  12.330  0.00  0.00     0.030 A 
ATOM     13  C19 SBR d           0.142   9.925  14.809  0.00  0.00     0.031 A 
ATOM     14  C24 SBR d          -0.957  12.070  14.268  0.00  0.00     0.014 A 
ATOM     15  C18 SBR d          -0.034   8.585  14.216  0.00  0.00     0.092 A 
ATOM     16  C23 SBR d          -1.916  12.680  13.420  0.00  0.00     0.001 A 
ATOM     17  C22 SBR d          -2.603  11.909  12.450  0.00  0.00     0.002 A 
ENDBRANCH   8   9
ENDBRANCH   6   8
ENDBRANCH   5   6
ENDBRANCH   1   5
BRANCH   2  18
ATOM     18  C07 SBR d          -4.737   3.111  14.416  0.00  0.00     0.032 A 
ATOM     19  C12 SBR d          -6.018   3.015  14.983  0.00  0.00     0.018 A 
ATOM     20  C11 SBR d          -6.396   1.894  15.753  0.00  0.00     0.026 A 
ATOM     21  C10 SBR d          -5.502   0.815  15.991  0.00  0.00     0.079 A 
ATOM     22  C09 SBR d          -4.177   0.899  15.420  0.00  0.00     0.026 A 
ATOM     23  C08 SBR d          -3.807   2.042  14.642  0.00  0.00     0.018 A 
BRANCH  21  24
ATOM     24  S13 SBR d          -6.008  -0.371  16.845  0.00  0.00     0.256 S 
ATOM     25  O15 SBR d          -7.422  -0.295  16.943  0.00  0.00    -0.201 OA
ATOM     26  O14 SBR d          -5.451  -0.309  18.182  0.00  0.00    -0.201 OA
BRANCH  24  27
ATOM     27  NP6 SBR d          -5.663  -1.683  16.203  0.00  0.00    -0.324 N 
ATOM     28  H11 SBR d          -5.928  -2.541  16.644  0.00  0.00     0.169 HD
ATOM     29  H12 SBR d          -5.168  -1.700  15.334  0.00  0.00     0.169 HD
ENDBRANCH  24  27
ENDBRANCH  21  24
ENDBRANCH   2  18
TORSDOF 7
