REMARK  4 active torsions:
REMARK  status: ('A' for Active; 'I' for Inactive)
REMARK       I    between atoms: C17_2  and  N18_3 
REMARK       I    between atoms: C17_2  and  N16_12 
REMARK    1  A    between atoms: N18_3  and  C19_4 
REMARK    2  A    between atoms: N16_12  and  C11_13 
REMARK    3  A    between atoms: C9_15  and  C12_16 
REMARK    4  A    between atoms: N7_21  and  C5_22 
ROOT
ATOM      1  C11 MOL d          11.377   0.056  30.312  0.00  0.00     0.135 A 
ATOM      2  C10 MOL d          11.157   0.774  29.130  0.00  0.00     0.080 A 
ATOM      3  C9  MOL d          10.272   1.772  29.565  0.00  0.00     0.066 A 
ATOM      4  N8  MOL d           9.910   1.704  30.855  0.00  0.00    -0.169 NA
ATOM      5  N7  MOL d          10.626   0.580  31.308  0.00  0.00    -0.217 N 
ENDROOT
BRANCH   1   6
ATOM      6  N16 MOL d          12.100  -1.055  30.537  0.00  0.00    -0.293 N 
ATOM      7  C17 MOL d          13.286  -1.299  29.974  0.00  0.00     0.326 C 
ATOM      8  O27 MOL d          13.816  -0.500  29.214  0.00  0.00    -0.247 OA
ATOM      9  N18 MOL d          13.873  -2.458  30.284  0.00  0.00    -0.307 N 
ATOM     10  H1  MOL d          13.402  -3.070  30.919  0.00  0.00     0.170 HD
ATOM     11  H5  MOL d          11.727  -1.740  31.163  0.00  0.00     0.172 HD
BRANCH   9  12
ATOM     12  C19 MOL d          15.072  -2.853  29.787  0.00  0.00     0.059 A 
ATOM     13  C20 MOL d          15.219  -4.180  29.492  0.00  0.00     0.082 A 
ATOM     14 CL25 MOL d          13.877  -5.305  29.743  0.00  0.00    -0.080 Cl
ATOM     15  C21 MOL d          16.486  -4.709  28.928  0.00  0.00     0.058 A 
ATOM     16 CL26 MOL d          16.583  -6.468  28.608  0.00  0.00    -0.082 Cl
ATOM     17  C22 MOL d          17.551  -3.832  28.716  0.00  0.00     0.026 A 
ATOM     18  C23 MOL d          17.360  -2.473  29.037  0.00  0.00     0.004 A 
ATOM     19  C24 MOL d          16.147  -1.988  29.549  0.00  0.00     0.031 A 
ENDBRANCH   9  12
ENDBRANCH   1   6
BRANCH   5  20
ATOM     20  C5  MOL d          10.551   0.234  32.644  0.00  0.00     0.060 A 
ATOM     21  C6  MOL d          11.652  -0.118  33.426  0.00  0.00     0.031 A 
ATOM     22  C1  MOL d          11.606  -0.387  34.828  0.00  0.00     0.002 A 
ATOM     23  C2  MOL d          10.376  -0.419  35.521  0.00  0.00     0.000 A 
ATOM     24  C3  MOL d           9.229  -0.101  34.770  0.00  0.00     0.002 A 
ATOM     25  C4  MOL d           9.347   0.221  33.377  0.00  0.00     0.031 A 
ENDBRANCH   5  20
BRANCH   3  26
ATOM     26  C12 MOL d           9.691   2.845  28.666  0.00  0.00    -0.005 C 
ATOM     27  C15 MOL d           8.620   2.156  27.820  0.00  0.00     0.021 C 
ATOM     28  C14 MOL d          10.808   3.461  27.824  0.00  0.00     0.021 C 
ATOM     29  C13 MOL d           9.055   3.933  29.531  0.00  0.00     0.021 C 
ENDBRANCH   3  26
TORSDOF 4
