REMARK  5 active torsions:
REMARK  status: ('A' for Active; 'I' for Inactive)
REMARK    1  A    between atoms: P_2  and  C5_5 
REMARK    2  A    between atoms: C5_5  and  N_6 
REMARK    3  A    between atoms: C5_5  and  C3_7 
REMARK    4  A    between atoms: C3_7  and  C2_9 
REMARK    5  A    between atoms: C2_9  and  C1_10 
ROOT
ATOM      1  C5  Q07 d          22.377  -3.627   9.866  0.00  0.00     0.315 C 
ENDROOT
BRANCH   1   2
ATOM      2  P   Q07 d          21.238  -2.493  10.731  0.00  0.00     0.291 P 
ATOM      3  O2  Q07 d          21.829  -2.216  12.095  0.00  0.00    -0.638 OA
ATOM      4  O   Q07 d          19.890  -3.245  10.922  0.00  0.00    -0.638 OA
ATOM      5  O1  Q07 d          21.029  -1.393   9.960  0.00  0.00    -0.638 OA
ENDBRANCH   1   2
BRANCH   1   6
ATOM      6  N   Q07 d          23.577  -2.996   9.398  0.00  0.00    -0.062 N 
ATOM      7  H2  Q07 d          24.156  -3.678   8.933  0.00  0.00     0.275 HD
ATOM      8  H3  Q07 d          24.079  -2.607  10.181  0.00  0.00     0.275 HD
ATOM      9  H4  Q07 d          23.340  -2.260   8.752  0.00  0.00     0.275 HD
ENDBRANCH   1   6
BRANCH   1  10
ATOM     10  C3  Q07 d          22.721  -4.804  10.745  0.00  0.00     0.026 C 
ATOM     11  C4  Q07 d          23.730  -4.459  11.799  0.00  0.00     0.012 C 
BRANCH  10  12
ATOM     12  C2  Q07 d          23.110  -6.040   9.986  0.00  0.00     0.006 C 
BRANCH  12  13
ATOM     13  C1  Q07 d          23.031  -7.279  10.858  0.00  0.00    -0.004 C 
ATOM     14  C   Q07 d          23.075  -8.575  10.095  0.00  0.00     0.005 C 
ENDBRANCH  12  13
ENDBRANCH  10  12
ENDBRANCH   1  10
TORSDOF 5
