REMARK  7 active torsions:
REMARK  status: ('A' for Active; 'I' for Inactive)
REMARK    1  A    between atoms: O2_12  and  P_1 
REMARK    2  A    between atoms: C5_6  and  O5_5 
REMARK    3  A    between atoms: C4_7  and  C5_6 
REMARK    4  A    between atoms: C3_9  and  O3_10 
REMARK    5  A    between atoms: C2_11  and  O2_12 
REMARK    6  A    between atoms: C1_13  and  N9_14 
REMARK    7  A    between atoms: C2_21  and  N2_22 
ROOT
ATOM      1  C4  MOL d          20.846 -45.740   3.710  0.00  0.00     0.179 C 
ATOM      2  O4  MOL d          21.899 -46.405   4.461  0.00  0.00    -0.353 OA
ATOM      3  C3  MOL d          21.250 -45.808   2.267  0.00  0.00     0.183 C 
ATOM      4  C2  MOL d          22.652 -46.438   2.227  0.00  0.00     0.216 C 
ATOM      5  C1  MOL d          23.055 -46.518   3.671  0.00  0.00     0.263 C 
ENDROOT
BRANCH   5   6
ATOM      6  N9  MOL d          23.829 -47.726   4.112  0.00  0.00    -0.293 N 
ATOM      7  C8  MOL d          23.439 -48.979   4.507  0.00  0.00     0.214 A 
ATOM      8  N7  MOL d          24.433 -49.759   4.781  0.00  0.00    -0.234 NA
ATOM      9  C5  MOL d          25.567 -48.947   4.558  0.00  0.00     0.173 A 
ATOM     10  C6  MOL d          26.963 -49.238   4.679  0.00  0.00     0.292 A 
ATOM     11  C4  MOL d          25.210 -47.678   4.158  0.00  0.00     0.186 A 
ATOM     12  O6  MOL d          27.442 -50.300   5.025  0.00  0.00    -0.265 OA
ATOM     13  N1  MOL d          27.744 -48.112   4.413  0.00  0.00    -0.152 N 
ATOM     14  C2  MOL d          27.289 -46.868   4.014  0.00  0.00     0.703 A 
ATOM     15  H10 MOL d          28.733 -48.215   4.522  0.00  0.00     0.187 HD
ATOM     16  N3  MOL d          25.991 -46.607   3.868  0.00  0.00    -0.044 NA
BRANCH  14  17
ATOM     17  N2  MOL d          28.231 -45.975   3.767  0.00  0.00    -0.233 N 
ATOM     18  H11 MOL d          27.973 -45.025   3.465  0.00  0.00     0.174 HD
ATOM     19  H12 MOL d          29.223 -46.229   3.877  0.00  0.00     0.174 HD
ENDBRANCH  14  17
ENDBRANCH   5   6
BRANCH   4  20
ATOM     20  O2  MOL d          22.690 -47.580   1.480  0.00  0.00    -0.270 OA
BRANCH  20  21
ATOM     21  P   MOL d          22.735 -47.696  -0.009  0.00  0.00     0.422 P 
ATOM     22  O1P MOL d          23.902 -47.357  -0.732  0.00  0.00    -0.617 OA
ATOM     23  O2P MOL d          21.581 -47.336  -0.748  0.00  0.00    -0.617 OA
ATOM     24  O3P MOL d          22.766 -49.144  -0.188  0.00  0.00    -0.617 OA
ENDBRANCH  20  21
ENDBRANCH   4  20
BRANCH   1  25
ATOM     25  C5  MOL d          19.552 -46.433   4.158  0.00  0.00     0.198 C 
BRANCH  25  26
ATOM     26  O5  MOL d          19.627 -47.852   3.931  0.00  0.00    -0.398 OA
ATOM     27  H1  MOL d          20.355 -48.212   4.424  0.00  0.00     0.209 HD
ENDBRANCH  25  26
ENDBRANCH   1  25
BRANCH   3  28
ATOM     28  O3  MOL d          21.568 -44.510   1.708  0.00  0.00    -0.390 OA
ATOM     29  H6  MOL d          21.816 -44.611   0.797  0.00  0.00     0.210 HD
ENDBRANCH   3  28
TORSDOF 7
