REMARK  11 active torsions:
REMARK  status: ('A' for Active; 'I' for Inactive)
REMARK    1  A    between atoms: C13_9  and  N2_2 
REMARK    2  A    between atoms: C5_5  and  C8_6 
REMARK       I    between atoms: C8_6  and  N10_8 
REMARK    3  A    between atoms: C13_9  and  C14_10 
REMARK    4  A    between atoms: C18_12  and  C13_9 
REMARK    5  A    between atoms: C14_10  and  O15_11 
REMARK    6  A    between atoms: C19_13  and  C18_12 
REMARK    7  A    between atoms: N22_14  and  C19_13 
REMARK    8  A    between atoms: N1_23  and  C33_21 
REMARK       I    between atoms: C2_24  and  N1_23 
REMARK    9  A    between atoms: C4_26  and  C2_24 
REMARK   10  A    between atoms: C6_27  and  C4_26 
REMARK   11  A    between atoms: C12_35  and  C6_27 
ROOT
ATOM      1  N22 FR5 d          48.232  56.768  19.201  0.00  0.00    -0.356 N 
ATOM      2  C27 FR5 d          47.764  57.934  18.695  0.00  0.00     0.092 A 
ATOM      3  C28 FR5 d          47.213  57.692  17.517  0.00  0.00     0.031 A 
ATOM      4  C29 FR5 d          47.337  56.252  17.328  0.00  0.00    -0.008 A 
ATOM      5  C30 FR5 d          48.067  55.738  18.378  0.00  0.00     0.046 A 
ATOM      6  C31 FR5 d          47.121  55.474  16.261  0.00  0.00     0.016 C 
ATOM      7  C32 FR5 d          47.463  54.210  16.308  0.00  0.00     0.030 C 
ATOM      8  C33 FR5 d          48.120  53.712  17.391  0.00  0.00     0.036 C 
ATOM      9  C34 FR5 d          48.374  54.478  18.459  0.00  0.00     0.060 C 
ENDROOT
BRANCH   1  10
ATOM     10  C19 FR5 d          48.892  56.616  20.612  0.00  0.00     0.131 C 
BRANCH  10  11
ATOM     11  C18 FR5 d          50.371  57.194  20.629  0.00  0.00     0.048 C 
BRANCH  11  12
ATOM     12  C13 FR5 d          51.141  56.802  21.888  0.00  0.00     0.115 C 
BRANCH  12  13
ATOM     13  N2  FR5 d          51.238  55.323  22.073  0.00  0.00    -0.342 N 
ATOM     14  C1  FR5 d          51.262  54.394  21.046  0.00  0.00     0.129 C 
ATOM     15  C5  FR5 d          51.019  53.233  21.600  0.00  0.00     0.141 C 
ATOM     16  N4  FR5 d          51.026  53.356  23.016  0.00  0.00    -0.237 NA
ATOM     17  C3  FR5 d          51.155  54.596  23.229  0.00  0.00     0.210 C 
BRANCH  15  18
ATOM     18  C8  FR5 d          50.831  51.983  20.866  0.00  0.00     0.269 C 
ATOM     19  O9  FR5 d          50.577  51.951  19.632  0.00  0.00    -0.266 OA
ATOM     20  N10 FR5 d          50.847  50.909  21.641  0.00  0.00    -0.365 N 
ATOM     21  H3  FR5 d          50.727  50.001  21.240  0.00  0.00     0.159 HD
ATOM     22  H4  FR5 d          50.979  51.006  22.628  0.00  0.00     0.159 HD
ENDBRANCH  15  18
ENDBRANCH  12  13
BRANCH  12  23
ATOM     23  C14 FR5 d          52.518  57.604  21.793  0.00  0.00     0.189 C 
BRANCH  23  24
ATOM     24  O15 FR5 d          53.600  57.321  22.690  0.00  0.00    -0.399 OA
ATOM     25  H8  FR5 d          54.334  57.890  22.489  0.00  0.00     0.209 HD
ENDBRANCH  23  24
ENDBRANCH  12  23
ENDBRANCH  11  12
ENDBRANCH  10  11
ENDBRANCH   1  10
BRANCH   8  26
ATOM     26  N1  FR5 d          48.440  52.484  17.557  0.00  0.00    -0.327 N 
ATOM     27  C2  FR5 d          48.295  51.518  16.783  0.00  0.00     0.222 C 
ATOM     28  O1  FR5 d          47.607  51.515  15.784  0.00  0.00    -0.273 OA
ATOM     29  H18 FR5 d          48.868  52.268  18.435  0.00  0.00     0.169 HD
BRANCH  27  30
ATOM     30  C4  FR5 d          49.144  50.282  17.124  0.00  0.00     0.110 C 
BRANCH  30  31
ATOM     31  C6  FR5 d          48.586  48.902  16.698  0.00  0.00     0.088 C 
BRANCH  31  32
ATOM     32  C12 FR5 d          47.417  48.580  17.642  0.00  0.00     0.107 A 
ATOM     33  N11 FR5 d          47.405  48.885  18.948  0.00  0.00    -0.233 NA
ATOM     34  C10 FR5 d          46.266  48.327  19.489  0.00  0.00     0.085 A 
ATOM     35  C15 FR5 d          45.828  48.211  20.793  0.00  0.00     0.034 C 
ATOM     36  C16 FR5 d          45.627  47.631  18.438  0.00  0.00     0.064 A 
ATOM     37  C9  FR5 d          44.601  47.619  21.132  0.00  0.00     0.002 C 
ATOM     38  C17 FR5 d          43.935  46.996  20.078  0.00  0.00     0.002 C 
ATOM     39  C11 FR5 d          44.409  47.058  18.717  0.00  0.00     0.032 C 
ATOM     40  N13 FR5 d          46.346  47.893  17.260  0.00  0.00    -0.338 N 
ATOM     41  C7  FR5 d          46.004  47.439  15.925  0.00  0.00     0.158 C 
ENDBRANCH  31  32
ENDBRANCH  30  31
ENDBRANCH  27  30
ENDBRANCH   8  26
TORSDOF 11
