REMARK  3 active torsions:
REMARK  status: ('A' for Active; 'I' for Inactive)
REMARK    1  A    between atoms: C2_2  and  O2_9 
REMARK    2  A    between atoms: C3_3  and  O3_8 
REMARK    3  A    between atoms: C4_4  and  O4_7 
ROOT
ATOM      1  C1  DFU d          32.588   2.536  42.594  0.00  0.00     0.267 C 
ATOM      2  C2  DFU d          33.001   3.525  43.684  0.00  0.00     0.175 C 
ATOM      3  C3  DFU d          32.232   4.791  43.503  0.00  0.00     0.179 C 
ATOM      4  C4  DFU d          30.747   4.412  43.644  0.00  0.00     0.179 C 
ATOM      5  C5  DFU d          30.346   3.344  42.606  0.00  0.00     0.213 C 
ATOM      6  C6  DFU d          28.886   2.926  42.772  0.00  0.00     0.043 C 
ATOM      7  N5  DFU d          31.173   2.159  42.778  0.00  0.00    -0.066 N 
ATOM      8  H13 DFU d          31.040   1.784  43.704  0.00  0.00     0.277 HD
ATOM      9  H14 DFU d          30.916   1.464  42.094  0.00  0.00     0.277 HD
ENDROOT
BRANCH   2  10
ATOM     10  O2  DFU d          34.419   3.781  43.685  0.00  0.00    -0.391 OA
ATOM     11  H12 DFU d          34.632   4.373  44.397  0.00  0.00     0.210 HD
ENDBRANCH   2  10
BRANCH   3  12
ATOM     12  O3  DFU d          32.604   5.743  44.517  0.00  0.00    -0.390 OA
ATOM     13  H11 DFU d          32.461   5.362  45.375  0.00  0.00     0.210 HD
ENDBRANCH   3  12
BRANCH   4  14
ATOM     14  O4  DFU d          30.528   3.876  44.978  0.00  0.00    -0.391 OA
ATOM     15  H10 DFU d          30.773   4.528  45.624  0.00  0.00     0.210 HD
ENDBRANCH   4  14
TORSDOF 3
