REMARK  9 active torsions:
REMARK  status: ('A' for Active; 'I' for Inactive)
REMARK    1  A    between atoms: CA_2  and  N_1 
REMARK    2  A    between atoms: CH_7  and  CA_2 
REMARK    3  A    between atoms: CE2_5  and  CZ_6 
REMARK    4  A    between atoms: N1_15  and  CE2_5 
REMARK    5  A    between atoms: CM_8  and  CH_7 
REMARK    6  A    between atoms: CA2_9  and  CM_8 
REMARK    7  A    between atoms: CB2_10  and  CA2_9 
REMARK    8  A    between atoms: CA2_9  and  C_14 
REMARK    9  A    between atoms: CG2_11  and  CB2_10 
ROOT
ATOM      1  CA2 MOL d          80.396  20.374   0.891  0.00  0.00     0.092 C 
ENDROOT
BRANCH   1   2
ATOM      2  CM  MOL d          79.831  19.338  -0.096  0.00  0.00     0.017 C 
BRANCH   2   3
ATOM      3  CH  MOL d          80.925  18.312  -0.495  0.00  0.00     0.028 C 
BRANCH   3   4
ATOM      4  CA  MOL d          80.329  17.256  -1.444  0.00  0.00     0.229 C 
BRANCH   4   5
ATOM      5  N   MOL d          79.466  16.341  -0.695  0.00  0.00    -0.079 N 
ATOM      6  H1  MOL d          79.080  15.653  -1.323  0.00  0.00     0.274 HD
ATOM      7  H2  MOL d          78.717  16.861  -0.265  0.00  0.00     0.274 HD
ATOM      8  H3  MOL d          80.006  15.878   0.019  0.00  0.00     0.274 HD
ENDBRANCH   4   5
ENDBRANCH   3   4
ENDBRANCH   2   3
ENDBRANCH   1   2
BRANCH   1   9
ATOM      9  CB2 MOL d          79.287  21.405   1.237  0.00  0.00     0.076 C 
BRANCH   9  10
ATOM     10  CG2 MOL d          79.922  22.591   1.904  0.00  0.00     0.052 A 
ATOM     11  CD3 MOL d          81.024  23.284   1.631  0.00  0.00     0.118 A 
ATOM     12  N1  MOL d          81.131  24.308   2.456  0.00  0.00    -0.350 N 
ATOM     13  CG  MOL d          80.164  24.351   3.295  0.00  0.00     0.209 A 
ATOM     14  N2  MOL d          79.476  23.365   2.989  0.00  0.00    -0.247 NA
BRANCH  12  15
ATOM     15  CE2 MOL d          82.221  25.258   2.541  0.00  0.00     0.129 C 
BRANCH  15  16
ATOM     16  CZ  MOL d          82.074  26.497   1.675  0.00  0.00     0.016 C 
ATOM     17  CE1 MOL d          82.968  27.640   2.187  0.00  0.00     0.006 C 
ENDBRANCH  15  16
ENDBRANCH  12  15
ENDBRANCH   9  10
ENDBRANCH   1   9
BRANCH   1  18
ATOM     18  C   MOL d          80.975  19.828   2.152  0.00  0.00     0.177 C 
ATOM     19  O   MOL d          82.202  19.981   2.371  0.00  0.00    -0.648 OA
ATOM     20  OXT MOL d          80.226  19.229   2.954  0.00  0.00    -0.648 OA
ENDBRANCH   1  18
TORSDOF 9
