3ny3_ligand

Created by X-TOOL on Fri Sep 26 17:34:47 2014
 77 77  0  0  0  0  0  0  0  0999 V2000
   13.1660    1.5290   10.2310  N 0  3  0  4  0  4
   13.6500    1.5720    8.8240  C 0  0  0  2  0  4
   15.0400    0.9440    8.7430  C 0  0  0  1  0  3
   15.7330    0.8040    9.7520  O 0  0  0  1  0  1
   13.7020    3.0220    8.3050  C 0  0  0  3  0  4
   12.4100    3.8370    8.4930  C 0  0  0  3  0  4
   11.2850    3.3270    7.5930  C 0  0  0  3  0  4
   10.1960    4.3020    7.5090  N 0  0  0  2  0  3
    9.3080    4.5430    8.4710  C 0  3  0  1  0  3
    9.3320    3.8780    9.6280  N 0  0  0  3  0  3
    8.3790    5.4790    8.2750  N 0  0  0  3  0  3
   15.4530    0.5790    7.5310  N 0  0  0  2  0  3
   16.8030    0.0570    7.3130  C 0  0  0  2  0  4
   17.8360    1.0770    7.8080  C 0  0  0  1  0  3
   17.5560    2.2770    7.8240  O 0  0  0  1  0  1
   17.0210   -0.3340    5.8310  C 0  0  0  2  0  4
   16.0670   -1.4800    5.4480  C 0  0  0  3  0  4
   18.4790   -0.7290    5.5770  C 0  0  0  4  0  4
   16.2510   -2.0470    4.0230  C 0  0  0  4  0  4
   19.0080    0.5980    8.2420  N 0  0  0  2  0  3
   20.0520    1.4820    8.7690  C 0  0  0  2  0  4
   20.3160    2.6730    7.8480  C 0  0  0  1  0  3
   20.5140    2.5060    6.6470  O 0  0  0  1  0  1
   21.3530    0.7170    9.0170  C 0  0  0  3  0  4
   22.4110    1.5340    9.7130  C 0  0  0  1  0  3
   23.6140    1.8190    9.0750  C 0  0  0  2  0  3
   22.1940    2.0340   11.0030  C 0  0  0  2  0  3
   24.5940    2.5820    9.7110  C 0  0  0  2  0  3
   23.1710    2.8060   11.6510  C 0  0  0  2  0  3
   24.3780    3.0730   10.9970  C 0  0  0  2  0  3
   20.3110    3.8670    8.4290  N 0  0  0  2  0  3
   20.5030    5.0850    7.6550  C 0  0  0  2  0  4
   21.5540    5.9640    8.3170  C 0  5  0  1  0  3
   21.9700    7.0092    7.7496  O 0  0  0  1  0  1
   19.1800    5.8430    7.5220  C 0  0  0  3  0  4
   18.7520    6.3350    8.7820  O 0  0  0  2  0  2
   22.0135    5.6430    9.4455  O 0  0  0  1  0  1
   12.2487    1.9436   10.2836  H 0  0  0  1  0  1
   13.8014    2.0432   10.8208  H 0  0  0  1  0  1
   13.1200    0.5711   10.5414  H 0  0  0  1  0  1
   12.9581    0.9949    8.1929  H 0  0  0  1  0  1
   13.9292    2.9895    7.2292  H 0  0  0  1  0  1
   14.5124    3.5435    8.8354  H 0  0  0  1  0  1
   12.6135    4.8898    8.2476  H 0  0  0  1  0  1
   12.0895    3.7604    9.5425  H 0  0  0  1  0  1
   10.8935    2.3854    8.0054  H 0  0  0  1  0  1
   11.6851    3.1472    6.5843  H 0  0  0  1  0  1
   10.1103    4.8439    6.6373  H 0  0  0  1  0  1
    8.6326    4.0847   10.3554  H 0  0  0  1  0  1
   10.0499    3.1582    9.7935  H 0  0  0  1  0  1
    8.3509    5.9985    7.3861  H 0  0  0  1  0  1
    7.6894    5.6826    9.0125  H 0  0  0  1  0  1
   14.8286    0.6631    6.7544  H 0  0  0  1  0  1
   16.9166   -0.8561    7.9157  H 0  0  0  1  0  1
   16.7868    0.5383    5.2031  H 0  0  0  1  0  1
   15.0360   -1.1064    5.5340  H 0  0  0  1  0  1
   16.2200   -2.3021    6.1627  H 0  0  0  1  0  1
   19.1391    0.1049    5.8580  H 0  0  0  1  0  1
   18.6155   -0.9613    4.5105  H 0  0  0  1  0  1
   18.7295   -1.6142    6.1801  H 0  0  0  1  0  1
   15.5246   -2.8554    3.8535  H 0  0  0  1  0  1
   17.2717   -2.4426    3.9147  H 0  0  0  1  0  1
   16.0877   -1.2469    3.2861  H 0  0  0  1  0  1
   19.1756   -0.3872    8.2059  H 0  0  0  1  0  1
   19.6990    1.8742    9.7342  H 0  0  0  1  0  1
   21.7519    0.3858    8.0468  H 0  0  0  1  0  1
   21.1266   -0.1612    9.6395  H 0  0  0  1  0  1
   23.7919    1.4444    8.0734  H 0  0  0  1  0  1
   21.2586    1.8219   11.5081  H 0  0  0  1  0  1
   25.5275    2.7937    9.2023  H 0  0  0  1  0  1
   22.9917    3.1913   12.6482  H 0  0  0  1  0  1
   25.1441    3.6608   11.4896  H 0  0  0  1  0  1
   20.1727    3.9308    9.4173  H 0  0  0  1  0  1
   20.8546    4.8122    6.6490  H 0  0  0  1  0  1
   18.4137    5.1632    7.1212  H 0  0  0  1  0  1
   19.3168    6.6889    6.8322  H 0  0  0  1  0  1
   17.9309    6.8011    8.6764  H 0  0  0  1  0  1
  1  2  1  0  0  2
  2  3  1  0  0  2
  2  5  1  0  0  2
  3  4  2  0  0  2
  3 12  1  0  0  2
  5  6  1  0  0  2
  6  7  1  0  0  2
  7  8  1  0  0  2
  8  9  2  0  0  2
  9 10  2  0  0  2
  9 11  2  0  0  2
 12 13  1  0  0  2
 13 14  1  0  0  2
 13 16  1  0  0  2
 14 15  2  0  0  2
 14 20  1  0  0  2
 16 17  1  0  0  2
 16 18  1  0  0  2
 17 19  1  0  0  2
 20 21  1  0  0  2
 21 22  1  0  0  2
 21 24  1  0  0  2
 22 23  2  0  0  2
 22 31  1  0  0  2
 24 25  1  0  0  2
 25 26  4  0  0  1
 25 27  4  0  0  1
 26 28  4  0  0  1
 27 29  4  0  0  1
 28 30  4  0  0  1
 29 30  4  0  0  1
 31 32  1  0  0  2
 32 33  1  0  0  2
 32 35  1  0  0  2
 33 34  2  0  0  2
 35 36  1  0  0  2
 33 37  2  0  0  2
  1 38  1  0  0  2
  1 39  1  0  0  2
  1 40  1  0  0  2
  2 41  1  0  0  2
  5 42  1  0  0  2
  5 43  1  0  0  2
  6 44  1  0  0  2
  6 45  1  0  0  2
  7 46  1  0  0  2
  7 47  1  0  0  2
  8 48  1  0  0  2
 10 49  1  0  0  2
 10 50  1  0  0  2
 11 51  1  0  0  2
 11 52  1  0  0  2
 12 53  1  0  0  2
 13 54  1  0  0  2
 16 55  1  0  0  2
 17 56  1  0  0  2
 17 57  1  0  0  2
 18 58  1  0  0  2
 18 59  1  0  0  2
 18 60  1  0  0  2
 19 61  1  0  0  2
 19 62  1  0  0  2
 19 63  1  0  0  2
 20 64  1  0  0  2
 21 65  1  0  0  2
 24 66  1  0  0  2
 24 67  1  0  0  2
 26 68  1  0  0  2
 27 69  1  0  0  2
 28 70  1  0  0  2
 29 71  1  0  0  2
 30 72  1  0  0  2
 31 73  1  0  0  2
 32 74  1  0  0  2
 35 75  1  0  0  2
 35 76  1  0  0  2
 36 77  1  0  0  2
M  END
> <MOLECULAR_FORMULA>
C24H40N7O6

> <MOLECULAR_WEIGHT>
522.3

> <NUM_HB_ATOMS>
13 

> <NUM_ROTOR>
15 

> <XLOGP2>
-1.97

$$$$
