REMARK  7 active torsions:
REMARK  status: ('A' for Active; 'I' for Inactive)
REMARK    1  A    between atoms: C1'_9  and  N1_1 
REMARK    2  A    between atoms: C17_10  and  C18_11 
REMARK    3  A    between atoms: C17_10  and  C24_18 
REMARK    4  A    between atoms: N5'_30  and  C17_10 
REMARK    5  A    between atoms: C3'_24  and  O3'_25 
REMARK    6  A    between atoms: C5'_29  and  C4'_26 
REMARK    7  A    between atoms: C5'_29  and  N5'_30 
ROOT
ATOM      1  C5' DU4 d          -9.036  27.847  -3.112  0.00  0.00     0.270 C 
ENDROOT
BRANCH   1   2
ATOM      2  C4' DU4 d          -9.157  27.008  -1.814  0.00  0.00     0.178 C 
ATOM      3  C3' DU4 d          -8.694  27.814  -0.595  0.00  0.00     0.153 C 
ATOM      4  C2' DU4 d          -8.020  26.794   0.299  0.00  0.00     0.088 C 
ATOM      5  C1' DU4 d          -7.537  25.696  -0.647  0.00  0.00     0.235 C 
ATOM      6  O4' DU4 d          -8.314  25.814  -1.879  0.00  0.00    -0.357 OA
BRANCH   3   7
ATOM      7  O3' DU4 d          -9.836  28.333   0.105  0.00  0.00    -0.393 OA
ATOM      8  H19 DU4 d         -10.274  28.976  -0.440  0.00  0.00     0.210 HD
ENDBRANCH   3   7
BRANCH   5   9
ATOM      9  N1  DU4 d          -6.120  25.783  -1.128  0.00  0.00    -0.282 N 
ATOM     10  C2  DU4 d          -5.576  24.653  -1.756  0.00  0.00     0.331 A 
ATOM     11  O2  DU4 d          -6.229  23.615  -1.878  0.00  0.00    -0.246 OA
ATOM     12  N3  DU4 d          -4.270  24.709  -2.237  0.00  0.00    -0.275 N 
ATOM     13  C4  DU4 d          -3.510  25.875  -2.114  0.00  0.00     0.250 A 
ATOM     14  H1  DU4 d          -3.871  23.904  -2.676  0.00  0.00     0.173 HD
ATOM     15  O4  DU4 d          -2.367  25.869  -2.565  0.00  0.00    -0.268 OA
ATOM     16  C5  DU4 d          -4.042  27.014  -1.496  0.00  0.00     0.092 A 
ATOM     17  C6  DU4 d          -5.354  26.964  -1.005  0.00  0.00     0.104 A 
ENDBRANCH   5   9
ENDBRANCH   1   2
BRANCH   1  18
ATOM     18  N5' DU4 d          -9.575  27.126  -4.296  0.00  0.00    -0.060 N 
ATOM     19  C41 DU4 d         -11.008  27.491  -4.411  0.00  0.00     0.271 C 
ATOM     20  H26 DU4 d          -9.496  26.133  -4.142  0.00  0.00     0.280 HD
BRANCH  18  21
ATOM     21  C17 DU4 d          -8.828  27.469  -5.548  0.00  0.00     0.253 C 
BRANCH  21  22
ATOM     22  C18 DU4 d          -9.389  26.800  -6.832  0.00  0.00    -0.023 A 
ATOM     23  C19 DU4 d          -9.479  27.573  -7.996  0.00  0.00     0.009 A 
ATOM     24  C20 DU4 d          -9.977  27.022  -9.176  0.00  0.00     0.001 A 
ATOM     25  C21 DU4 d         -10.382  25.689  -9.193  0.00  0.00     0.000 A 
ATOM     26  C22 DU4 d         -10.291  24.911  -8.038  0.00  0.00     0.001 A 
ATOM     27  C23 DU4 d          -9.792  25.467  -6.858  0.00  0.00     0.009 A 
ENDBRANCH  21  22
BRANCH  21  28
ATOM     28  C24 DU4 d          -7.318  27.166  -5.465  0.00  0.00    -0.023 A 
ATOM     29  C25 DU4 d          -6.416  28.167  -5.823  0.00  0.00     0.009 A 
ATOM     30  C26 DU4 d          -5.040  27.945  -5.761  0.00  0.00     0.001 A 
ATOM     31  C27 DU4 d          -4.555  26.707  -5.343  0.00  0.00     0.000 A 
ATOM     32  C28 DU4 d          -5.456  25.702  -4.994  0.00  0.00     0.001 A 
ATOM     33  C29 DU4 d          -6.835  25.922  -5.048  0.00  0.00     0.009 A 
ENDBRANCH  21  28
ENDBRANCH  18  21
ENDBRANCH   1  18
TORSDOF 7
