REMARK  5 active torsions:
REMARK  status: ('A' for Active; 'I' for Inactive)
REMARK    1  A    between atoms: S1_4  and  N1_2 
REMARK    2  A    between atoms: O3_8  and  S1_4 
REMARK    3  A    between atoms: C2_5  and  O3_8 
REMARK    4  A    between atoms: C3_7  and  C19_25 
REMARK    5  A    between atoms: C17_22  and  O17_23 
ROOT
ATOM      1  C1  VZ5 d          -3.062   2.734  14.167  0.00  0.00     0.046 C 
ATOM      2  C2  VZ5 d          -4.467   2.598  14.377  0.00  0.00     0.098 C 
ATOM      3  C3  VZ5 d          -5.008   3.836  14.563  0.00  0.00    -0.023 C 
ATOM      4  C4  VZ5 d          -4.375   5.028  14.167  0.00  0.00     0.018 C 
ATOM      5  C5  VZ5 d          -3.006   5.127  13.886  0.00  0.00    -0.047 C 
ATOM      6  C6  VZ5 d          -2.347   3.915  13.837  0.00  0.00    -0.049 C 
ATOM      7  C7  VZ5 d          -0.853   3.884  13.516  0.00  0.00     0.039 C 
ATOM      8  C8  VZ5 d          -0.446   5.025  12.585  0.00  0.00     0.010 C 
ATOM      9  C9  VZ5 d          -0.801   6.328  13.282  0.00  0.00    -0.001 C 
ATOM     10  C10 VZ5 d          -2.353   6.367  13.550  0.00  0.00     0.024 C 
ATOM     11  C11 VZ5 d          -2.720   7.661  14.293  0.00  0.00     0.010 C 
ATOM     12  C12 VZ5 d          -2.271   8.968  13.556  0.00  0.00     0.013 C 
ATOM     13  C13 VZ5 d          -0.746   8.866  13.418  0.00  0.00    -0.014 C 
ATOM     14  C14 VZ5 d          -0.317   7.645  12.614  0.00  0.00     0.001 C 
ATOM     15  C15 VZ5 d           1.206   7.857  12.591  0.00  0.00     0.008 C 
ATOM     16  C16 VZ5 d           1.353   9.421  12.707  0.00  0.00     0.033 C 
ATOM     17  C17 VZ5 d          -0.067   9.935  12.577  0.00  0.00     0.126 C 
ATOM     18  C18 VZ5 d          -0.160   8.881  14.838  0.00  0.00     0.018 C 
ENDROOT
BRANCH   2  19
ATOM     19  O3  VZ5 d          -4.654   1.308  14.805  0.00  0.00    -0.216 OA
BRANCH  19  20
ATOM     20  S1  VZ5 d          -5.274   0.781  16.111  0.00  0.00     0.360 S 
ATOM     21  O1  VZ5 d          -4.402   1.279  17.131  0.00  0.00    -0.176 OA
ATOM     22  O2  VZ5 d          -6.683   1.187  16.195  0.00  0.00    -0.176 OA
BRANCH  20  23
ATOM     23  N1  VZ5 d          -5.117  -0.739  15.948  0.00  0.00    -0.305 N 
ATOM     24  H2  VZ5 d          -5.441  -1.355  16.666  0.00  0.00     0.171 HD
ATOM     25  H3  VZ5 d          -4.690  -1.112  15.124  0.00  0.00     0.171 HD
ENDBRANCH  20  23
ENDBRANCH  19  20
ENDBRANCH   2  19
BRANCH   3  26
ATOM     26  C19 VZ5 d          -6.473   3.866  14.849  0.00  0.00     0.037 C 
ATOM     27  C20 VZ5 d          -6.669   4.212  16.307  0.00  0.00     0.010 C 
ENDBRANCH   3  26
BRANCH  17  28
ATOM     28  O17 VZ5 d          -0.054  11.227  13.236  0.00  0.00    -0.395 OA
ATOM     29  H21 VZ5 d          -0.921  11.612  13.193  0.00  0.00     0.210 HD
ENDBRANCH  17  28
TORSDOF 5
