REMARK  4 active torsions:
REMARK  status: ('A' for Active; 'I' for Inactive)
REMARK    1  A    between atoms: C25_4  and  C27_5 
REMARK       I    between atoms: N5_13  and  C25_4 
REMARK    2  A    between atoms: C27_5  and  C28_6 
REMARK    3  A    between atoms: C28_6  and  N29_7 
REMARK       I    between atoms: N12_22  and  C13_23 
REMARK    4  A    between atoms: C13_23  and  C15_25 
ROOT
ATOM      1  C1  C0M d          23.132   5.896  31.013  0.00  0.00     0.061 C 
ATOM      2  C2  C0M d          22.729   7.298  31.372  0.00  0.00    -0.018 A 
ATOM      3  O26 C0M d          26.917   7.610  28.784  0.00  0.00    -0.273 OA
ATOM      4  C25 C0M d          26.272   6.764  29.418  0.00  0.00     0.221 C 
ATOM      5  N5  C0M d          24.973   7.011  29.747  0.00  0.00    -0.347 N 
ATOM      6  C6  C0M d          23.983   5.931  29.756  0.00  0.00     0.131 C 
ATOM      7  C4  C0M d          24.508   8.417  29.819  0.00  0.00     0.172 C 
ATOM      8  C3  C0M d          23.428   8.470  30.853  0.00  0.00     0.011 A 
ATOM      9  S9  C0M d          22.806   9.957  31.469  0.00  0.00    -0.073 SA
ATOM     10  C8  C0M d          21.601   9.212  32.455  0.00  0.00     0.098 A 
ATOM     11  C7  C0M d          21.717   7.751  32.321  0.00  0.00     0.086 A 
ATOM     12  C10 C0M d          21.036   6.775  32.921  0.00  0.00     0.103 C 
ATOM     13  N11 C0M d          20.435   5.953  33.428  0.00  0.00    -0.191 NA
ATOM     14  N12 C0M d          20.765   9.831  33.242  0.00  0.00    -0.316 N 
ATOM     15  C13 C0M d          20.762  11.162  33.491  0.00  0.00     0.257 C 
ATOM     16  O14 C0M d          21.359  11.990  32.853  0.00  0.00    -0.267 OA
ATOM     17  H22 C0M d          20.069   9.277  33.699  0.00  0.00     0.169 HD
ENDROOT
BRANCH  15  18
ATOM     18  C15 C0M d          19.859  11.517  34.621  0.00  0.00     0.043 A 
ATOM     19  C20 C0M d          19.873  10.756  35.805  0.00  0.00     0.018 A 
ATOM     20  C19 C0M d          18.985  11.033  36.834  0.00  0.00     0.002 A 
ATOM     21  C18 C0M d          18.039  12.035  36.723  0.00  0.00     0.012 A 
ATOM     22  C17 C0M d          17.930  12.817  35.570  0.00  0.00    -0.025 A 
ATOM     23  C16 C0M d          18.855  12.592  34.444  0.00  0.00    -0.010 A 
ATOM     24  C24 C0M d          16.989  13.841  35.461  0.00  0.00     0.012 A 
ATOM     25  C21 C0M d          18.772  13.380  33.294  0.00  0.00     0.013 A 
ATOM     26  C22 C0M d          17.820  14.374  33.236  0.00  0.00     0.001 A 
ATOM     27  C23 C0M d          16.919  14.598  34.300  0.00  0.00     0.001 A 
ENDBRANCH  15  18
BRANCH   4  28
ATOM     28  C27 C0M d          26.905   5.446  29.901  0.00  0.00     0.130 C 
BRANCH  28  29
ATOM     29  C28 C0M d          27.902   4.787  28.926  0.00  0.00     0.244 C 
BRANCH  29  30
ATOM     30  N29 C0M d          29.054   5.669  28.664  0.00  0.00    -0.071 N 
ATOM     31  C34 C0M d          30.004   5.623  29.779  0.00  0.00     0.235 C 
ATOM     32  C33 C0M d          31.020   6.747  29.555  0.00  0.00     0.028 C 
ATOM     33  C32 C0M d          31.772   6.545  28.239  0.00  0.00     0.003 C 
ATOM     34  C31 C0M d          30.806   6.291  27.086  0.00  0.00     0.028 C 
ATOM     35  C30 C0M d          29.756   5.233  27.447  0.00  0.00     0.235 C 
ATOM     36  H7  C0M d          28.724   6.614  28.543  0.00  0.00     0.279 HD
ENDBRANCH  29  30
ENDBRANCH  28  29
ENDBRANCH   4  28
TORSDOF 4
