REMARK  7 active torsions:
REMARK  status: ('A' for Active; 'I' for Inactive)
REMARK    1  A    between atoms: CAG_6  and  CAD_7 
REMARK    2  A    between atoms: CAD_7  and  CAB_8 
REMARK    3  A    between atoms: CAB_8  and  CAC_9 
REMARK    4  A    between atoms: CAB_8  and  CAA_12 
REMARK    5  A    between atoms: CAA_12  and  CAE_13 
REMARK    6  A    between atoms: CAE_13  and  CAF_15 
REMARK    7  A    between atoms: CAF_15  and  OAP_16 
ROOT
ATOM      1  CAB BHK d         -23.866   0.441  -8.950  0.00  0.00     0.098 C 
ENDROOT
BRANCH   1   2
ATOM      2  CAD BHK d         -24.710   1.374  -8.079  0.00  0.00     0.054 C 
BRANCH   2   3
ATOM      3  CAG BHK d         -26.120   0.837  -7.817  0.00  0.00    -0.057 A 
ATOM      4  CAH BHK d         -27.000   0.611  -8.869  0.00  0.00     0.007 A 
ATOM      5  CAI BHK d         -28.291   0.158  -8.617  0.00  0.00     0.001 A 
ATOM      6  CAJ BHK d         -28.703  -0.069  -7.309  0.00  0.00     0.000 A 
ATOM      7  CAK BHK d         -27.824   0.155  -6.255  0.00  0.00     0.001 A 
ATOM      8  CAL BHK d         -26.533   0.606  -6.510  0.00  0.00     0.007 A 
ENDBRANCH   2   3
ENDBRANCH   1   2
BRANCH   1   9
ATOM      9  CAC BHK d         -24.428   0.413 -10.374  0.00  0.00     0.177 C 
ATOM     10  OAN BHK d         -24.682  -0.709 -10.864  0.00  0.00    -0.648 OA
ATOM     11  OAM BHK d         -24.594   1.515 -10.939  0.00  0.00    -0.648 OA
ENDBRANCH   1   9
BRANCH   1  12
ATOM     12  CAA BHK d         -22.437   0.988  -8.994  0.00  0.00     0.096 C 
BRANCH  12  13
ATOM     13  CAE BHK d         -21.498   0.078  -9.791  0.00  0.00     0.150 C 
ATOM     14  OAO BHK d         -21.171  -1.022  -9.350  0.00  0.00    -0.296 OA
BRANCH  13  15
ATOM     15  CAF BHK d         -20.949   0.564 -11.135  0.00  0.00     0.242 C 
BRANCH  15  16
ATOM     16  OAP BHK d         -19.630   0.060 -11.363  0.00  0.00    -0.394 OA
ATOM     17  H13 BHK d         -19.652  -0.890 -11.368  0.00  0.00     0.209 HD
ENDBRANCH  15  16
ENDBRANCH  13  15
ENDBRANCH  12  13
ENDBRANCH   1  12
TORSDOF 7
