REMARK  10 active torsions:
REMARK  status: ('A' for Active; 'I' for Inactive)
REMARK    1  A    between atoms: C4_5  and  NA4_6 
REMARK    2  A    between atoms: C6_9  and  C9_13 
REMARK    3  A    between atoms: C9_13  and  N10_14 
REMARK    4  A    between atoms: N10_14  and  C14_19 
REMARK    5  A    between atoms: C11_16  and  C_22 
REMARK       I    between atoms: C_22  and  N_24 
REMARK    6  A    between atoms: N_24  and  CA_25 
REMARK    7  A    between atoms: CA_25  and  CB_29 
REMARK    8  A    between atoms: CA_25  and  CT_26 
REMARK    9  A    between atoms: CB_29  and  CG_30 
REMARK   10  A    between atoms: CG_30  and  CD_31 
ROOT
ATOM      1  C11 MTX d          19.786  69.897  41.111  0.00  0.00     0.018 A 
ATOM      2  C12 MTX d          20.826  69.157  40.682  0.00  0.00     0.018 A 
ATOM      3  C13 MTX d          21.481  68.536  41.432  0.00  0.00     0.030 A 
ATOM      4  C14 MTX d          21.178  68.539  42.784  0.00  0.00     0.030 A 
ATOM      5  C15 MTX d          20.149  69.283  43.340  0.00  0.00     0.030 A 
ATOM      6  C16 MTX d          19.455  69.911  42.468  0.00  0.00     0.018 A 
ENDROOT
BRANCH   4   7
ATOM      7  N10 MTX d          22.074  67.722  43.532  0.00  0.00    -0.379 N 
ATOM      8  CM  MTX d          23.148  66.886  43.050  0.00  0.00     0.150 C 
BRANCH   7   9
ATOM      9  C9  MTX d          21.735  67.544  45.004  0.00  0.00     0.183 C 
BRANCH   9  10
ATOM     10  C6  MTX d          20.296  66.790  45.184  0.00  0.00     0.070 A 
ATOM     11  N5  MTX d          19.806  66.953  46.429  0.00  0.00    -0.242 NA
ATOM     12  C4A MTX d          18.574  66.298  46.644  0.00  0.00     0.151 A 
ATOM     13  C4  MTX d          17.950  66.514  47.949  0.00  0.00     0.173 A 
ATOM     14  C8A MTX d          18.030  65.710  45.769  0.00  0.00     0.201 A 
ATOM     15  N3  MTX d          16.683  66.021  48.056  0.00  0.00    -0.043 NA
ATOM     16  C2  MTX d          15.939  65.341  47.048  0.00  0.00     0.724 A 
ATOM     17  N1  MTX d          16.657  65.186  45.869  0.00  0.00    -0.041 NA
ATOM     18  NA2 MTX d          14.748  64.924  47.172  0.00  0.00    -0.231 N 
ATOM     19  H1  MTX d          14.287  64.441  46.388  0.00  0.00     0.174 HD
ATOM     20  H2  MTX d          14.241  65.068  48.057  0.00  0.00     0.174 HD
ATOM     21  N8  MTX d          18.637  65.581  44.462  0.00  0.00    -0.237 NA
ATOM     22  C7  MTX d          19.704  66.090  44.297  0.00  0.00     0.148 A 
BRANCH  13  23
ATOM     23  NA4 MTX d          18.622  67.212  49.007  0.00  0.00    -0.381 N 
ATOM     24  H3  MTX d          19.581  67.561  48.866  0.00  0.00     0.157 HD
ATOM     25  H4  MTX d          18.146  67.364  49.908  0.00  0.00     0.157 HD
ENDBRANCH  13  23
ENDBRANCH   9  10
ENDBRANCH   7   9
ENDBRANCH   4   7
BRANCH   1  26
ATOM     26  C   MTX d          18.973  70.650  40.199  0.00  0.00     0.185 C 
ATOM     27  N   MTX d          17.662  70.951  40.459  0.00  0.00    -0.353 N 
ATOM     28  H15 MTX d          17.188  70.449  41.183  0.00  0.00     0.162 HD
ATOM     29  O   MTX d          19.505  71.100  39.030  0.00  0.00    -0.172 OA
BRANCH  27  30
ATOM     30  CA  MTX d          16.959  71.936  39.749  0.00  0.00     0.185 C 
BRANCH  30  31
ATOM     31  CB  MTX d          15.670  71.349  39.160  0.00  0.00     0.046 C 
BRANCH  31  32
ATOM     32  CG  MTX d          15.994  70.364  38.138  0.00  0.00     0.116 C 
BRANCH  32  33
ATOM     33  CD  MTX d          16.086  71.003  36.738  0.00  0.00     0.172 C 
ATOM     34  OE2 MTX d          15.469  72.227  36.429  0.00  0.00    -0.648 OA
ATOM     35  OE1 MTX d          16.895  70.242  35.892  0.00  0.00    -0.648 OA
ENDBRANCH  32  33
ENDBRANCH  31  32
ENDBRANCH  30  31
BRANCH  30  36
ATOM     36  CT  MTX d          16.305  72.888  40.717  0.00  0.00     0.196 C 
ATOM     37  O2  MTX d          15.823  73.984  40.198  0.00  0.00    -0.646 OA
ATOM     38  O1  MTX d          16.080  72.609  41.959  0.00  0.00    -0.646 OA
ENDBRANCH  30  36
ENDBRANCH  27  30
ENDBRANCH   1  26
TORSDOF 10
