REMARK  7 active torsions:
REMARK  status: ('A' for Active; 'I' for Inactive)
REMARK    1  A    between atoms: N20_7  and  C02_2 
REMARK    2  A    between atoms: C05_5  and  C22_8 
REMARK       I    between atoms: C18_26  and  N20_7 
REMARK    3  A    between atoms: N07_15  and  C31_14 
REMARK    4  A    between atoms: C31_14  and  C32_28 
REMARK    5  A    between atoms: C18_26  and  C17_25 
REMARK    6  A    between atoms: C32_28  and  S33_29 
REMARK    7  A    between atoms: S33_29  and  C36_32 
ROOT
ATOM      1  N07 MOL d          18.025 -16.134  23.137  0.00  0.00    -0.248 N 
ATOM      2  C08 MOL d          19.144 -16.323  22.325  0.00  0.00     0.347 A 
ATOM      3  O09 MOL d          19.809 -17.358  22.188  0.00  0.00    -0.245 OA
ATOM      4  N10 MOL d          19.382 -15.120  21.661  0.00  0.00    -0.232 N 
ATOM      5  N11 MOL d          18.399 -14.220  22.066  0.00  0.00    -0.219 N 
ATOM      6  C12 MOL d          17.569 -14.827  22.999  0.00  0.00     0.348 A 
ATOM      7  O13 MOL d          16.589 -14.344  23.561  0.00  0.00    -0.245 OA
ATOM      8  C14 MOL d          20.636 -14.696  21.074  0.00  0.00     0.181 C 
ATOM      9  C15 MOL d          20.534 -13.351  20.393  0.00  0.00    -0.007 C 
ATOM     10  C16 MOL d          19.423 -12.595  20.551  0.00  0.00     0.006 C 
ATOM     11  C17 MOL d          18.203 -12.961  21.361  0.00  0.00     0.213 C 
ENDROOT
BRANCH  11  12
ATOM     12  C18 MOL d          16.924 -13.116  20.500  0.00  0.00     0.180 C 
ATOM     13  O19 MOL d          16.903 -13.847  19.237  0.00  0.00    -0.175 OA
ATOM     14  N20 MOL d          15.587 -12.382  20.990  0.00  0.00    -0.365 N 
ATOM     15  H11 MOL d          15.525 -11.904  21.866  0.00  0.00     0.161 HD
BRANCH  14  16
ATOM     16  C02 MOL d          14.446 -12.467  20.042  0.00  0.00     0.083 C 
ATOM     17  C01 MOL d          13.557 -11.086  19.962  0.00  0.00     0.026 C 
ATOM     18  C06 MOL d          12.945 -10.771  21.469  0.00  0.00     0.013 C 
ATOM     19  C05 MOL d          12.836 -12.068  22.343  0.00  0.00     0.038 C 
ATOM     20  C04 MOL d          12.352 -13.392  21.496  0.00  0.00     0.013 C 
ATOM     21  C03 MOL d          13.495 -13.675  20.332  0.00  0.00     0.026 C 
BRANCH  19  22
ATOM     22  C22 MOL d          12.034 -11.900  23.269  0.00  0.00     0.049 A 
ATOM     23  C26 MOL d          11.444 -10.764  23.583  0.00  0.00     0.162 A 
ATOM     24  N25 MOL d          10.617 -10.975  24.798  0.00  0.00    -0.075 NA
ATOM     25  C24 MOL d          10.793 -12.236  25.133  0.00  0.00     0.698 A 
ATOM     26  N23 MOL d          11.647 -12.827  24.248  0.00  0.00    -0.192 N 
ATOM     27  N27 MOL d          10.264 -12.957  26.126  0.00  0.00    -0.233 N 
ATOM     28  H12 MOL d          11.960 -13.807  24.292  0.00  0.00     0.184 HD
ATOM     29  H14 MOL d           9.619 -12.515  26.796  0.00  0.00     0.174 HD
ATOM     30  H15 MOL d          10.501 -13.955  26.221  0.00  0.00     0.174 HD
ENDBRANCH  19  22
ENDBRANCH  14  16
ENDBRANCH  11  12
BRANCH   1  31
ATOM     31  C31 MOL d          17.370 -17.150  23.945  0.00  0.00     0.154 C 
BRANCH  31  32
ATOM     32  C32 MOL d          18.337 -17.969  24.759  0.00  0.00     0.166 C 
BRANCH  32  33
ATOM     33  S33 MOL d          18.841 -17.180  26.281  0.00  0.00     0.177 S 
ATOM     34  O35 MOL d          19.261 -18.234  27.191  0.00  0.00    -0.223 OA
ATOM     35  O34 MOL d          17.672 -16.395  26.725  0.00  0.00    -0.223 OA
BRANCH  33  36
ATOM     36  C36 MOL d          20.165 -16.075  25.862  0.00  0.00     0.059 A 
ATOM     37  C41 MOL d          21.207 -16.498  25.015  0.00  0.00     0.023 A 
ATOM     38  C40 MOL d          22.226 -15.630  24.634  0.00  0.00     0.002 A 
ATOM     39  C39 MOL d          22.210 -14.325  25.101  0.00  0.00     0.000 A 
ATOM     40  C38 MOL d          21.200 -13.893  25.943  0.00  0.00     0.002 A 
ATOM     41  C37 MOL d          20.181 -14.756  26.330  0.00  0.00     0.023 A 
ENDBRANCH  33  36
ENDBRANCH  32  33
ENDBRANCH  31  32
ENDBRANCH   1  31
TORSDOF 7
