REMARK  18 active torsions:
REMARK  status: ('A' for Active; 'I' for Inactive)
REMARK    1  A    between atoms: CBM_1  and  OBJ_3 
REMARK       I    between atoms: NBI_15  and  CBM_1 
REMARK    2  A    between atoms: OBJ_3  and  CBB_4 
REMARK    3  A    between atoms: CBB_4  and  CBP_5 
REMARK    4  A    between atoms: PBY_12  and  CBX_14 
REMARK    5  A    between atoms: CBF_35  and  PBY_12 
REMARK    6  A    between atoms: CBX_14  and  NBI_15 
REMARK    7  A    between atoms: CBX_14  and  CBE_16 
REMARK    8  A    between atoms: CBE_16  and  CBQ_17 
REMARK    9  A    between atoms: CBC_23  and  CBS_24 
REMARK   10  A    between atoms: CBV_36  and  CBC_23 
REMARK   11  A    between atoms: CBU_28  and  CBT_29 
REMARK   12  A    between atoms: CBF_35  and  CBV_36 
REMARK   13  A    between atoms: CBV_36  and  CBN_37 
REMARK       I    between atoms: CBN_37  and  N_39 
REMARK   14  A    between atoms: N_39  and  CA_40 
REMARK   15  A    between atoms: CA_40  and  C_41 
REMARK   16  A    between atoms: CA_40  and  CB_43 
REMARK   17  A    between atoms: CB_43  and  CG_44 
REMARK   18  A    between atoms: CZ_49  and  OH_50 
ROOT
ATOM      1  CBV 3ES d          27.286   4.064 -42.032  0.00  0.00     0.093 C 
ENDROOT
BRANCH   1   2
ATOM      2  CBC 3ES d          26.619   4.937 -43.096  0.00  0.00     0.082 C 
BRANCH   2   3
ATOM      3  CBS 3ES d          26.817   6.472 -42.901  0.00  0.00     0.082 A 
ATOM      4  CBA 3ES d          27.338   7.128 -41.869  0.00  0.00     0.069 A 
ATOM      5  CBU 3ES d          27.356   8.443 -42.176  0.00  0.00     0.097 A 
ATOM      6  NBG 3ES d          26.861   8.694 -43.386  0.00  0.00    -0.128 NA
ATOM      7  OBK 3ES d          26.503   7.390 -43.869  0.00  0.00    -0.217 OA
BRANCH   5   8
ATOM      8  CBT 3ES d          27.824   9.410 -41.389  0.00  0.00    -0.005 A 
ATOM      9  CAU 3ES d          28.801   9.123 -40.424  0.00  0.00     0.014 A 
ATOM     10  CAO 3ES d          29.292  10.145 -39.616  0.00  0.00     0.001 A 
ATOM     11  CAJ 3ES d          28.825  11.449 -39.782  0.00  0.00     0.000 A 
ATOM     12  CAP 3ES d          27.870  11.741 -40.757  0.00  0.00     0.001 A 
ATOM     13  CAV 3ES d          27.372  10.725 -41.571  0.00  0.00     0.014 A 
ENDBRANCH   5   8
ENDBRANCH   2   3
ENDBRANCH   1   2
BRANCH   1  14
ATOM     14  CBF 3ES d          26.605   2.658 -42.012  0.00  0.00     0.120 C 
BRANCH  14  15
ATOM     15  PBY 3ES d          26.548   1.800 -43.747  0.00  0.00     0.130 P 
ATOM     16  OAD 3ES d          25.264   2.141 -44.355  0.00  0.00    -0.666 OA
ATOM     17  OAG 3ES d          27.817   2.091 -44.423  0.00  0.00    -0.666 OA
BRANCH  15  18
ATOM     18  CBX 3ES d          26.471  -0.012 -43.353  0.00  0.00     0.182 C 
BRANCH  18  19
ATOM     19  NBI 3ES d          26.247  -0.819 -44.573  0.00  0.00    -0.322 N 
ATOM     20  CBM 3ES d          25.069  -1.404 -44.799  0.00  0.00     0.361 C 
ATOM     21  OAB 3ES d          24.139  -1.240 -44.007  0.00  0.00    -0.238 OA
ATOM     22  H9  3ES d          26.988  -0.927 -45.236  0.00  0.00     0.165 HD
BRANCH  20  23
ATOM     23  OBJ 3ES d          24.902  -2.272 -45.831  0.00  0.00    -0.299 OA
BRANCH  23  24
ATOM     24  CBB 3ES d          24.823  -1.766 -47.139  0.00  0.00     0.219 C 
BRANCH  24  25
ATOM     25  CBP 3ES d          24.753  -2.832 -48.047  0.00  0.00    -0.034 A 
ATOM     26  CAQ 3ES d          25.440  -2.753 -49.263  0.00  0.00     0.009 A 
ATOM     27  CAK 3ES d          25.368  -3.798 -50.184  0.00  0.00     0.001 A 
ATOM     28  CAH 3ES d          24.611  -4.928 -49.894  0.00  0.00     0.000 A 
ATOM     29  CAL 3ES d          23.934  -5.011 -48.679  0.00  0.00     0.001 A 
ATOM     30  CAR 3ES d          23.997  -3.965 -47.759  0.00  0.00     0.009 A 
ENDBRANCH  24  25
ENDBRANCH  23  24
ENDBRANCH  20  23
ENDBRANCH  18  19
BRANCH  18  31
ATOM     31  CBE 3ES d          27.749  -0.505 -42.692  0.00  0.00     0.074 C 
BRANCH  31  32
ATOM     32  CBQ 3ES d          27.589  -1.884 -42.434  0.00  0.00    -0.056 A 
ATOM     33  CAS 3ES d          26.901  -2.328 -41.305  0.00  0.00     0.007 A 
ATOM     34  CAM 3ES d          26.750  -3.692 -41.069  0.00  0.00     0.001 A 
ATOM     35  CAI 3ES d          27.268  -4.633 -41.950  0.00  0.00     0.000 A 
ATOM     36  CAN 3ES d          27.958  -4.205 -43.080  0.00  0.00     0.001 A 
ATOM     37  CAT 3ES d          28.113  -2.841 -43.314  0.00  0.00     0.007 A 
ENDBRANCH  31  32
ENDBRANCH  18  31
ENDBRANCH  15  18
ENDBRANCH  14  15
ENDBRANCH   1  14
BRANCH   1  38
ATOM     38  CBN 3ES d          28.824   3.868 -42.215  0.00  0.00     0.223 C 
ATOM     39  OAC 3ES d          29.343   2.779 -41.946  0.00  0.00    -0.273 OA
ATOM     40  N   3ES d          29.551   4.932 -42.627  0.00  0.00    -0.346 N 
ATOM     41  H28 3ES d          29.088   5.781 -42.882  0.00  0.00     0.163 HD
BRANCH  40  42
ATOM     42  CA  3ES d          31.032   4.847 -42.703  0.00  0.00     0.189 C 
BRANCH  42  43
ATOM     43  C   3ES d          31.571   4.899 -41.249  0.00  0.00     0.197 C 
ATOM     44  O   3ES d          32.786   4.695 -41.075  0.00  0.00    -0.646 OA
ATOM     45  OXT 3ES d          30.750   5.176 -40.353  0.00  0.00    -0.646 OA
ENDBRANCH  42  43
BRANCH  42  46
ATOM     46  CB  3ES d          31.762   5.955 -43.428  0.00  0.00     0.074 C 
BRANCH  46  47
ATOM     47  CG  3ES d          30.994   6.969 -44.041  0.00  0.00    -0.056 A 
ATOM     48  CD1 3ES d          31.022   8.282 -43.556  0.00  0.00     0.010 A 
ATOM     49  CE1 3ES d          30.305   9.294 -44.203  0.00  0.00     0.037 A 
ATOM     50  CZ  3ES d          29.590   8.995 -45.368  0.00  0.00     0.065 A 
ATOM     51  CE2 3ES d          29.572   7.696 -45.873  0.00  0.00     0.037 A 
ATOM     52  CD2 3ES d          30.288   6.698 -45.215  0.00  0.00     0.010 A 
BRANCH  50  53
ATOM     53  OH  3ES d          28.898   9.958 -46.025  0.00  0.00    -0.361 OA
ATOM     54  H36 3ES d          29.000  10.786 -45.570  0.00  0.00     0.217 HD
ENDBRANCH  50  53
ENDBRANCH  46  47
ENDBRANCH  42  46
ENDBRANCH  40  42
ENDBRANCH   1  38
TORSDOF 18
