REMARK  5 active torsions:
REMARK  status: ('A' for Active; 'I' for Inactive)
REMARK    1  A    between atoms: C2_2  and  O2_11 
REMARK    2  A    between atoms: C3_3  and  O3_12 
REMARK    3  A    between atoms: C4_4  and  O4_13 
REMARK    4  A    between atoms: C5_5  and  C6_6 
REMARK    5  A    between atoms: C6_6  and  O6_14 
ROOT
ATOM      1  C1  NTZ d          34.303  24.483  38.973  0.00  0.00     0.168 A 
ATOM      2  C2  NTZ d          35.021  23.466  38.146  0.00  0.00     0.221 C 
ATOM      3  C3  NTZ d          35.265  24.026  36.749  0.00  0.00     0.185 C 
ATOM      4  C4  NTZ d          34.046  24.843  36.267  0.00  0.00     0.176 C 
ATOM      5  C5  NTZ d          33.881  26.137  37.103  0.00  0.00     0.162 C 
ATOM      6  N1  NTZ d          33.820  25.626  38.486  0.00  0.00    -0.251 N 
ATOM      7  N17 NTZ d          33.148  26.378  39.437  0.00  0.00    -0.003 NA
ATOM      8  N18 NTZ d          33.230  25.616  40.592  0.00  0.00     0.018 NA
ATOM      9  N21 NTZ d          33.981  24.453  40.283  0.00  0.00    -0.144 NA
ENDROOT
BRANCH   5  10
ATOM     10  C6  NTZ d          32.640  26.940  36.737  0.00  0.00     0.193 C 
BRANCH  10  11
ATOM     11  O6  NTZ d          31.447  26.197  37.027  0.00  0.00    -0.399 OA
ATOM     12  H10 NTZ d          31.419  25.995  37.955  0.00  0.00     0.209 HD
ENDBRANCH  10  11
ENDBRANCH   5  10
BRANCH   4  13
ATOM     13  O4  NTZ d          34.213  25.228  34.914  0.00  0.00    -0.391 OA
ATOM     14  H9  NTZ d          34.317  24.452  34.376  0.00  0.00     0.210 HD
ENDBRANCH   4  13
BRANCH   3  15
ATOM     15  O3  NTZ d          35.515  22.901  35.885  0.00  0.00    -0.390 OA
ATOM     16  H8  NTZ d          35.688  23.212  35.004  0.00  0.00     0.210 HD
ENDBRANCH   3  15
BRANCH   2  17
ATOM     17  O2  NTZ d          36.256  23.039  38.723  0.00  0.00    -0.385 OA
ATOM     18  H7  NTZ d          36.095  22.692  39.593  0.00  0.00     0.210 HD
ENDBRANCH   2  17
TORSDOF 5
