REMARK  4 active torsions:
REMARK  status: ('A' for Active; 'I' for Inactive)
REMARK    1  A    between atoms: C8_8  and  O37_37 
REMARK    2  A    between atoms: C13_13  and  O39_39 
REMARK    3  A    between atoms: C26_26  and  O40_40 
REMARK    4  A    between atoms: C27_27  and  O42_42 
ROOT
ATOM      1  N1  TC9 d          37.140 117.753  52.126  0.00  0.00    -0.066 N 
ATOM      2  C2  TC9 d          36.844 118.323  50.854  0.00  0.00     0.240 C 
ATOM      3  C3  TC9 d          37.971 118.153  49.878  0.00  0.00     0.067 C 
ATOM      4  C4  TC9 d          38.820 116.935  50.108  0.00  0.00    -0.045 A 
ATOM      5  C5  TC9 d          38.542 116.015  51.159  0.00  0.00    -0.018 A 
ATOM      6  C6  TC9 d          37.361 116.261  52.010  0.00  0.00     0.225 C 
ATOM      7  C7  TC9 d          39.918 116.673  49.249  0.00  0.00     0.047 A 
ATOM      8  C8  TC9 d          40.721 115.520  49.464  0.00  0.00     0.102 A 
ATOM      9  C9  TC9 d          40.418 114.617  50.528  0.00  0.00     0.110 A 
ATOM     10  C10 TC9 d          39.319 114.852  51.387  0.00  0.00     0.050 A 
ATOM     11  O11 TC9 d          41.216 113.454  50.638  0.00  0.00    -0.305 OA
ATOM     12  C12 TC9 d          41.123 112.722  51.848  0.00  0.00     0.109 A 
ATOM     13  C13 TC9 d          42.215 112.857  52.716  0.00  0.00     0.099 A 
ATOM     14  C14 TC9 d          42.279 112.103  53.866  0.00  0.00     0.040 A 
ATOM     15  C15 TC9 d          41.246 111.179  54.150  0.00  0.00     0.010 A 
ATOM     16  C16 TC9 d          40.170 111.012  53.277  0.00  0.00    -0.053 A 
ATOM     17  C17 TC9 d          40.099 111.789  52.117  0.00  0.00     0.047 A 
ATOM     18  C18 TC9 d          39.043 110.009  53.688  0.00  0.00     0.077 C 
ATOM     19  C19 TC9 d          38.897 108.674  52.871  0.00  0.00     0.230 C 
ATOM     20  N20 TC9 d          39.697 107.535  53.303  0.00  0.00    -0.066 N 
ATOM     21  C21 TC9 d          39.120 106.486  54.112  0.00  0.00     0.242 C 
ATOM     22  C22 TC9 d          37.826 106.780  54.793  0.00  0.00     0.067 C 
ATOM     23  C23 TC9 d          36.879 107.472  53.890  0.00  0.00    -0.043 A 
ATOM     24  C24 TC9 d          37.366 108.391  52.916  0.00  0.00     0.016 A 
ATOM     25  C25 TC9 d          35.502 107.210  54.032  0.00  0.00     0.047 A 
ATOM     26  C26 TC9 d          34.614 107.863  53.207  0.00  0.00     0.104 A 
ATOM     27  C27 TC9 d          35.087 108.799  52.220  0.00  0.00     0.134 A 
ATOM     28  C28 TC9 d          36.476 109.074  52.089  0.00  0.00     0.120 A 
ATOM     29  O29 TC9 d          36.955 109.936  51.069  0.00  0.00    -0.307 OA
ATOM     30  C30 TC9 d          36.737 111.311  51.226  0.00  0.00     0.076 A 
ATOM     31  C31 TC9 d          36.875 112.132  50.080  0.00  0.00     0.038 A 
ATOM     32  C32 TC9 d          36.667 113.509  50.160  0.00  0.00     0.010 A 
ATOM     33  C33 TC9 d          36.332 114.090  51.363  0.00  0.00    -0.056 A 
ATOM     34  C34 TC9 d          36.200 113.272  52.530  0.00  0.00     0.010 A 
ATOM     35  C35 TC9 d          36.397 111.896  52.459  0.00  0.00     0.038 A 
ATOM     36  C36 TC9 d          36.105 115.587  51.422  0.00  0.00     0.076 C 
ATOM     37  C43 TC9 d          36.432 118.570  53.101  0.00  0.00     0.270 C 
ATOM     38  C44 TC9 d          40.911 108.011  53.999  0.00  0.00     0.272 C 
ATOM     39  C45 TC9 d          40.121 106.800  52.097  0.00  0.00     0.272 C 
ATOM     40  H1  TC9 d          38.088 118.040  52.314  0.00  0.00     0.280 HD
ENDROOT
BRANCH   8  41
ATOM     41  O37 TC9 d          41.802 115.253  48.598  0.00  0.00    -0.353 OA
ATOM     42  C38 TC9 d          42.567 116.309  48.043  0.00  0.00     0.210 C 
ENDBRANCH   8  41
BRANCH  13  43
ATOM     43  O39 TC9 d          43.197 113.773  52.391  0.00  0.00    -0.358 OA
ATOM     44  H29 TC9 d          42.978 114.192  51.567  0.00  0.00     0.217 HD
ENDBRANCH  13  43
BRANCH  27  45
ATOM     45  O42 TC9 d          34.183 109.483  51.441  0.00  0.00    -0.356 OA
ATOM     46  H33 TC9 d          33.303 109.188  51.645  0.00  0.00     0.218 HD
ENDBRANCH  27  45
BRANCH  26  47
ATOM     47  O40 TC9 d          33.267 107.602  53.354  0.00  0.00    -0.353 OA
ATOM     48  C41 TC9 d          32.874 106.361  53.767  0.00  0.00     0.210 C 
ENDBRANCH  26  47
TORSDOF 4
