REMARK  14 active torsions:
REMARK  status: ('A' for Active; 'I' for Inactive)
REMARK    1  A    between atoms: C_1  and  C2_4 
REMARK    2  A    between atoms: CA_14  and  N_13 
REMARK    3  A    between atoms: C1_15  and  CA_14 
REMARK    4  A    between atoms: CA_14  and  CB_17 
REMARK       I    between atoms: N2_24  and  C1_15 
REMARK    5  A    between atoms: CB_17  and  CG_18 
REMARK    6  A    between atoms: C9_21  and  O2_22 
REMARK    7  A    between atoms: CA1_23  and  C9_21 
REMARK    8  A    between atoms: C9_21  and  CM_33 
REMARK    9  A    between atoms: CA1_23  and  N2_24 
REMARK   10  A    between atoms: CA1_23  and  CB1_25 
REMARK   11  A    between atoms: CB1_25  and  CG1_26 
REMARK   12  A    between atoms: CM_33  and  N11_32 
REMARK   13  A    between atoms: C21_34  and  CC_35 
REMARK       I    between atoms: CC_35  and  N3_45 
REMARK   14  A    between atoms: N3_45  and  CD_46 
ROOT
ATOM      1  CA1 ROC d          -0.336   4.037  10.227  0.00  0.00     0.118 C 
ENDROOT
BRANCH   1   2
ATOM      2  C9  ROC d           0.912   4.911  10.031  0.00  0.00     0.167 C 
BRANCH   2   3
ATOM      3  O2  ROC d           1.715   4.779  11.166  0.00  0.00    -0.392 OA
ATOM      4  H14 ROC d           2.494   5.313  11.065  0.00  0.00     0.210 HD
ENDBRANCH   2   3
BRANCH   2   5
ATOM      5  CM  ROC d           0.511   6.350   9.886  0.00  0.00     0.269 C 
BRANCH   5   6
ATOM      6  N11 ROC d           1.605   7.244   9.444  0.00  0.00    -0.057 N 
ATOM      7  C21 ROC d           2.683   7.420  10.459  0.00  0.00     0.265 C 
ATOM      8  C31 ROC d           3.716   8.403   9.938  0.00  0.00     0.046 C 
ATOM      9  C3A ROC d           3.196   9.720   9.416  0.00  0.00    -0.006 C 
ATOM     10  C41 ROC d           2.796  10.662  10.570  0.00  0.00     0.005 C 
ATOM     11  C7A ROC d           2.085   9.493   8.436  0.00  0.00     0.016 C 
ATOM     12  C51 ROC d           2.235  11.950  10.108  0.00  0.00     0.000 C 
ATOM     13  C61 ROC d           1.077  11.735   9.148  0.00  0.00     0.000 C 
ATOM     14  C71 ROC d           1.435  10.786   8.001  0.00  0.00     0.007 C 
ATOM     15  C81 ROC d           1.029   8.518   8.991  0.00  0.00     0.240 C 
ATOM     16  H24 ROC d           2.037   6.810   8.643  0.00  0.00     0.281 HD
BRANCH   7  17
ATOM     17  CC  ROC d           2.252   7.810  11.865  0.00  0.00     0.183 C 
ATOM     18  O3  ROC d           0.986   8.140  12.023  0.00  0.00    -0.175 OA
ATOM     19  N3  ROC d           3.312   7.742  12.766  0.00  0.00    -0.362 N 
ATOM     20  H42 ROC d           4.201   7.407  12.454  0.00  0.00     0.162 HD
BRANCH  19  21
ATOM     21  CD  ROC d           3.144   8.163  14.198  0.00  0.00     0.021 C 
ATOM     22  C11 ROC d           4.458   7.909  14.857  0.00  0.00     0.037 C 
ATOM     23  C22 ROC d           2.070   7.358  14.874  0.00  0.00     0.037 C 
ATOM     24  C32 ROC d           2.806   9.638  14.299  0.00  0.00     0.037 C 
ENDBRANCH  19  21
ENDBRANCH   7  17
ENDBRANCH   5   6
ENDBRANCH   2   5
ENDBRANCH   1   2
BRANCH   1  25
ATOM     25  N2  ROC d          -1.206   4.127   9.032  0.00  0.00    -0.363 N 
ATOM     26  C1  ROC d          -2.268   5.017   9.086  0.00  0.00     0.175 C 
ATOM     27  O1  ROC d          -2.659   5.951   9.958  0.00  0.00    -0.175 OA
ATOM     28  H16 ROC d          -1.035   3.569   8.220  0.00  0.00     0.162 HD
BRANCH  26  29
ATOM     29  CA  ROC d          -3.177   4.898   7.861  0.00  0.00     0.169 C 
BRANCH  29  30
ATOM     30  N   ROC d          -3.735   3.571   7.783  0.00  0.00    -0.354 N 
ATOM     31  C   ROC d          -3.823   3.039   6.536  0.00  0.00     0.204 C 
ATOM     32  O   ROC d          -3.414   3.389   5.321  0.00  0.00    -0.170 OA
ATOM     33  H7  ROC d          -4.038   3.073   8.596  0.00  0.00     0.162 HD
BRANCH  31  34
ATOM     34  C2  ROC d          -4.626   1.735   6.560  0.00  0.00     0.111 A 
ATOM     35  N1  ROC d          -5.686   1.597   5.701  0.00  0.00    -0.244 NA
ATOM     36  C8A ROC d          -6.449   0.440   5.700  0.00  0.00     0.068 A 
ATOM     37  C8  ROC d          -7.512   0.333   4.828  0.00  0.00     0.032 A 
ATOM     38  C4A ROC d          -6.136  -0.597   6.578  0.00  0.00    -0.007 A 
ATOM     39  C7  ROC d          -8.296  -0.845   4.827  0.00  0.00     0.002 A 
ATOM     40  C6  ROC d          -7.987  -1.875   5.692  0.00  0.00     0.001 A 
ATOM     41  C5  ROC d          -6.915  -1.764   6.569  0.00  0.00     0.014 A 
ATOM     42  C4  ROC d          -5.064  -0.467   7.446  0.00  0.00     0.016 A 
ATOM     43  C3  ROC d          -4.307   0.697   7.445  0.00  0.00     0.037 A 
ENDBRANCH  31  34
ENDBRANCH  29  30
BRANCH  29  44
ATOM     44  CB  ROC d          -4.287   5.957   7.802  0.00  0.00     0.120 C 
BRANCH  44  45
ATOM     45  CG  ROC d          -4.808   6.173   6.362  0.00  0.00     0.151 C 
ATOM     46  OD1 ROC d          -3.863   6.676   5.529  0.00  0.00    -0.178 OA
ATOM     47  ND2 ROC d          -6.118   5.803   6.277  0.00  0.00    -0.381 N 
ATOM     48  H11 ROC d          -6.604   5.882   5.407  0.00  0.00     0.158 HD
ATOM     49  H12 ROC d          -6.592   5.453   7.085  0.00  0.00     0.158 HD
ENDBRANCH  44  45
ENDBRANCH  29  44
ENDBRANCH  26  29
ENDBRANCH   1  25
BRANCH   1  50
ATOM     50  CB1 ROC d          -0.048   2.594  10.631  0.00  0.00     0.066 C 
BRANCH  50  51
ATOM     51  CG1 ROC d          -1.357   1.795  10.818  0.00  0.00    -0.056 A 
ATOM     52  CD1 ROC d          -2.438   2.334  11.490  0.00  0.00     0.007 A 
ATOM     53  CE1 ROC d          -3.622   1.579  11.654  0.00  0.00     0.001 A 
ATOM     54  CZ  ROC d          -3.708   0.291  11.139  0.00  0.00     0.000 A 
ATOM     55  CE2 ROC d          -2.629  -0.252  10.468  0.00  0.00     0.001 A 
ATOM     56  CD2 ROC d          -1.449   0.499  10.308  0.00  0.00     0.007 A 
ENDBRANCH  50  51
ENDBRANCH   1  50
TORSDOF 14
