REMARK  15 active torsions:
REMARK  status: ('A' for Active; 'I' for Inactive)
REMARK    1  A    between atoms: C2_2  and  N1_1 
REMARK    2  A    between atoms: C2_2  and  C4_4 
REMARK       I    between atoms: C4_4  and  N6_6 
REMARK    3  A    between atoms: N6_6  and  C7_7 
REMARK    4  A    between atoms: C7_7  and  C9_9 
REMARK    5  A    between atoms: C11_11  and  C12_12 
REMARK    6  A    between atoms: C12_12  and  C13_13 
REMARK    7  A    between atoms: N22_22  and  C23_23 
REMARK    8  A    between atoms: C23_23  and  C25_25 
REMARK       I    between atoms: C25_25  and  N27_27 
REMARK    9  A    between atoms: N27_27  and  C28_28 
REMARK   10  A    between atoms: C28_28  and  C29_29 
REMARK   11  A    between atoms: C28_28  and  C32_32 
REMARK       I    between atoms: C32_32  and  N34_34 
REMARK   12  A    between atoms: N34_34  and  C35_35 
REMARK   13  A    between atoms: C35_35  and  C37_36 
REMARK   14  A    between atoms: C35_35  and  C40_39 
REMARK   15  A    between atoms: C40_39  and  O41_41 
ROOT
ATOM      1  C9  GAN d          -7.694  17.345  23.727  0.00  0.00    -0.059 C 
ATOM      2  C10 GAN d          -7.053  18.271  24.548  0.00  0.00    -0.015 C 
ATOM      3  C11 GAN d          -7.006  18.130  26.090  0.00  0.00     0.038 C 
ATOM      4  C19 GAN d          -8.340  18.440  26.767  0.00  0.00     0.244 C 
ATOM      5  C20 GAN d          -8.308  16.071  24.274  0.00  0.00     0.064 C 
ATOM      6  C21 GAN d          -8.842  16.131  25.739  0.00  0.00     0.240 C 
ATOM      7  N22 GAN d          -9.322  17.468  26.209  0.00  0.00    -0.058 N 
ATOM      8  H28 GAN d          -9.434  17.899  25.305  0.00  0.00     0.281 HD
ENDROOT
BRANCH   7   9
ATOM      9  C23 GAN d         -10.734  17.552  26.653  0.00  0.00     0.275 C 
ATOM     10  C24 GAN d         -11.512  16.770  25.572  0.00  0.00     0.050 C 
BRANCH   9  11
ATOM     11  C25 GAN d         -11.187  17.144  28.089  0.00  0.00     0.249 C 
ATOM     12  O26 GAN d         -10.883  17.863  29.048  0.00  0.00    -0.271 OA
ATOM     13  N27 GAN d         -11.916  16.021  28.246  0.00  0.00    -0.346 N 
ATOM     14  H33 GAN d         -12.124  15.492  27.423  0.00  0.00     0.163 HD
BRANCH  13  15
ATOM     15  C28 GAN d         -12.428  15.510  29.515  0.00  0.00     0.180 C 
BRANCH  15  16
ATOM     16  C29 GAN d         -13.448  14.302  29.247  0.00  0.00     0.009 C 
ATOM     17  C30 GAN d         -14.296  14.147  30.466  0.00  0.00     0.012 C 
ATOM     18  C31 GAN d         -12.794  12.971  28.962  0.00  0.00     0.012 C 
ENDBRANCH  15  16
BRANCH  15  19
ATOM     19  C32 GAN d         -11.297  15.075  30.450  0.00  0.00     0.241 C 
ATOM     20  O33 GAN d         -10.354  14.382  30.032  0.00  0.00    -0.271 OA
ATOM     21  N34 GAN d         -11.405  15.449  31.711  0.00  0.00    -0.345 N 
ATOM     22  H42 GAN d         -12.190  16.015  31.962  0.00  0.00     0.163 HD
BRANCH  21  23
ATOM     23  C35 GAN d         -10.458  15.095  32.766  0.00  0.00     0.187 C 
BRANCH  23  24
ATOM     24  C37 GAN d          -9.235  16.034  33.034  0.00  0.00     0.010 C 
ATOM     25  C38 GAN d          -8.809  16.948  31.916  0.00  0.00     0.012 C 
ATOM     26  C39 GAN d          -8.081  15.070  33.178  0.00  0.00     0.012 C 
ENDBRANCH  23  24
BRANCH  23  27
ATOM     27  C40 GAN d         -11.390  15.250  33.991  0.00  0.00     0.281 C 
ATOM     28  O36 GAN d         -12.024  16.312  34.142  0.00  0.00    -0.263 OA
BRANCH  27  29
ATOM     29  O41 GAN d         -11.890  14.167  34.625  0.00  0.00    -0.325 OA
ATOM     30  C42 GAN d         -12.454  13.101  33.796  0.00  0.00     0.213 C 
ENDBRANCH  27  29
ENDBRANCH  23  27
ENDBRANCH  21  23
ENDBRANCH  15  19
ENDBRANCH  13  15
ENDBRANCH   9  11
ENDBRANCH   7   9
BRANCH   3  31
ATOM     31  C12 GAN d          -5.896  19.021  26.648  0.00  0.00     0.048 C 
BRANCH  31  32
ATOM     32  C13 GAN d          -4.621  18.440  26.061  0.00  0.00    -0.058 A 
ATOM     33  C14 GAN d          -3.837  19.234  25.219  0.00  0.00     0.007 A 
ATOM     34  C15 GAN d          -2.721  18.687  24.585  0.00  0.00     0.001 A 
ATOM     35  C16 GAN d          -2.398  17.352  24.789  0.00  0.00     0.000 A 
ATOM     36  C17 GAN d          -3.180  16.566  25.633  0.00  0.00     0.001 A 
ATOM     37  C18 GAN d          -4.290  17.096  26.277  0.00  0.00     0.007 A 
ENDBRANCH  31  32
ENDBRANCH   3  31
BRANCH   1  38
ATOM     38  C7  GAN d          -7.683  17.564  22.218  0.00  0.00     0.109 C 
ATOM     39  C8  GAN d          -8.705  16.717  21.472  0.00  0.00     0.037 C 
BRANCH  38  40
ATOM     40  N6  GAN d          -6.357  17.156  21.779  0.00  0.00    -0.351 N 
ATOM     41  C4  GAN d          -5.760  17.700  20.729  0.00  0.00     0.248 C 
ATOM     42  O5  GAN d          -6.283  18.590  20.058  0.00  0.00    -0.271 OA
ATOM     43  H8  GAN d          -5.880  16.440  22.288  0.00  0.00     0.163 HD
BRANCH  41  44
ATOM     44  C2  GAN d          -4.368  17.218  20.328  0.00  0.00     0.270 C 
ATOM     45  C3  GAN d          -3.362  18.372  20.475  0.00  0.00     0.050 C 
BRANCH  44  46
ATOM     46  N1  GAN d          -4.428  16.771  18.898  0.00  0.00    -0.067 N 
ATOM     47  H1  GAN d          -3.518  16.447  18.609  0.00  0.00     0.275 HD
ATOM     48  H2  GAN d          -4.710  17.544  18.316  0.00  0.00     0.275 HD
ATOM     49  H3  GAN d          -5.096  16.021  18.808  0.00  0.00     0.275 HD
ENDBRANCH  44  46
ENDBRANCH  41  44
ENDBRANCH  38  40
ENDBRANCH   1  38
TORSDOF 15
