REMARK  5 active torsions:
REMARK  status: ('A' for Active; 'I' for Inactive)
REMARK    1  A    between atoms: C1_1  and  C4_6 
REMARK    2  A    between atoms: C1_1  and  C5_8 
REMARK    3  A    between atoms: C2_3  and  N3_14 
REMARK    4  A    between atoms: C7_10  and  C14_18 
REMARK    5  A    between atoms: C16_20  and  C21_23 
ROOT
ATOM      1  C21 MOL d          29.645   9.481  22.686  0.00  0.00    -0.066 C 
ATOM      2  C22 MOL d          30.178   8.842  23.535  0.00  0.00    -0.105 C 
ATOM      3  C23 MOL d          30.866   8.079  24.579  0.00  0.00     0.112 C 
ENDROOT
BRANCH   1   4
ATOM      4  C16 MOL d          29.078  10.303  21.650  0.00  0.00     0.036 A 
ATOM      5  C15 MOL d          27.729  10.192  21.314  0.00  0.00     0.036 A 
ATOM      6  C14 MOL d          27.201  11.000  20.302  0.00  0.00    -0.007 A 
ATOM      7  C19 MOL d          28.071  11.882  19.667  0.00  0.00     0.128 A 
ATOM      8  N5  MOL d          29.369  12.003  19.972  0.00  0.00    -0.271 NA
ATOM      9  C17 MOL d          29.854  11.229  20.947  0.00  0.00     0.136 A 
BRANCH   6  10
ATOM     10  C7  MOL d          25.748  10.931  19.954  0.00  0.00    -0.024 A 
ATOM     11  C6  MOL d          24.793  10.757  20.962  0.00  0.00     0.022 A 
ATOM     12  C5  MOL d          23.429  10.786  20.663  0.00  0.00    -0.019 A 
ATOM     13  C10 MOL d          23.022  10.993  19.345  0.00  0.00     0.010 A 
ATOM     14  C9  MOL d          23.959  11.155  18.340  0.00  0.00     0.002 A 
ATOM     15  C8  MOL d          25.309  11.116  18.638  0.00  0.00     0.012 A 
BRANCH  12  16
ATOM     16  C1  MOL d          22.399  10.648  21.787  0.00  0.00     0.160 C 
ATOM     17  N1  MOL d          22.683   9.433  22.649  0.00  0.00    -0.203 N 
ATOM     18  C2  MOL d          22.852   9.847  23.906  0.00  0.00     0.677 C 
ATOM     19  H1  MOL d          22.736   8.458  22.321  0.00  0.00     0.179 HD
ATOM     20  N2  MOL d          22.890  11.262  24.019  0.00  0.00    -0.153 N 
ATOM     21  C3  MOL d          22.610  11.822  22.794  0.00  0.00     0.272 C 
ATOM     22  C11 MOL d          23.146  12.047  25.232  0.00  0.00     0.178 C 
ATOM     23  O1  MOL d          22.565  13.016  22.559  0.00  0.00    -0.269 OA
BRANCH  18  24
ATOM     24  N3  MOL d          23.056   9.072  24.975  0.00  0.00    -0.234 N 
ATOM     25  H7  MOL d          23.026   8.047  24.881  0.00  0.00     0.174 HD
ATOM     26  H8  MOL d          23.243   9.500  25.893  0.00  0.00     0.174 HD
ENDBRANCH  18  24
BRANCH  16  27
ATOM     27  C4  MOL d          20.908  10.727  21.344  0.00  0.00     0.029 A 
ATOM     28  C12 MOL d          19.785  10.229  22.214  0.00  0.00     0.008 A 
ATOM     29  C13 MOL d          20.158   9.485  20.965  0.00  0.00     0.008 A 
ENDBRANCH  16  27
ENDBRANCH  12  16
ENDBRANCH   6  10
ENDBRANCH   1   4
TORSDOF 5
