REMARK  7 active torsions:
REMARK  status: ('A' for Active; 'I' for Inactive)
REMARK    1  A    between atoms: C3_1  and  O1_17 
REMARK    2  A    between atoms: C4_5  and  C4A_6 
REMARK    3  A    between atoms: N2_7  and  C_8 
REMARK    4  A    between atoms: C_8  and  P2_13 
REMARK    5  A    between atoms: C5_19  and  C5A_20 
REMARK    6  A    between atoms: C5A_20  and  O2_21 
REMARK    7  A    between atoms: O2_21  and  P1_22 
ROOT
ATOM      1  C3  HCP d          16.108  52.480  15.596  0.00  0.00     0.102 A 
ATOM      2  C2  HCP d          16.409  53.011  14.386  0.00  0.00     0.064 A 
ATOM      3  N1  HCP d          17.620  52.700  13.698  0.00  0.00    -0.262 NA
ATOM      4  C6  HCP d          18.452  51.865  14.210  0.00  0.00     0.127 A 
ATOM      5  C4  HCP d          17.052  51.567  16.213  0.00  0.00     0.026 A 
ATOM      6  C2A HCP d          15.441  54.000  13.778  0.00  0.00     0.073 C 
ATOM      7  C5  HCP d          18.174  51.271  15.534  0.00  0.00    -0.002 A 
ENDROOT
BRANCH   5   8
ATOM      8  C4A HCP d          16.802  51.067  17.596  0.00  0.00     0.127 C 
ATOM      9  N2  HCP d          15.747  51.357  18.299  0.00  0.00    -0.276 NA
BRANCH   9  10
ATOM     10  C   HCP d          15.786  51.136  19.740  0.00  0.00     0.166 C 
ATOM     11  CA2 HCP d          16.553  52.304  20.453  0.00  0.00     0.048 C 
ATOM     12  CB2 HCP d          16.590  51.752  21.887  0.00  0.00     0.003 C 
ATOM     13  CB1 HCP d          16.685  50.146  21.708  0.00  0.00     0.003 C 
ATOM     14  CA1 HCP d          16.695  49.935  20.190  0.00  0.00     0.048 C 
BRANCH  10  15
ATOM     15  P2  HCP d          14.012  51.112  20.173  0.00  0.00     0.290 P 
ATOM     16  O8  HCP d          13.341  49.875  19.479  0.00  0.00    -0.638 OA
ATOM     17  O7  HCP d          13.367  52.413  19.568  0.00  0.00    -0.638 OA
ATOM     18  O6  HCP d          13.567  51.016  21.681  0.00  0.00    -0.638 OA
ENDBRANCH  10  15
ENDBRANCH   9  10
ENDBRANCH   5   8
BRANCH   1  19
ATOM     19  O1  HCP d          14.883  52.857  16.240  0.00  0.00    -0.358 OA
ATOM     20  H11 HCP d          15.079  53.281  17.067  0.00  0.00     0.217 HD
ENDBRANCH   1  19
BRANCH   7  21
ATOM     21  C5A HCP d          19.201  50.352  16.060  0.00  0.00     0.223 C 
BRANCH  21  22
ATOM     22  O2  HCP d          19.077  49.058  15.609  0.00  0.00    -0.278 OA
BRANCH  22  23
ATOM     23  P1  HCP d          19.885  48.204  16.564  0.00  0.00     0.422 P 
ATOM     24  O4  HCP d          21.254  48.202  15.901  0.00  0.00    -0.617 OA
ATOM     25  O3  HCP d          19.408  46.758  16.661  0.00  0.00    -0.617 OA
ATOM     26  O5  HCP d          20.178  48.876  17.912  0.00  0.00    -0.617 OA
ENDBRANCH  22  23
ENDBRANCH  21  22
ENDBRANCH   7  21
TORSDOF 7
