REMARK  11 active torsions:
REMARK  status: ('A' for Active; 'I' for Inactive)
REMARK    1  A    between atoms: C_2  and  CA_4 
REMARK    2  A    between atoms: CA_4  and  N_5 
REMARK    3  A    between atoms: CA_4  and  CB_6 
REMARK    4  A    between atoms: CB_6  and  CG_7 
REMARK    5  A    between atoms: CG_7  and  S5'_8 
REMARK    6  A    between atoms: S5'_8  and  C5'_9 
REMARK    7  A    between atoms: C5'_9  and  C4'_10 
REMARK    8  A    between atoms: C3'_12  and  O3'_13 
REMARK    9  A    between atoms: N1'_15  and  C10_16 
REMARK   10  A    between atoms: C10_16  and  C9_17 
REMARK   11  A    between atoms: C6_25  and  N6_26 
ROOT
ATOM      1  C4' HCE d          -6.043  -1.673  20.365  0.00  0.00     0.051 C 
ATOM      2  C1' HCE d          -5.866  -0.963  21.680  0.00  0.00     0.243 C 
ATOM      3  C3' HCE d          -7.362  -1.166  19.855  0.00  0.00     0.150 C 
ATOM      4  C2' HCE d          -7.447   0.313  20.316  0.00  0.00     0.267 C 
ATOM      5  N1' HCE d          -6.961   0.072  21.713  0.00  0.00    -0.064 N 
ATOM      6  H18 HCE d          -7.739  -0.358  22.189  0.00  0.00     0.280 HD
ENDROOT
BRANCH   5   7
ATOM      7  C10 HCE d          -6.628   1.209  22.534  0.00  0.00     0.277 C 
BRANCH   7   8
ATOM      8  C9  HCE d          -5.341   2.051  22.141  0.00  0.00     0.014 A 
ATOM      9  C8  HCE d          -4.205   2.085  22.857  0.00  0.00     0.099 A 
ATOM     10  N7  HCE d          -3.360   2.894  22.242  0.00  0.00    -0.360 N 
ATOM     11  C5  HCE d          -3.952   3.434  21.154  0.00  0.00     0.107 A 
ATOM     12  H22 HCE d          -2.395   3.084  22.547  0.00  0.00     0.165 HD
ATOM     13  C4  HCE d          -5.202   2.889  21.097  0.00  0.00     0.098 A 
ATOM     14  C6  HCE d          -3.553   4.313  20.189  0.00  0.00     0.151 A 
ATOM     15  N3  HCE d          -6.049   3.214  20.091  0.00  0.00    -0.239 NA
ATOM     16  C2  HCE d          -5.632   4.115  19.101  0.00  0.00     0.236 A 
ATOM     17  N1  HCE d          -4.351   4.643  19.154  0.00  0.00    -0.223 NA
BRANCH  14  18
ATOM     18  N6  HCE d          -2.314   4.852  20.226  0.00  0.00    -0.382 N 
ATOM     19  H24 HCE d          -2.019   5.515  19.495  0.00  0.00     0.157 HD
ATOM     20  H25 HCE d          -1.665   4.600  20.985  0.00  0.00     0.157 HD
ENDBRANCH  14  18
ENDBRANCH   7   8
ENDBRANCH   5   7
BRANCH   1  21
ATOM     21  C5' HCE d          -4.841  -1.320  19.442  0.00  0.00     0.082 C 
BRANCH  21  22
ATOM     22  S5' HCE d          -4.966  -2.278  17.911  0.00  0.00    -0.169 SA
BRANCH  22  23
ATOM     23  CG  HCE d          -4.228  -3.895  18.437  0.00  0.00     0.076 C 
BRANCH  23  24
ATOM     24  CB  HCE d          -3.554  -4.529  17.257  0.00  0.00     0.054 C 
BRANCH  24  25
ATOM     25  CA  HCE d          -3.113  -5.892  17.733  0.00  0.00     0.284 C 
BRANCH  25  26
ATOM     26  C   HCE d          -2.846  -6.758  16.507  0.00  0.00     0.204 C 
ATOM     27  O   HCE d          -1.684  -6.793  16.039  0.00  0.00    -0.646 OA
ATOM     28  OXT HCE d          -3.806  -7.416  16.087  0.00  0.00    -0.646 OA
ENDBRANCH  25  26
BRANCH  25  29
ATOM     29  N   HCE d          -1.909  -5.806  18.559  0.00  0.00    -0.065 N 
ATOM     30  H2  HCE d          -2.096  -5.232  19.366  0.00  0.00     0.275 HD
ATOM     31  H3  HCE d          -1.161  -5.397  18.021  0.00  0.00     0.275 HD
ATOM     32  H4  HCE d          -1.641  -6.730  18.859  0.00  0.00     0.275 HD
ENDBRANCH  25  29
ENDBRANCH  24  25
ENDBRANCH  23  24
ENDBRANCH  22  23
ENDBRANCH  21  22
ENDBRANCH   1  21
BRANCH   3  33
ATOM     33  O3' HCE d          -8.456  -1.937  20.435  0.00  0.00    -0.393 OA
ATOM     34  H15 HCE d          -9.284  -1.607  20.105  0.00  0.00     0.210 HD
ENDBRANCH   3  33
TORSDOF 11
