4qiy_ligand

Created by X-TOOL on Sun Nov 13 14:28:18 2016
 56 58  0  0  0  0  0  0  0  0999 V2000
    4.0670    3.0700    6.9020  O 0  0  0  1  0  1
    3.0490    3.9840    7.6530  S 0  0  0  1  0  4
    3.5570    5.4380    7.5670  O 0  0  0  1  0  1
    1.5770    3.6850    9.9530  C 0  0  0  3  0  4
    1.3220    5.0360    9.9960  O 0  0  0  2  0  2
    2.9500    3.3520    9.3450  C 0  0  0  3  0  4
    1.4550    3.8710    6.8300  C 0  0  0  1  0  3
    0.9810    2.5410    6.7590  C 0  0  0  1  0  3
    1.6930    1.5300    7.4110  F 0  0  0  1  0  1
   -0.1860    2.2530    6.1380  C 0  0  0  1  0  3
   -0.5740    0.9370    6.2350  F 0  0  0  1  0  1
    0.6860    4.8610    6.2170  C 0  0  0  1  0  3
   -0.4160    4.5000    5.4380  C 0  0  0  1  0  3
   -1.0660    5.4940    4.7880  F 0  0  0  1  0  1
   -0.9530    3.2100    5.3990  C 0  0  0  1  0  3
   -2.2910    2.7750    4.1690  S 0  0  0  1  0  4
   -3.6050    3.2500    4.6050  O 0  0  0  1  0  1
   -2.2490    1.1940    4.3250  N 0  0  0  3  0  3
   -1.8310    3.1260    2.8930  O 0  0  0  1  0  1
    1.1960    6.2210    6.2710  N 0  0  0  2  0  3
    0.3000    7.3670    6.4350  C 0  0  0  2  0  4
    0.4350    8.3330    5.3310  C 0  0  0  1  0  3
    1.6780    8.6050    4.7290  C 0  0  0  2  0  3
    1.7470    9.5720    3.6940  C 0  0  0  2  0  3
    0.5770   10.3540    3.3050  C 0  0  0  2  0  3
   -0.6170   10.0880    3.9630  C 0  0  0  2  0  3
   -0.7400    9.0650    4.9740  C 0  0  0  2  0  3
    0.6180    8.0340    7.8120  C 0  0  0  2  0  4
    2.0070    8.3670    7.8490  O 0  0  0  2  0  2
   -0.2400    9.2230    8.1530  C 0  0  0  1  0  3
    0.1930   10.5430    7.9570  C 0  0  0  2  0  3
   -0.6890   11.6170    8.3090  C 0  0  0  2  0  3
   -1.9390   11.3380    8.8140  C 0  0  0  2  0  3
   -2.3480   10.0280    9.0080  C 0  0  0  2  0  3
   -1.4960    8.9960    8.6400  C 0  0  0  2  0  3
    0.7980    3.2003    9.3462  H 0  0  0  1  0  1
    1.5424    3.2888   10.9786  H 0  0  0  1  0  1
    0.4651    5.1834   10.3787  H 0  0  0  1  0  1
    3.7399    3.8162    9.9538  H 0  0  0  1  0  1
    3.0885    2.2608    9.3347  H 0  0  0  1  0  1
   -2.8662    0.6217    3.7850  H 0  0  0  1  0  1
   -1.6054    0.7715    4.9632  H 0  0  0  1  0  1
    2.2103    6.3820    6.1921  H 0  0  0  1  0  1
   -0.7385    7.0046    6.4467  H 0  0  0  1  0  1
    2.5708    8.0821    5.0523  H 0  0  0  1  0  1
    2.6881    9.7340    3.1809  H 0  0  0  1  0  1
    0.6378   11.1125    2.5329  H 0  0  0  1  0  1
   -1.4929   10.6730    3.7066  H 0  0  0  1  0  1
   -1.6930    8.8584    5.4475  H 0  0  0  1  0  1
    0.4316    7.2782    8.5892  H 0  0  0  1  0  1
    2.5238    7.5767    7.7454  H 0  0  0  1  0  1
    1.1756   10.7469    7.5473  H 0  0  0  1  0  1
   -0.3727   12.6455    8.1779  H 0  0  0  1  0  1
   -2.6106   12.1517    9.0626  H 0  0  0  1  0  1
   -3.3184    9.8128    9.4405  H 0  0  0  1  0  1
   -1.8396    7.9730    8.7427  H 0  0  0  1  0  1
  2  1  2  0  0  2
  2  3  2  0  0  2
  6  2  1  0  0  2
  2  7  1  0  0  2
  4  5  1  0  0  2
  4  6  1  0  0  2
  7  8  4  0  0  1
  7 12  4  0  0  1
  8  9  1  0  0  2
  8 10  4  0  0  1
 10 11  1  0  0  2
 10 15  4  0  0  1
 12 13  4  0  0  1
 12 20  1  0  0  2
 13 14  1  0  0  2
 13 15  4  0  0  1
 15 16  1  0  0  2
 16 17  2  0  0  2
 16 18  1  0  0  2
 16 19  2  0  0  2
 20 21  1  0  0  2
 21 22  1  0  0  2
 21 28  1  0  0  2
 22 23  4  0  0  1
 22 27  4  0  0  1
 23 24  4  0  0  1
 24 25  4  0  0  1
 25 26  4  0  0  1
 26 27  4  0  0  1
 28 29  1  0  0  2
 28 30  1  0  0  2
 30 31  4  0  0  1
 30 35  4  0  0  1
 31 32  4  0  0  1
 32 33  4  0  0  1
 33 34  4  0  0  1
 34 35  4  0  0  1
  4 36  1  0  0  2
  4 37  1  0  0  2
  5 38  1  0  0  2
  6 39  1  0  0  2
  6 40  1  0  0  2
 18 41  1  0  0  2
 18 42  1  0  0  2
 20 43  1  0  0  2
 21 44  1  0  0  2
 23 45  1  0  0  2
 24 46  1  0  0  2
 25 47  1  0  0  2
 26 48  1  0  0  2
 27 49  1  0  0  2
 28 50  1  0  0  2
 29 51  1  0  0  2
 31 52  1  0  0  2
 32 53  1  0  0  2
 33 54  1  0  0  2
 34 55  1  0  0  2
 35 56  1  0  0  2
M  END
> <MOLECULAR_FORMULA>
C22H21N2O6S2F3

> <MOLECULAR_WEIGHT>
530.4

> <NUM_HB_ATOMS>
8  

> <NUM_ROTOR>
8  

> <XLOGP2>
2.99 

$$$$
