REMARK  12 active torsions:
REMARK  status: ('A' for Active; 'I' for Inactive)
REMARK    1  A    between atoms: C17_6  and  S14_2 
REMARK    2  A    between atoms: S14_2  and  C8_7 
REMARK    3  A    between atoms: C18_4  and  O20_5 
REMARK    4  A    between atoms: C18_4  and  C17_6 
REMARK    5  A    between atoms: C9_12  and  N19_20 
REMARK    6  A    between atoms: C5_15  and  S1_16 
REMARK    7  A    between atoms: S1_16  and  N4_18 
REMARK    8  A    between atoms: N19_20  and  C21_21 
REMARK    9  A    between atoms: C21_21  and  C30_22 
REMARK   10  A    between atoms: C21_21  and  C22_28 
REMARK   11  A    between atoms: C22_28  and  O29_29 
REMARK   12  A    between atoms: C22_28  and  C23_30 
ROOT
ATOM      1  C8  WWX d           1.455   3.871   6.830  0.00  0.00     0.130 C 
ATOM      2  C7  WWX d           0.981   2.541   6.759  0.00  0.00     0.180 C 
ATOM      3  F12 WWX d           1.693   1.530   7.411  0.00  0.00    -0.201 F 
ATOM      4  C6  WWX d          -0.186   2.253   6.138  0.00  0.00     0.182 C 
ATOM      5  F11 WWX d          -0.574   0.937   6.235  0.00  0.00    -0.201 F 
ATOM      6  C9  WWX d           0.686   4.861   6.217  0.00  0.00     0.094 C 
ATOM      7  C10 WWX d          -0.416   4.500   5.438  0.00  0.00     0.170 C 
ATOM      8  F13 WWX d          -1.066   5.494   4.788  0.00  0.00    -0.202 F 
ATOM      9  C5  WWX d          -0.953   3.210   5.399  0.00  0.00     0.161 C 
ENDROOT
BRANCH   6  10
ATOM     10  N19 WWX d           1.196   6.221   6.271  0.00  0.00    -0.375 N 
ATOM     11  H8  WWX d           2.210   6.382   6.192  0.00  0.00     0.160 HD
BRANCH  10  12
ATOM     12  C21 WWX d           0.300   7.367   6.435  0.00  0.00     0.148 C 
BRANCH  12  13
ATOM     13  C30 WWX d           0.435   8.333   5.331  0.00  0.00    -0.033 A 
ATOM     14  C35 WWX d           1.678   8.605   4.729  0.00  0.00     0.009 A 
ATOM     15  C34 WWX d           1.747   9.572   3.694  0.00  0.00     0.001 A 
ATOM     16  C33 WWX d           0.577  10.354   3.305  0.00  0.00     0.000 A 
ATOM     17  C32 WWX d          -0.617  10.088   3.963  0.00  0.00     0.001 A 
ATOM     18  C31 WWX d          -0.740   9.065   4.974  0.00  0.00     0.009 A 
ENDBRANCH  12  13
BRANCH  12  19
ATOM     19  C22 WWX d           0.618   8.034   7.812  0.00  0.00     0.178 C 
BRANCH  19  20
ATOM     20  O29 WWX d           2.007   8.367   7.849  0.00  0.00    -0.388 OA
ATOM     21  H16 WWX d           2.524   7.577   7.745  0.00  0.00     0.210 HD
ENDBRANCH  19  20
BRANCH  19  22
ATOM     22  C23 WWX d          -0.240   9.223   8.153  0.00  0.00    -0.027 A 
ATOM     23  C28 WWX d           0.193  10.543   7.957  0.00  0.00     0.010 A 
ATOM     24  C27 WWX d          -0.689  11.617   8.309  0.00  0.00     0.001 A 
ATOM     25  C26 WWX d          -1.939  11.338   8.814  0.00  0.00     0.000 A 
ATOM     26  C25 WWX d          -2.348  10.028   9.008  0.00  0.00     0.001 A 
ATOM     27  C24 WWX d          -1.496   8.996   8.640  0.00  0.00     0.010 A 
ENDBRANCH  19  22
ENDBRANCH  12  19
ENDBRANCH  10  12
ENDBRANCH   6  10
BRANCH   1  28
ATOM     28  S14 WWX d           3.049   3.984   7.653  0.00  0.00     0.182 S 
ATOM     29  O16 WWX d           4.067   3.070   6.902  0.00  0.00    -0.222 OA
ATOM     30  O15 WWX d           3.557   5.438   7.567  0.00  0.00    -0.222 OA
BRANCH  28  31
ATOM     31  C17 WWX d           2.950   3.352   9.345  0.00  0.00     0.172 C 
BRANCH  31  32
ATOM     32  C18 WWX d           1.577   3.685   9.953  0.00  0.00     0.179 C 
BRANCH  32  33
ATOM     33  O20 WWX d           1.322   5.036   9.996  0.00  0.00    -0.400 OA
ATOM     34  H3  WWX d           0.465   5.183  10.379  0.00  0.00     0.209 HD
ENDBRANCH  32  33
ENDBRANCH  31  32
ENDBRANCH  28  31
ENDBRANCH   1  28
BRANCH   9  35
ATOM     35  S1  WWX d          -2.291   2.775   4.169  0.00  0.00     0.263 S 
ATOM     36  O3  WWX d          -3.605   3.250   4.605  0.00  0.00    -0.201 OA
ATOM     37  O2  WWX d          -1.831   3.126   2.893  0.00  0.00    -0.201 OA
BRANCH  35  38
ATOM     38  N4  WWX d          -2.249   1.194   4.325  0.00  0.00    -0.324 N 
ATOM     39  H6  WWX d          -2.866   0.622   3.785  0.00  0.00     0.169 HD
ATOM     40  H7  WWX d          -1.605   0.771   4.963  0.00  0.00     0.169 HD
ENDBRANCH  35  38
ENDBRANCH   9  35
TORSDOF 12
