REMARK  10 active torsions:
REMARK  status: ('A' for Active; 'I' for Inactive)
REMARK    1  A    between atoms: C13_3  and  O25_4 
REMARK    2  A    between atoms: O25_4  and  C26_5 
REMARK    3  A    between atoms: C9_11  and  O23_12 
REMARK    4  A    between atoms: O23_12  and  C24_13 
REMARK    5  A    between atoms: C11_16  and  C14_17 
REMARK    6  A    between atoms: C14_17  and  C15_18 
REMARK    7  A    between atoms: C14_17  and  N3_21 
REMARK    8  A    between atoms: N3_21  and  C1_22 
REMARK    9  A    between atoms: C4_25  and  C7_26 
REMARK   10  A    between atoms: C7_26  and  N1_27 
ROOT
ATOM      1  C14 MOL d          10.023  40.211  32.302  0.00  0.00     0.220 C 
ENDROOT
BRANCH   1   2
ATOM      2  C11 MOL d          10.457  41.622  32.035  0.00  0.00     0.019 A 
ATOM      3  C12 MOL d           9.972  42.327  30.928  0.00  0.00     0.158 A 
ATOM      4  F30 MOL d           9.108  41.738  30.075  0.00  0.00    -0.203 F 
ATOM      5  C13 MOL d          10.347  43.614  30.652  0.00  0.00     0.111 A 
ATOM      6  C8  MOL d          11.241  44.276  31.494  0.00  0.00     0.076 A 
ATOM      7  C9  MOL d          11.730  43.601  32.621  0.00  0.00     0.072 A 
ATOM      8  C10 MOL d          11.348  42.277  32.880  0.00  0.00     0.049 A 
BRANCH   5   9
ATOM      9  O25 MOL d           9.785  44.171  29.517  0.00  0.00    -0.340 OA
BRANCH   9  10
ATOM     10  C26 MOL d          10.201  45.494  29.198  0.00  0.00     0.154 C 
ATOM     11  C27 MOL d           9.332  45.985  28.048  0.00  0.00     0.061 C 
ATOM     12  C29 MOL d          10.136  45.540  26.840  0.00  0.00     0.170 C 
ATOM     13  O28 MOL d          11.518  45.557  27.222  0.00  0.00    -0.389 OA
ATOM     14  C31 MOL d          11.633  45.495  28.653  0.00  0.00     0.200 C 
ENDBRANCH   9  10
ENDBRANCH   5   9
BRANCH   7  15
ATOM     15  O23 MOL d          12.629  44.356  33.371  0.00  0.00    -0.351 OA
BRANCH  15  16
ATOM     16  C24 MOL d          13.187  43.660  34.492  0.00  0.00     0.171 C 
ATOM     17  C30 MOL d          14.192  44.527  35.228  0.00  0.00     0.034 C 
ENDBRANCH  15  16
ENDBRANCH   7  15
ENDBRANCH   1   2
BRANCH   1  18
ATOM     18  C15 MOL d           9.256  40.129  33.587  0.00  0.00     0.201 C 
ATOM     19  O2  MOL d           8.113  40.684  33.585  0.00  0.00    -0.646 OA
ATOM     20  O1  MOL d           9.728  39.513  34.607  0.00  0.00    -0.646 OA
ENDBRANCH   1  18
BRANCH   1  21
ATOM     21  N3  MOL d          11.218  39.353  32.373  0.00  0.00    -0.372 N 
ATOM     22  H16 MOL d          11.549  39.054  33.302  0.00  0.00     0.161 HD
BRANCH  21  23
ATOM     23  C1  MOL d          11.923  38.925  31.257  0.00  0.00     0.029 A 
ATOM     24  C2  MOL d          11.499  39.168  29.952  0.00  0.00     0.030 A 
ATOM     25  C3  MOL d          12.261  38.698  28.920  0.00  0.00     0.017 A 
ATOM     26  C4  MOL d          13.451  37.989  29.111  0.00  0.00     0.007 A 
ATOM     27  C5  MOL d          13.874  37.741  30.422  0.00  0.00     0.017 A 
ATOM     28  C6  MOL d          13.118  38.217  31.457  0.00  0.00     0.030 A 
BRANCH  26  29
ATOM     29  C7  MOL d          14.222  37.522  27.987  0.00  0.00     0.102 C 
ATOM     30  N2  MOL d          15.379  36.870  28.141  0.00  0.00    -0.385 N 
ATOM     31  H21 MOL d          15.768  36.727  29.084  0.00  0.00     0.157 HD
ATOM     32  H22 MOL d          15.882  36.511  27.317  0.00  0.00     0.157 HD
BRANCH  29  33
ATOM     33  N1  MOL d          13.792  37.660  26.703  0.00  0.00    -0.385 N 
ATOM     34  H19 MOL d          14.372  37.313  25.926  0.00  0.00     0.157 HD
ATOM     35  H20 MOL d          12.887  38.111  26.509  0.00  0.00     0.157 HD
ENDBRANCH  29  33
ENDBRANCH  26  29
ENDBRANCH  21  23
ENDBRANCH   1  21
TORSDOF 10
