REMARK  11 active torsions:
REMARK  status: ('A' for Active; 'I' for Inactive)
REMARK    1  A    between atoms: C2_2  and  C3_3 
REMARK    2  A    between atoms: C3_3  and  C4_4 
REMARK    3  A    between atoms: C3_3  and  O8_8 
REMARK    4  A    between atoms: C4_4  and  C5_5 
REMARK    5  A    between atoms: C5_5  and  C6_6 
REMARK    6  A    between atoms: C5_5  and  C9_9 
REMARK       I    between atoms: C6_6  and  N18_18 
REMARK    7  A    between atoms: C14_14  and  C15_15 
REMARK    8  A    between atoms: N18_18  and  C14_14 
REMARK    9  A    between atoms: C21_21  and  N27_27 
REMARK   10  A    between atoms: N27_27  and  S29_29 
REMARK   11  A    between atoms: C36_36  and  C44_44 
ROOT
ATOM      1  N1  MOL d          -9.939 -27.878 -36.241  0.00  0.00    -0.348 N 
ATOM      2  C2  MOL d         -10.556 -28.391 -37.462  0.00  0.00     0.137 C 
ATOM      3  C7  MOL d         -11.164 -27.152 -38.174  0.00  0.00     0.195 C 
ATOM      4  O13 MOL d         -12.027 -26.402 -37.328  0.00  0.00    -0.385 OA
ATOM      5  C19 MOL d          -9.531 -27.695 -33.901  0.00  0.00     0.035 A 
ATOM      6  C20 MOL d          -8.690 -28.197 -32.914  0.00  0.00     0.047 A 
ATOM      7  C21 MOL d          -8.263 -27.339 -31.886  0.00  0.00     0.046 A 
ATOM      8  C22 MOL d          -8.682 -26.007 -31.833  0.00  0.00     0.047 A 
ATOM      9  C23 MOL d          -9.571 -25.525 -32.784  0.00  0.00     0.035 A 
ATOM     10  C24 MOL d          -9.988 -26.380 -33.801  0.00  0.00     0.034 A 
ATOM     11  C25 MOL d         -10.102 -28.456 -35.044  0.00  0.00     0.252 C 
ATOM     12  C26 MOL d         -10.052 -24.099 -32.806  0.00  0.00     0.252 C 
ATOM     13  O31 MOL d          -9.305 -23.168 -32.588  0.00  0.00    -0.268 OA
ATOM     14  O32 MOL d         -10.739 -29.499 -34.856  0.00  0.00    -0.268 OA
ATOM     15  N35 MOL d         -11.325 -23.947 -33.081  0.00  0.00    -0.344 N 
ATOM     16  C36 MOL d         -12.191 -22.820 -33.385  0.00  0.00     0.151 C 
ATOM     17  C37 MOL d         -13.036 -23.242 -34.525  0.00  0.00    -0.030 A 
ATOM     18  C38 MOL d         -13.062 -24.378 -36.664  0.00  0.00    -0.034 A 
ATOM     19  C39 MOL d         -14.463 -24.255 -36.668  0.00  0.00     0.009 A 
ATOM     20  C40 MOL d         -15.142 -23.662 -35.599  0.00  0.00     0.001 A 
ATOM     21  C41 MOL d         -14.423 -23.170 -34.506  0.00  0.00     0.009 A 
ATOM     22  C42 MOL d         -12.353 -23.887 -35.565  0.00  0.00     0.019 A 
ATOM     23  C43 MOL d         -12.377 -25.082 -37.813  0.00  0.00     0.206 C 
ATOM     24  H1  MOL d          -9.369 -27.058 -36.302  0.00  0.00     0.163 HD
ATOM     25  H36 MOL d         -11.819 -24.816 -33.082  0.00  0.00     0.163 HD
ENDROOT
BRANCH   2  26
ATOM     26  C3  MOL d          -9.602 -29.180 -38.360  0.00  0.00     0.143 C 
BRANCH  26  27
ATOM     27  C4  MOL d          -9.140 -30.454 -37.614  0.00  0.00     0.048 C 
BRANCH  27  28
ATOM     28  C5  MOL d          -8.702 -31.613 -38.513  0.00  0.00     0.083 C 
BRANCH  28  29
ATOM     29  C6  MOL d          -9.972 -32.306 -38.935  0.00  0.00     0.222 C 
ATOM     30  O12 MOL d         -10.713 -32.753 -38.079  0.00  0.00    -0.273 OA
ATOM     31  N18 MOL d         -10.246 -32.399 -40.231  0.00  0.00    -0.360 N 
ATOM     32  H26 MOL d          -9.582 -32.004 -40.865  0.00  0.00     0.162 HD
BRANCH  31  33
ATOM     33  C14 MOL d         -11.435 -33.029 -40.817  0.00  0.00     0.126 C 
BRANCH  33  34
ATOM     34  C15 MOL d         -11.068 -34.303 -41.562  0.00  0.00    -0.005 C 
ATOM     35  C16 MOL d         -12.372 -34.865 -42.145  0.00  0.00     0.011 C 
ATOM     36  C17 MOL d         -10.021 -34.077 -42.656  0.00  0.00     0.011 C 
ENDBRANCH  33  34
ENDBRANCH  31  33
ENDBRANCH  28  29
BRANCH  28  37
ATOM     37  C9  MOL d          -7.737 -32.563 -37.766  0.00  0.00    -0.010 C 
ATOM     38  C10 MOL d          -6.413 -31.891 -37.387  0.00  0.00     0.010 C 
ATOM     39  C11 MOL d          -7.472 -33.828 -38.593  0.00  0.00     0.010 C 
ENDBRANCH  28  37
ENDBRANCH  27  28
ENDBRANCH  26  27
BRANCH  26  40
ATOM     40  O8  MOL d          -8.464 -28.401 -38.747  0.00  0.00    -0.393 OA
ATOM     41  H9  MOL d          -8.756 -27.621 -39.204  0.00  0.00     0.210 HD
ENDBRANCH  26  40
ENDBRANCH   2  26
BRANCH   7  42
ATOM     42  N27 MOL d          -7.344 -27.843 -30.930  0.00  0.00    -0.281 N 
ATOM     43  C28 MOL d          -7.820 -28.943 -30.086  0.00  0.00     0.169 C 
BRANCH  42  44
ATOM     44  S29 MOL d          -5.870 -27.368 -30.942  0.00  0.00     0.228 S 
ATOM     45  C30 MOL d          -5.779 -25.837 -31.416  0.00  0.00     0.186 C 
ATOM     46  O33 MOL d          -5.138 -28.171 -31.931  0.00  0.00    -0.206 OA
ATOM     47  O34 MOL d          -5.246 -27.551 -29.656  0.00  0.00    -0.206 OA
ENDBRANCH  42  44
ENDBRANCH   7  42
BRANCH  16  48
ATOM     48  C44 MOL d         -12.973 -22.323 -32.203  0.00  0.00    -0.031 A 
ATOM     49  C45 MOL d         -13.427 -23.185 -31.193  0.00  0.00     0.009 A 
ATOM     50  C46 MOL d         -14.128 -22.698 -30.094  0.00  0.00     0.001 A 
ATOM     51  C47 MOL d         -14.377 -21.324 -29.994  0.00  0.00     0.000 A 
ATOM     52  C48 MOL d         -13.918 -20.461 -30.981  0.00  0.00     0.001 A 
ATOM     53  C49 MOL d         -13.220 -20.951 -32.081  0.00  0.00     0.009 A 
ENDBRANCH  16  48
TORSDOF 11
