REMARK  2 active torsions:
REMARK  status: ('A' for Active; 'I' for Inactive)
REMARK    1  A    between atoms: N1_1  and  O3_11 
REMARK    2  A    between atoms: C3_3  and  C7_7 
ROOT
ATOM      1  N1  NNO d          14.189   9.489  40.747  0.00  0.00    -0.198 N 
ATOM      2  C2  NNO d          14.955  10.455  40.300  0.00  0.00     0.145 A 
ATOM      3  C3  NNO d          14.800  11.816  40.690  0.00  0.00     0.059 A 
ATOM      4  C4  NNO d          13.750  12.119  41.557  0.00  0.00     0.025 A 
ATOM      5  C5  NNO d          12.935  11.111  42.032  0.00  0.00     0.078 A 
ATOM      6  C6  NNO d          13.175   9.793  41.594  0.00  0.00     0.271 A 
ATOM      7  O4  NNO d          12.361   8.880  41.984  0.00  0.00    -0.266 OA
ENDROOT
BRANCH   3   8
ATOM      8  C7  NNO d          15.776  12.915  40.228  0.00  0.00     0.210 C 
ATOM      9  O2  NNO d          15.657  14.089  40.575  0.00  0.00    -0.644 OA
ATOM     10  O1  NNO d          16.697  12.603  39.470  0.00  0.00    -0.644 OA
ENDBRANCH   3   8
BRANCH   1  11
ATOM     11  O3  NNO d          14.327   8.310  40.352  0.00  0.00    -0.280 OA
ATOM     12  H4  NNO d          13.544   8.039  39.888  0.00  0.00     0.245 HD
ENDBRANCH   1  11
TORSDOF 2
