REMARK  12 active torsions:
REMARK  status: ('A' for Active; 'I' for Inactive)
REMARK    1  A    between atoms: C17_6  and  S14_2 
REMARK    2  A    between atoms: S14_2  and  C8_7 
REMARK    3  A    between atoms: C18_4  and  O20_5 
REMARK    4  A    between atoms: C18_4  and  C17_6 
REMARK    5  A    between atoms: C9_12  and  N19_20 
REMARK    6  A    between atoms: C5_15  and  S1_16 
REMARK    7  A    between atoms: S1_16  and  N4_18 
REMARK    8  A    between atoms: N19_20  and  C21_21 
REMARK    9  A    between atoms: C21_21  and  C30_22 
REMARK   10  A    between atoms: C21_21  and  C22_28 
REMARK   11  A    between atoms: C22_28  and  O29_29 
REMARK   12  A    between atoms: C22_28  and  C23_30 
ROOT
ATOM      1  C8  WWX d           5.570 -23.858 -12.601  0.00  0.00     0.130 A 
ATOM      2  C7  WWX d           6.089 -25.068 -12.071  0.00  0.00     0.180 A 
ATOM      3  F12 WWX d           5.953 -26.375 -12.782  0.00  0.00    -0.201 F 
ATOM      4  C6  WWX d           6.862 -24.959 -10.833  0.00  0.00     0.182 A 
ATOM      5  F11 WWX d           7.305 -26.155 -10.424  0.00  0.00    -0.201 F 
ATOM      6  C9  WWX d           5.717 -22.527 -11.991  0.00  0.00     0.094 A 
ATOM      7  C10 WWX d           6.428 -22.600 -10.786  0.00  0.00     0.170 A 
ATOM      8  F13 WWX d           6.614 -21.482 -10.003  0.00  0.00    -0.202 F 
ATOM      9  C5  WWX d           7.010 -23.737 -10.134  0.00  0.00     0.161 A 
ENDROOT
BRANCH   6  10
ATOM     10  N19 WWX d           5.076 -21.236 -12.614  0.00  0.00    -0.375 N 
ATOM     11  H8  WWX d           4.072 -21.216 -12.386  0.00  0.00     0.160 HD
BRANCH  10  12
ATOM     12  C21 WWX d           5.413 -20.042 -13.412  0.00  0.00     0.148 C 
BRANCH  12  13
ATOM     13  C30 WWX d           5.127 -20.044 -14.916  0.00  0.00    -0.033 A 
ATOM     14  C35 WWX d           3.823 -20.296 -15.439  0.00  0.00     0.009 A 
ATOM     15  C34 WWX d           3.577 -20.328 -16.847  0.00  0.00     0.001 A 
ATOM     16  C33 WWX d           4.628 -20.122 -17.778  0.00  0.00     0.000 A 
ATOM     17  C32 WWX d           5.937 -19.876 -17.319  0.00  0.00     0.001 A 
ATOM     18  C31 WWX d           6.156 -19.855 -15.918  0.00  0.00     0.009 A 
ENDBRANCH  12  13
BRANCH  12  19
ATOM     19  C22 WWX d           6.869 -19.802 -13.404  0.00  0.00     0.178 C 
BRANCH  19  20
ATOM     20  O29 WWX d           7.511 -20.851 -14.073  0.00  0.00    -0.388 OA
ATOM     21  H16 WWX d           7.199 -20.892 -14.969  0.00  0.00     0.210 HD
ENDBRANCH  19  20
BRANCH  19  22
ATOM     22  C23 WWX d           7.256 -18.398 -13.852  0.00  0.00    -0.027 A 
ATOM     23  C28 WWX d           8.632 -18.143 -14.065  0.00  0.00     0.010 A 
ATOM     24  C27 WWX d           9.101 -16.858 -14.357  0.00  0.00     0.001 A 
ATOM     25  C26 WWX d           8.239 -15.814 -14.521  0.00  0.00     0.000 A 
ATOM     26  C25 WWX d           6.867 -16.062 -14.371  0.00  0.00     0.001 A 
ATOM     27  C24 WWX d           6.332 -17.315 -14.025  0.00  0.00     0.010 A 
ENDBRANCH  19  22
ENDBRANCH  12  19
ENDBRANCH  10  12
ENDBRANCH   6  10
BRANCH   1  28
ATOM     28  S14 WWX d           4.641 -24.194 -14.133  0.00  0.00     0.182 S 
ATOM     29  O16 WWX d           3.671 -25.290 -13.527  0.00  0.00    -0.222 OA
ATOM     30  O15 WWX d           3.781 -22.934 -14.450  0.00  0.00    -0.222 OA
BRANCH  28  31
ATOM     31  C17 WWX d           5.415 -24.877 -15.626  0.00  0.00     0.172 C 
BRANCH  31  32
ATOM     32  C18 WWX d           6.887 -24.436 -15.782  0.00  0.00     0.179 C 
BRANCH  32  33
ATOM     33  O20 WWX d           6.774 -23.044 -15.791  0.00  0.00    -0.400 OA
ATOM     34  H3  WWX d           7.637 -22.658 -15.884  0.00  0.00     0.209 HD
ENDBRANCH  32  33
ENDBRANCH  31  32
ENDBRANCH  28  31
ENDBRANCH   1  28
BRANCH   9  35
ATOM     35  S1  WWX d           7.874 -23.733  -8.415  0.00  0.00     0.263 S 
ATOM     36  O3  WWX d           9.155 -22.980  -8.119  0.00  0.00    -0.201 OA
ATOM     37  O2  WWX d           6.974 -23.361  -7.289  0.00  0.00    -0.201 OA
BRANCH  35  38
ATOM     38  N4  WWX d           8.201 -25.373  -8.169  0.00  0.00    -0.324 N 
ATOM     39  H6  WWX d           8.659 -25.671  -7.332  0.00  0.00     0.169 HD
ATOM     40  H7  WWX d           7.936 -26.045  -8.861  0.00  0.00     0.169 HD
ENDBRANCH  35  38
ENDBRANCH   9  35
TORSDOF 12
