REMARK  7 active torsions:
REMARK  status: ('A' for Active; 'I' for Inactive)
REMARK    1  A    between atoms: O3_4  and  S2_1 
REMARK    2  A    between atoms: S2_1  and  N1_5 
REMARK    3  A    between atoms: C14_24  and  O3_4 
REMARK    4  A    between atoms: N2_6  and  N3_7 
REMARK    5  A    between atoms: N2_6  and  C3_13 
REMARK    6  A    between atoms: C10_20  and  N2_6 
REMARK    7  A    between atoms: C11_21  and  C10_20 
ROOT
ATOM      1  N6  MOL d          26.286  34.331  24.919  0.00  0.00    -0.191 NA
ATOM      2  C3  MOL d          23.770  33.709  20.050  0.00  0.00     0.051 A 
ATOM      3  C4  MOL d          23.130  33.298  21.318  0.00  0.00     0.033 A 
ATOM      4  C5  MOL d          23.782  33.449  22.574  0.00  0.00     0.025 A 
ATOM      5  C6  MOL d          25.101  34.013  22.650  0.00  0.00     0.044 A 
ATOM      6  C7  MOL d          25.760  34.427  21.435  0.00  0.00     0.025 A 
ATOM      7  C8  MOL d          25.115  34.280  20.169  0.00  0.00     0.033 A 
ATOM      8  C9  MOL d          25.763  34.170  23.911  0.00  0.00     0.099 C 
ENDROOT
BRANCH   2   9
ATOM      9  N2  MOL d          23.095  33.555  18.724  0.00  0.00    -0.280 N 
BRANCH   9  10
ATOM     10  N3  MOL d          23.581  34.305  17.602  0.00  0.00    -0.237 N 
ATOM     11  C1  MOL d          24.456  33.868  16.631  0.00  0.00     0.258 A 
ATOM     12  N4  MOL d          24.670  34.812  15.765  0.00  0.00    -0.142 NA
ATOM     13  N5  MOL d          23.920  35.919  16.157  0.00  0.00    -0.142 NA
ATOM     14  C2  MOL d          23.283  35.603  17.242  0.00  0.00     0.258 A 
ENDBRANCH   9  10
BRANCH   9  15
ATOM     15  C10 MOL d          21.710  32.974  18.471  0.00  0.00     0.188 C 
BRANCH  15  16
ATOM     16  C11 MOL d          21.567  31.517  18.913  0.00  0.00    -0.038 A 
ATOM     17  C12 MOL d          22.580  30.547  18.549  0.00  0.00     0.011 A 
ATOM     18  C13 MOL d          22.460  29.200  18.972  0.00  0.00     0.039 A 
ATOM     19  C14 MOL d          21.337  28.797  19.759  0.00  0.00     0.091 A 
ATOM     20  C15 MOL d          20.324  29.748  20.125  0.00  0.00     0.039 A 
ATOM     21  C16 MOL d          20.441  31.109  19.700  0.00  0.00     0.011 A 
BRANCH  19  22
ATOM     22  O3  MOL d          21.218  27.486  20.186  0.00  0.00    -0.217 OA
BRANCH  22  23
ATOM     23  S2  MOL d          20.447  26.373  19.333  0.00  0.00     0.360 S 
ATOM     24  O1  MOL d          20.672  25.187  20.085  0.00  0.00    -0.176 OA
ATOM     25  O2  MOL d          19.122  26.899  19.210  0.00  0.00    -0.176 OA
BRANCH  23  26
ATOM     26  N1  MOL d          21.160  26.235  17.963  0.00  0.00    -0.305 N 
ATOM     27  H1  MOL d          20.820  25.582  17.286  0.00  0.00     0.171 HD
ATOM     28  H2  MOL d          21.959  26.799  17.756  0.00  0.00     0.171 HD
ENDBRANCH  23  26
ENDBRANCH  22  23
ENDBRANCH  19  22
ENDBRANCH  15  16
ENDBRANCH   9  15
ENDBRANCH   2   9
TORSDOF 7
