REMARK  10 active torsions:
REMARK  status: ('A' for Active; 'I' for Inactive)
REMARK    1  A    between atoms: C2_2  and  C6_6 
REMARK    2  A    between atoms: C3_3  and  O20_16 
REMARK    3  A    between atoms: C5_5  and  C9_9 
REMARK    4  A    between atoms: C11_11  and  N28_21 
REMARK    5  A    between atoms: O20_16  and  C21_17 
REMARK    6  A    between atoms: C21_17  and  C22_18 
REMARK    7  A    between atoms: N28_21  and  C29_22 
REMARK    8  A    between atoms: N32_25  and  S44_28 
REMARK    9  A    between atoms: S44_28  and  C47_31 
REMARK   10  A    between atoms: C47_31  and  C48_32 
ROOT
ATOM      1  C9  MOL d          46.261  11.397   0.981  0.00  0.00    -0.015 A 
ATOM      2  C10 MOL d          47.587  10.886   1.062  0.00  0.00     0.042 A 
ATOM      3  C11 MOL d          47.848   9.549   0.644  0.00  0.00     0.029 A 
ATOM      4  C12 MOL d          46.777   8.711   0.158  0.00  0.00     0.029 A 
ATOM      5  C13 MOL d          45.443   9.222   0.078  0.00  0.00     0.003 A 
ATOM      6  C14 MOL d          45.191  10.565   0.500  0.00  0.00     0.013 A 
ENDROOT
BRANCH   3   7
ATOM      7  N28 MOL d          49.147   9.108   0.749  0.00  0.00    -0.385 N 
ATOM      8  H7  MOL d          49.876   9.657   0.271  0.00  0.00     0.160 HD
BRANCH   7   9
ATOM      9  C29 MOL d          49.576   7.911   1.493  0.00  0.00     0.084 C 
ATOM     10  C30 MOL d          48.994   7.816   2.923  0.00  0.00     0.045 C 
ATOM     11  C31 MOL d          49.336   6.429   3.498  0.00  0.00     0.137 C 
ATOM     12  N32 MOL d          50.782   6.067   3.390  0.00  0.00    -0.310 N 
ATOM     13  C33 MOL d          51.582   6.550   2.219  0.00  0.00     0.137 C 
ATOM     14  C34 MOL d          51.106   7.890   1.607  0.00  0.00     0.045 C 
BRANCH  12  15
ATOM     15  S44 MOL d          51.468   5.105   4.545  0.00  0.00     0.232 S 
ATOM     16  O45 MOL d          50.680   5.225   5.732  0.00  0.00    -0.205 OA
ATOM     17  O46 MOL d          52.862   5.492   4.634  0.00  0.00    -0.205 OA
BRANCH  15  18
ATOM     18  C47 MOL d          51.421   3.393   4.057  0.00  0.00     0.201 C 
BRANCH  18  19
ATOM     19  C48 MOL d          51.942   2.485   5.149  0.00  0.00    -0.043 A 
ATOM     20  C51 MOL d          51.021   1.975   6.127  0.00  0.00     0.008 A 
ATOM     21  C52 MOL d          51.494   1.114   7.166  0.00  0.00     0.001 A 
ATOM     22  C53 MOL d          52.889   0.772   7.214  0.00  0.00     0.000 A 
ATOM     23  C54 MOL d          53.819   1.277   6.242  0.00  0.00     0.001 A 
ATOM     24  C55 MOL d          53.341   2.140   5.201  0.00  0.00     0.008 A 
ENDBRANCH  18  19
ENDBRANCH  15  18
ENDBRANCH  12  15
ENDBRANCH   7   9
ENDBRANCH   3   7
BRANCH   1  25
ATOM     25  C5  MOL d          45.934  12.776   1.407  0.00  0.00     0.036 A 
ATOM     26  S1  MOL d          44.892  13.710   0.473  0.00  0.00    -0.081 SA
ATOM     27  C2  MOL d          44.935  15.081   1.446  0.00  0.00     0.091 A 
ATOM     28  C3  MOL d          45.782  14.840   2.538  0.00  0.00     0.109 A 
ATOM     29  C4  MOL d          46.361  13.547   2.538  0.00  0.00     0.063 A 
ATOM     30 BR19 MOL d          47.554  12.935   3.888  0.00  0.00    -0.047 Br
BRANCH  27  31
ATOM     31  C6  MOL d          44.187  16.318   1.149  0.00  0.00     0.207 A 
ATOM     32  N7  MOL d          43.704  16.598  -0.087  0.00  0.00    -0.138 NA
ATOM     33  N62 MOL d          43.070  17.798  -0.031  0.00  0.00    -0.200 N 
ATOM     34  N61 MOL d          43.163  18.260   1.249  0.00  0.00     0.022 NA
ATOM     35  H24 MOL d          42.602  18.274  -0.815  0.00  0.00     0.208 HD
ATOM     36  N8  MOL d          43.852  17.343   1.975  0.00  0.00    -0.135 NA
ENDBRANCH  27  31
BRANCH  28  37
ATOM     37  O20 MOL d          46.039  15.807   3.574  0.00  0.00    -0.338 OA
BRANCH  37  38
ATOM     38  C21 MOL d          47.317  16.466   3.463  0.00  0.00     0.288 C 
BRANCH  38  39
ATOM     39  C22 MOL d          47.704  17.229   4.746  0.00  0.00     0.198 C 
ATOM     40  O25 MOL d          46.934  17.273   5.705  0.00  0.00    -0.646 OA
ATOM     41  O26 MOL d          48.795  17.789   4.782  0.00  0.00    -0.646 OA
ENDBRANCH  38  39
ENDBRANCH  37  38
ENDBRANCH  28  37
ENDBRANCH   1  25
TORSDOF 10
