REMARK  10 active torsions:
REMARK  status: ('A' for Active; 'I' for Inactive)
REMARK    1  A    between atoms: C1_1  and  O1_2 
REMARK    2  A    between atoms: O1_2  and  P1_13 
REMARK    3  A    between atoms: C2_3  and  O2_4 
REMARK    4  A    between atoms: C3_5  and  O3_6 
REMARK    5  A    between atoms: O3_6  and  P3_17 
REMARK    6  A    between atoms: C4_7  and  O4_8 
REMARK    7  A    between atoms: O4_8  and  P4_21 
REMARK    8  A    between atoms: C5_9  and  O5_10 
REMARK    9  A    between atoms: O5_10  and  P5_25 
REMARK   10  A    between atoms: C6_11  and  O6_12 
ROOT
ATOM      1  C1  ITS d          25.928   6.544   8.243  0.00  0.00     0.198 C 
ATOM      2  C2  ITS d          24.941   7.092   9.260  0.00  0.00     0.182 C 
ATOM      3  C3  ITS d          24.045   5.975   9.751  0.00  0.00     0.199 C 
ATOM      4  C4  ITS d          24.845   4.864  10.426  0.00  0.00     0.200 C 
ATOM      5  C5  ITS d          26.002   4.349   9.572  0.00  0.00     0.199 C 
ATOM      6  C6  ITS d          26.796   5.444   8.848  0.00  0.00     0.182 C 
ENDROOT
BRANCH   1   7
ATOM      7  O1  ITS d          26.763   7.603   7.754  0.00  0.00    -0.272 OA
BRANCH   7   8
ATOM      8  P1  ITS d          26.381   8.417   6.398  0.00  0.00     0.422 P 
ATOM      9  OP3 ITS d          26.804   7.535   5.242  0.00  0.00    -0.617 OA
ATOM     10  OP2 ITS d          24.878   8.628   6.455  0.00  0.00    -0.617 OA
ATOM     11  OP1 ITS d          27.189   9.701   6.481  0.00  0.00    -0.617 OA
ENDBRANCH   7   8
ENDBRANCH   1   7
BRANCH   6  12
ATOM     12  O6  ITS d          27.583   4.855   7.821  0.00  0.00    -0.390 OA
ATOM     13  H8  ITS d          28.184   4.227   8.205  0.00  0.00     0.210 HD
ENDBRANCH   6  12
BRANCH   2  14
ATOM     14  O2  ITS d          25.641   7.655  10.360  0.00  0.00    -0.390 OA
ATOM     15  H3  ITS d          26.203   8.356  10.051  0.00  0.00     0.210 HD
ENDBRANCH   2  14
BRANCH   5  16
ATOM     16  O5  ITS d          26.883   3.566  10.391  0.00  0.00    -0.272 OA
BRANCH  16  17
ATOM     17  P5  ITS d          27.643   2.253   9.803  0.00  0.00     0.422 P 
ATOM     18  OP9 ITS d          28.809   2.797   8.993  0.00  0.00    -0.617 OA
ATOM     19  OP8 ITS d          26.609   1.520   8.961  0.00  0.00    -0.617 OA
ATOM     20  OP7 ITS d          28.064   1.483  11.042  0.00  0.00    -0.617 OA
ENDBRANCH  16  17
ENDBRANCH   5  16
BRANCH   3  21
ATOM     21  O3  ITS d          23.066   6.501  10.658  0.00  0.00    -0.272 OA
BRANCH  21  22
ATOM     22  P3  ITS d          21.483   6.359  10.330  0.00  0.00     0.422 P 
ATOM     23  O12 ITS d          21.228   4.856  10.269  0.00  0.00    -0.617 OA
ATOM     24  O11 ITS d          21.252   7.041   8.993  0.00  0.00    -0.617 OA
ATOM     25  O10 ITS d          20.763   7.013  11.496  0.00  0.00    -0.617 OA
ENDBRANCH  21  22
ENDBRANCH   3  21
BRANCH   4  26
ATOM     26  O4  ITS d          23.978   3.767  10.762  0.00  0.00    -0.272 OA
BRANCH  26  27
ATOM     27  P4  ITS d          23.502   3.496  12.294  0.00  0.00     0.422 P 
ATOM     28  OP6 ITS d          23.873   2.054  12.608  0.00  0.00    -0.617 OA
ATOM     29  OP5 ITS d          22.004   3.718  12.281  0.00  0.00    -0.617 OA
ATOM     30  OP4 ITS d          24.233   4.492  13.177  0.00  0.00    -0.617 OA
ENDBRANCH  26  27
ENDBRANCH   4  26
TORSDOF 10
