REMARK  1 active torsions:
REMARK  status: ('A' for Active; 'I' for Inactive)
REMARK    1  A    between atoms: C5_3  and  N3_4 
ROOT
ATOM      1  O   2FQ d         -28.591 -28.511   4.620  0.00  0.00    -0.266 OA
ATOM      2  C6  2FQ d         -27.613 -28.217   3.944  0.00  0.00     0.273 A 
ATOM      3  C5  2FQ d         -27.734 -27.942   2.477  0.00  0.00     0.098 A 
ATOM      4  C4  2FQ d         -26.636 -27.606   1.750  0.00  0.00     0.108 A 
ATOM      5  N1  2FQ d         -26.360 -28.123   4.517  0.00  0.00    -0.301 N 
ATOM      6  C8  2FQ d         -26.257 -28.408   5.948  0.00  0.00     0.161 C 
ATOM      7  C7  2FQ d         -25.232 -27.784   3.801  0.00  0.00     0.142 A 
ATOM      8  C3  2FQ d         -25.361 -27.521   2.410  0.00  0.00     0.011 A 
ATOM      9  C2  2FQ d         -24.174 -27.177   1.759  0.00  0.00     0.130 A 
ATOM     10  N   2FQ d         -22.988 -27.092   2.351  0.00  0.00    -0.245 NA
ATOM     11  N2  2FQ d         -24.039 -27.702   4.400  0.00  0.00    -0.215 NA
ATOM     12  C1  2FQ d         -22.967 -27.368   3.670  0.00  0.00     0.124 A 
ATOM     13  C   2FQ d         -21.653 -27.310   4.360  0.00  0.00     0.093 C 
ENDROOT
BRANCH   3  14
ATOM     14  N3  2FQ d         -28.968 -28.052   1.936  0.00  0.00    -0.299 NA
ATOM     15  H1  2FQ d         -29.105 -27.878   0.953  0.00  0.00     0.186 HD
ENDBRANCH   3  14
TORSDOF 1
