REMARK  2 active torsions:
REMARK  status: ('A' for Active; 'I' for Inactive)
REMARK    1  A    between atoms: CAP_17  and  CAK_18 
REMARK    2  A    between atoms: CAK_18  and  CAM_19 
ROOT
ATOM      1  OAD MOL d         -16.913  52.085  -3.644  0.00  0.00    -0.286 OA
ATOM      2  CAQ MOL d         -18.087  52.173  -3.207  0.00  0.00     0.198 A 
ATOM      3  CAS MOL d         -19.156  52.069  -4.081  0.00  0.00     0.049 A 
ATOM      4  CAJ MOL d         -18.968  51.880  -5.449  0.00  0.00     0.019 A 
ATOM      5  CAH MOL d         -20.089  51.757  -6.304  0.00  0.00     0.008 A 
ATOM      6  CAN MOL d         -21.395  51.829  -5.799  0.00  0.00    -0.053 A 
ATOM      7  CAA MOL d         -22.520  51.711  -6.653  0.00  0.00     0.049 C 
ATOM      8  CAO MOL d         -21.592  52.036  -4.427  0.00  0.00    -0.021 A 
ATOM      9  CAB MOL d         -22.866  52.116  -3.794  0.00  0.00     0.052 C 
ATOM     10  CAT MOL d         -20.465  52.177  -3.620  0.00  0.00     0.096 A 
ATOM     11  OAL MOL d         -20.706  52.339  -2.325  0.00  0.00    -0.308 OA
ATOM     12  CAU MOL d         -19.692  52.388  -1.437  0.00  0.00     0.097 A 
ATOM     13  CAR MOL d         -18.353  52.319  -1.857  0.00  0.00     0.049 A 
ATOM     14  CAI MOL d         -17.334  52.372  -0.879  0.00  0.00     0.018 A 
ATOM     15  CAF MOL d         -17.712  52.519   0.460  0.00  0.00     0.002 A 
ATOM     16  CAG MOL d         -19.054  52.618   0.841  0.00  0.00     0.010 A 
ATOM     17  CAP MOL d         -20.066  52.548  -0.115  0.00  0.00    -0.013 A 
ENDROOT
BRANCH  17  18
ATOM     18  CAK MOL d         -21.433  52.639   0.231  0.00  0.00     0.154 C 
BRANCH  18  19
ATOM     19  CAM MOL d         -22.368  51.413  -0.084  0.00  0.00     0.177 C 
ATOM     20  OAE MOL d         -23.600  51.605   0.140  0.00  0.00    -0.648 OA
ATOM     21  OAC MOL d         -21.857  50.326  -0.472  0.00  0.00    -0.648 OA
ENDBRANCH  18  19
ENDBRANCH  17  18
TORSDOF 2
