REMARK  6 active torsions:
REMARK  status: ('A' for Active; 'I' for Inactive)
REMARK    1  A    between atoms: O6_1  and  C6_2 
REMARK    2  A    between atoms: C6_2  and  C5_3 
REMARK    3  A    between atoms: C4_5  and  O4_6 
REMARK    4  A    between atoms: C3_7  and  O3_8 
REMARK    5  A    between atoms: C2_10  and  O2_11 
REMARK    6  A    between atoms: C1_12  and  O1_13 
ROOT
ATOM      1  C5  MOL d          -6.257  20.710 -15.845  0.00  0.00     0.179 C 
ATOM      2  O5  MOL d          -6.245  19.417 -15.225  0.00  0.00    -0.349 OA
ATOM      3  C4  MOL d          -7.590  20.991 -16.540  0.00  0.00     0.180 C 
ATOM      4  C3  MOL d          -7.917  19.849 -17.504  0.00  0.00     0.185 C 
ATOM      5  C2  MOL d          -7.895  18.515 -16.759  0.00  0.00     0.204 C 
ATOM      6  C1  MOL d          -6.517  18.324 -16.112  0.00  0.00     0.288 C 
ENDROOT
BRANCH   1   7
ATOM      7  C6  MOL d          -6.034  21.743 -14.759  0.00  0.00     0.198 C 
BRANCH   7   8
ATOM      8  O6  MOL d          -4.702  22.220 -14.836  0.00  0.00    -0.398 OA
ATOM      9  H1  MOL d          -4.559  22.868 -14.156  0.00  0.00     0.209 HD
ENDBRANCH   7   8
ENDBRANCH   1   7
BRANCH   3  10
ATOM     10  O4  MOL d          -7.529  22.259 -17.212  0.00  0.00    -0.390 OA
ATOM     11  H6  MOL d          -8.359  22.429 -17.642  0.00  0.00     0.210 HD
ENDBRANCH   3  10
BRANCH   6  12
ATOM     12  O1  MOL d          -6.427  17.100 -15.368  0.00  0.00    -0.369 OA
ATOM     13  H14 MOL d          -5.553  17.014 -15.006  0.00  0.00     0.212 HD
ENDBRANCH   6  12
BRANCH   4  14
ATOM     14  O3  MOL d          -9.178  20.061 -18.143  0.00  0.00    -0.385 OA
ATOM     15  C7  MOL d          -9.043  20.256 -19.559  0.00  0.00     0.202 C 
ENDBRANCH   4  14
BRANCH   5  16
ATOM     16  O2  MOL d          -8.179  17.451 -17.672  0.00  0.00    -0.388 OA
ATOM     17  H12 MOL d          -9.038  17.585 -18.055  0.00  0.00     0.210 HD
ENDBRANCH   5  16
TORSDOF 6
