REMARK  17 active torsions:
REMARK  status: ('A' for Active; 'I' for Inactive)
REMARK    1  A    between atoms: CA_2  and  N_1 
REMARK    2  A    between atoms: CA_2  and  CB_5 
REMARK    3  A    between atoms: C_3  and  CA_2 
REMARK       I    between atoms: N_10  and  C_3 
REMARK    4  A    between atoms: CB_5  and  CG_6 
REMARK    5  A    between atoms: CG_6  and  CD_7 
REMARK    6  A    between atoms: CD_7  and  CE_8 
REMARK    7  A    between atoms: CE_8  and  NZ_9 
REMARK    8  A    between atoms: CA_11  and  N_10 
REMARK    9  A    between atoms: CA_11  and  CB_14 
REMARK   10  A    between atoms: C_12  and  CA_11 
REMARK       I    between atoms: C_12  and  N_17 
REMARK   11  A    between atoms: N_17  and  CA_18 
REMARK   12  A    between atoms: CA_18  and  CB_21 
REMARK   13  A    between atoms: CA_18  and  C_19 
REMARK   14  A    between atoms: CB_21  and  CG_22 
REMARK   15  A    between atoms: CG_22  and  CD_23 
REMARK   16  A    between atoms: CD_23  and  CE_24 
REMARK   17  A    between atoms: CE_24  and  NZ_25 
ROOT
ATOM      1  CA  MOL d           3.941  20.219  16.182  0.00  0.00     0.180 C 
ENDROOT
BRANCH   1   2
ATOM      2  N   MOL d           5.071  19.646  15.429  0.00  0.00    -0.346 N 
ATOM      3  C   MOL d           5.238  18.338  15.331  0.00  0.00     0.248 C 
ATOM      4  O   MOL d           4.482  17.512  15.849  0.00  0.00    -0.271 OA
ATOM      5  H16 MOL d           5.724  20.258  14.983  0.00  0.00     0.163 HD
BRANCH   3   6
ATOM      6  CA  MOL d           6.456  17.843  14.555  0.00  0.00     0.274 C 
BRANCH   6   7
ATOM      7  N   MOL d           6.954  16.547  15.122  0.00  0.00    -0.067 N 
ATOM      8  H1  MOL d           7.757  16.237  14.597  0.00  0.00     0.275 HD
ATOM      9  H2  MOL d           6.226  15.853  15.063  0.00  0.00     0.275 HD
ATOM     10  H3  MOL d           7.214  16.680  16.087  0.00  0.00     0.275 HD
ENDBRANCH   6   7
BRANCH   6  11
ATOM     11  CB  MOL d           6.198  17.741  13.049  0.00  0.00     0.042 C 
BRANCH  11  12
ATOM     12  CG  MOL d           5.254  16.621  12.620  0.00  0.00     0.004 C 
BRANCH  12  13
ATOM     13  CD  MOL d           5.178  16.540  11.093  0.00  0.00     0.027 C 
BRANCH  13  14
ATOM     14  CE  MOL d           6.435  15.890  10.494  0.00  0.00     0.229 C 
BRANCH  14  15
ATOM     15  NZ  MOL d           6.584  14.459  10.935  0.00  0.00    -0.079 N 
ATOM     16  H13 MOL d           7.416  14.066  10.524  0.00  0.00     0.274 HD
ATOM     17  H14 MOL d           5.780  13.930  10.636  0.00  0.00     0.274 HD
ATOM     18  H15 MOL d           6.656  14.423  11.940  0.00  0.00     0.274 HD
ENDBRANCH  14  15
ENDBRANCH  13  14
ENDBRANCH  12  13
ENDBRANCH  11  12
ENDBRANCH   6  11
ENDBRANCH   3   6
ENDBRANCH   1   2
BRANCH   1  19
ATOM     19  CB  MOL d           4.244  21.668  16.599  0.00  0.00     0.009 C 
ATOM     20  CG2 MOL d           5.576  21.706  17.371  0.00  0.00     0.012 C 
ATOM     21  CG1 MOL d           3.146  22.274  17.445  0.00  0.00     0.012 C 
ENDBRANCH   1  19
BRANCH   1  22
ATOM     22  C   MOL d           2.651  20.180  15.376  0.00  0.00     0.241 C 
ATOM     23  O   MOL d           2.663  20.487  14.183  0.00  0.00    -0.271 OA
ATOM     24  N   MOL d           1.559  19.818  16.073  0.00  0.00    -0.345 N 
ATOM     25  H25 MOL d           1.625  19.569  17.039  0.00  0.00     0.163 HD
BRANCH  24  26
ATOM     26  CA  MOL d           0.277  19.799  15.379  0.00  0.00     0.185 C 
BRANCH  26  27
ATOM     27  CB  MOL d          -0.282  18.368  15.254  0.00  0.00     0.036 C 
BRANCH  27  28
ATOM     28  CG  MOL d          -1.401  18.425  14.187  0.00  0.00     0.004 C 
BRANCH  28  29
ATOM     29  CD  MOL d          -2.111  17.086  14.150  0.00  0.00     0.027 C 
BRANCH  29  30
ATOM     30  CE  MOL d          -3.442  17.252  13.430  0.00  0.00     0.229 C 
BRANCH  30  31
ATOM     31  NZ  MOL d          -3.113  17.031  11.976  0.00  0.00    -0.079 N 
ATOM     32  H35 MOL d          -3.951  17.125  11.424  0.00  0.00     0.274 HD
ATOM     33  H36 MOL d          -2.732  16.106  11.854  0.00  0.00     0.274 HD
ATOM     34  H37 MOL d          -2.436  17.715  11.677  0.00  0.00     0.274 HD
ENDBRANCH  30  31
ENDBRANCH  29  30
ENDBRANCH  28  29
ENDBRANCH  27  28
ENDBRANCH  26  27
BRANCH  26  35
ATOM     35  C   MOL d          -0.735  20.638  16.174  0.00  0.00     0.196 C 
ATOM     36  O   MOL d          -1.678  21.146  15.520  0.00  0.00    -0.646 OA
ATOM     37  OXT MOL d          -0.583  20.729  17.414  0.00  0.00    -0.646 OA
ENDBRANCH  26  35
ENDBRANCH  24  26
ENDBRANCH   1  22
TORSDOF 17
