REMARK  7 active torsions:
REMARK  status: ('A' for Active; 'I' for Inactive)
REMARK    1  A    between atoms: O4_16  and  C1B_1 
REMARK    2  A    between atoms: C2B_2  and  O2B_6 
REMARK    3  A    between atoms: C3B_3  and  O3B_7 
REMARK    4  A    between atoms: C4B_4  and  O4B_8 
REMARK    5  A    between atoms: C2_11  and  O2_12 
REMARK    6  A    between atoms: C3_13  and  O3_14 
REMARK    7  A    between atoms: C4_15  and  O4_16 
ROOT
ATOM      1  O4  XDN d           8.333  14.475  16.465  0.00  0.00    -0.349 OA
ENDROOT
BRANCH   1   2
ATOM      2  C1B XDN d           6.951  14.308  16.239  0.00  0.00     0.291 C 
ATOM      3  C2B XDN d           6.649  12.854  16.534  0.00  0.00     0.204 C 
ATOM      4  C3B XDN d           5.164  12.592  16.425  0.00  0.00     0.182 C 
ATOM      5  C4B XDN d           4.365  13.626  17.205  0.00  0.00     0.173 C 
ATOM      6  C5B XDN d           4.851  15.041  16.871  0.00  0.00     0.205 C 
ATOM      7  O5B XDN d           6.235  15.123  17.102  0.00  0.00    -0.356 OA
BRANCH   3   8
ATOM      8  O2B XDN d           7.367  12.016  15.649  0.00  0.00    -0.388 OA
ATOM      9  H7  XDN d           8.297  12.194  15.731  0.00  0.00     0.210 HD
ENDBRANCH   3   8
BRANCH   4  10
ATOM     10  O3B XDN d           4.866  11.285  16.930  0.00  0.00    -0.390 OA
ATOM     11  H8  XDN d           5.364  10.638  16.444  0.00  0.00     0.210 HD
ENDBRANCH   4  10
BRANCH   5  12
ATOM     12  O4B XDN d           2.979  13.504  16.930  0.00  0.00    -0.391 OA
ATOM     13  H9  XDN d           2.692  12.623  17.141  0.00  0.00     0.210 HD
ENDBRANCH   5  12
ENDBRANCH   1   2
BRANCH   1  14
ATOM     14  C4  XDN d           8.765  15.802  16.152  0.00  0.00     0.181 C 
ATOM     15  C3  XDN d          10.036  16.093  16.945  0.00  0.00     0.179 C 
ATOM     16  C2  XDN d          10.427  17.561  16.660  0.00  0.00     0.175 C 
ATOM     17  C1  XDN d          10.505  17.850  15.127  0.00  0.00     0.266 C 
ATOM     18  N5  XDN d           9.308  17.394  14.399  0.00  0.00    -0.070 N 
ATOM     19  C5  XDN d           9.062  15.967  14.664  0.00  0.00     0.266 C 
ATOM     20  H19 XDN d           9.449  17.529  13.410  0.00  0.00     0.277 HD
ATOM     21  H20 XDN d           8.510  17.931  14.701  0.00  0.00     0.277 HD
BRANCH  15  22
ATOM     22  O3  XDN d           9.770  15.913  18.327  0.00  0.00    -0.390 OA
ATOM     23  H15 XDN d           9.531  15.008  18.487  0.00  0.00     0.210 HD
ENDBRANCH  15  22
BRANCH  16  24
ATOM     24  O2  XDN d          11.649  17.882  17.297  0.00  0.00    -0.391 OA
ATOM     25  H13 XDN d          11.578  17.698  18.227  0.00  0.00     0.210 HD
ENDBRANCH  16  24
ENDBRANCH   1  14
TORSDOF 7
