REMARK  1 active torsions:
REMARK  status: ('A' for Active; 'I' for Inactive)
REMARK    1  A    between atoms: C17_18  and  O17_19 
ROOT
ATOM      1  C1  DHT d          27.685   5.199   4.565  0.00  0.00     0.022 C 
ATOM      2  C2  DHT d          26.814   6.485   4.636  0.00  0.00     0.084 C 
ATOM      3  C3  DHT d          25.484   6.280   3.944  0.00  0.00     0.149 C 
ATOM      4  O3  DHT d          24.904   7.249   3.448  0.00  0.00    -0.293 OA
ATOM      5  C4  DHT d          24.887   4.964   3.857  0.00  0.00     0.053 C 
ATOM      6  C5  DHT d          25.464   3.903   4.357  0.00  0.00    -0.068 C 
ATOM      7  C6  DHT d          24.727   2.560   4.241  0.00  0.00     0.035 C 
ATOM      8  C7  DHT d          25.613   1.454   3.609  0.00  0.00     0.010 C 
ATOM      9  C8  DHT d          26.955   1.303   4.359  0.00  0.00    -0.004 C 
ATOM     10  C9  DHT d          27.708   2.656   4.279  0.00  0.00     0.002 C 
ATOM     11  C10 DHT d          26.943   3.876   4.949  0.00  0.00    -0.016 C 
ATOM     12  C11 DHT d          29.161   2.525   4.830  0.00  0.00     0.007 C 
ATOM     13  C12 DHT d          29.951   1.344   4.192  0.00  0.00     0.012 C 
ATOM     14  C13 DHT d          29.194  -0.010   4.339  0.00  0.00    -0.014 C 
ATOM     15  C14 DHT d          27.784   0.212   3.680  0.00  0.00     0.001 C 
ATOM     16  C15 DHT d          27.178  -1.232   3.647  0.00  0.00     0.008 C 
ATOM     17  C16 DHT d          28.435  -2.118   3.310  0.00  0.00     0.033 C 
ATOM     18  C17 DHT d          29.679  -1.189   3.426  0.00  0.00     0.126 C 
ATOM     19  C18 DHT d          29.107  -0.450   5.847  0.00  0.00     0.018 C 
ATOM     20  C19 DHT d          26.781   3.770   6.524  0.00  0.00     0.020 C 
ENDROOT
BRANCH  18  21
ATOM     21  O17 DHT d          30.910  -1.918   3.981  0.00  0.00    -0.395 OA
ATOM     22  H22 DHT d          31.639  -1.312   4.032  0.00  0.00     0.210 HD
ENDBRANCH  18  21
TORSDOF 1
