REMARK  11 active torsions:
REMARK  status: ('A' for Active; 'I' for Inactive)
REMARK    1  A    between atoms: C1_1  and  O2_2 
REMARK    2  A    between atoms: C6_6  and  C9_9 
REMARK    3  A    between atoms: N11_11  and  C12_12 
REMARK    4  A    between atoms: C12_12  and  C20_20 
REMARK    5  A    between atoms: C12_12  and  C13_13 
REMARK    6  A    between atoms: C13_13  and  C14_14 
REMARK    7  A    between atoms: C20_20  and  C22_22 
REMARK    8  A    between atoms: C20_20  and  O21_21 
REMARK       I    between atoms: C22_22  and  N24_24 
REMARK    9  A    between atoms: C30_30  and  C31_31 
REMARK       I    between atoms: C31_31  and  N33_33 
REMARK   10  A    between atoms: N33_33  and  C34_34 
REMARK   11  A    between atoms: C34_34  and  C35_35 
ROOT
ATOM      1  C20 JE2 d          20.868  -0.504  15.603  0.00  0.00     0.233 C 
ENDROOT
BRANCH   1   2
ATOM      2  C12 JE2 d          20.173  -0.362  16.980  0.00  0.00     0.126 C 
BRANCH   2   3
ATOM      3  N11 JE2 d          20.970   0.659  17.757  0.00  0.00    -0.360 N 
ATOM      4  C9  JE2 d          21.848   0.267  18.666  0.00  0.00     0.186 C 
ATOM      5  O10 JE2 d          22.069  -0.990  18.943  0.00  0.00    -0.172 OA
ATOM      6  H8  JE2 d          20.834   1.634  17.584  0.00  0.00     0.162 HD
BRANCH   4   7
ATOM      7  C6  JE2 d          22.533   1.347  19.433  0.00  0.00     0.026 A 
ATOM      8  C5  JE2 d          21.727   2.354  20.024  0.00  0.00     0.016 A 
ATOM      9  C4  JE2 d          22.339   3.432  20.726  0.00  0.00     0.004 A 
ATOM     10  C3  JE2 d          23.687   3.448  20.947  0.00  0.00     0.037 A 
ATOM     11  C1  JE2 d          24.500   2.399  20.424  0.00  0.00     0.072 A 
ATOM     12  C7  JE2 d          23.950   1.358  19.605  0.00  0.00    -0.014 A 
ATOM     13  C8  JE2 d          24.899   0.374  18.930  0.00  0.00     0.052 C 
BRANCH  11  14
ATOM     14  O2  JE2 d          25.856   2.446  20.562  0.00  0.00    -0.360 OA
ATOM     15  H1  JE2 d          26.241   1.676  20.161  0.00  0.00     0.217 HD
ENDBRANCH  11  14
ENDBRANCH   4   7
ENDBRANCH   2   3
BRANCH   2  16
ATOM     16  C13 JE2 d          18.686   0.194  16.874  0.00  0.00     0.066 C 
BRANCH  16  17
ATOM     17  C14 JE2 d          18.148   0.637  18.212  0.00  0.00    -0.056 A 
ATOM     18  C19 JE2 d          17.797  -0.295  19.213  0.00  0.00     0.007 A 
ATOM     19  C18 JE2 d          17.375   0.104  20.472  0.00  0.00     0.001 A 
ATOM     20  C17 JE2 d          17.324   1.460  20.812  0.00  0.00     0.000 A 
ATOM     21  C16 JE2 d          17.677   2.408  19.838  0.00  0.00     0.001 A 
ATOM     22  C15 JE2 d          18.094   2.032  18.521  0.00  0.00     0.007 A 
ENDBRANCH  16  17
ENDBRANCH   2  16
ENDBRANCH   1   2
BRANCH   1  23
ATOM     23  C22 JE2 d          20.360  -1.785  14.942  0.00  0.00     0.252 C 
ATOM     24  N24 JE2 d          21.105  -2.923  15.130  0.00  0.00    -0.326 N 
ATOM     25  C30 JE2 d          20.635  -4.226  14.610  0.00  0.00     0.198 C 
ATOM     26  C25 JE2 d          22.390  -2.947  15.922  0.00  0.00     0.201 C 
ATOM     27  C27 JE2 d          21.898  -5.137  14.596  0.00  0.00     0.032 C 
ATOM     28  S26 JE2 d          22.775  -4.705  16.144  0.00  0.00    -0.137 SA
ATOM     29  C29 JE2 d          21.562  -6.638  14.515  0.00  0.00     0.029 C 
ATOM     30  C28 JE2 d          22.745  -4.760  13.379  0.00  0.00     0.029 C 
ATOM     31  O23 JE2 d          19.299  -1.864  14.288  0.00  0.00    -0.270 OA
BRANCH  25  32
ATOM     32  C31 JE2 d          19.474  -4.746  15.483  0.00  0.00     0.242 C 
ATOM     33  N33 JE2 d          18.568  -5.561  14.791  0.00  0.00    -0.355 N 
ATOM     34  H28 JE2 d          18.694  -5.711  13.810  0.00  0.00     0.162 HD
ATOM     35  O32 JE2 d          19.360  -4.502  16.721  0.00  0.00    -0.271 OA
BRANCH  33  36
ATOM     36  C34 JE2 d          17.426  -6.206  15.483  0.00  0.00     0.161 C 
BRANCH  36  37
ATOM     37  C35 JE2 d          16.136  -5.981  14.682  0.00  0.00    -0.035 A 
ATOM     38  C40 JE2 d          15.577  -7.073  14.028  0.00  0.00     0.009 A 
ATOM     39  C39 JE2 d          14.365  -6.959  13.309  0.00  0.00     0.001 A 
ATOM     40  C38 JE2 d          13.736  -5.747  13.296  0.00  0.00     0.001 A 
ATOM     41  C37 JE2 d          14.267  -4.624  13.979  0.00  0.00     0.007 A 
ATOM     42  C36 JE2 d          15.480  -4.731  14.667  0.00  0.00    -0.054 A 
ATOM     43  C41 JE2 d          16.013  -3.575  15.420  0.00  0.00     0.049 C 
ENDBRANCH  36  37
ENDBRANCH  33  36
ENDBRANCH  25  32
ENDBRANCH   1  23
BRANCH   1  44
ATOM     44  O21 JE2 d          20.521   0.582  14.746  0.00  0.00    -0.384 OA
ATOM     45  H18 JE2 d          19.577   0.612  14.641  0.00  0.00     0.210 HD
ENDBRANCH   1  44
TORSDOF 11
