REMARK  8 active torsions:
REMARK  status: ('A' for Active; 'I' for Inactive)
REMARK    1  A    between atoms: CAG_6  and  CAQ_7 
REMARK    2  A    between atoms: CAQ_7  and  CAP_8 
REMARK    3  A    between atoms: CBA_10  and  OBC_11 
REMARK    4  A    between atoms: CAN_14  and  CAM_15 
REMARK    5  A    between atoms: CAM_15  and  CAL_16 
REMARK    6  A    between atoms: CAV_23  and  OAU_24 
REMARK    7  A    between atoms: OAU_24  and  CAT_25 
REMARK    8  A    between atoms: CAT_25  and  CAS_26 
ROOT
ATOM      1  CAP G24 d          -0.413  -0.643   7.634  0.00  0.00    -0.020 A 
ATOM      2  CAO G24 d          -0.671   0.023   6.459  0.00  0.00     0.017 A 
ATOM      3  CBA G24 d           0.628  -1.557   7.683  0.00  0.00     0.072 A 
ATOM      4  CAZ G24 d           1.403  -1.800   6.543  0.00  0.00     0.037 A 
ATOM      5  CAY G24 d           1.117  -1.124   5.345  0.00  0.00     0.010 A 
ATOM      6  CAN G24 d           0.072  -0.197   5.325  0.00  0.00    -0.053 A 
ENDROOT
BRANCH   6   7
ATOM      7  CAM G24 d          -0.369   0.627   4.126  0.00  0.00     0.078 C 
BRANCH   7   8
ATOM      8  CAL G24 d          -0.013   0.093   2.733  0.00  0.00    -0.042 A 
ATOM      9  CAX G24 d          -0.784  -0.853   2.064  0.00  0.00    -0.052 A 
ATOM     10  CBB G24 d          -2.023  -1.449   2.731  0.00  0.00     0.049 C 
ATOM     11  CAW G24 d          -0.441  -1.292   0.789  0.00  0.00     0.044 A 
ATOM     12  CAV G24 d           0.678  -0.771   0.147  0.00  0.00     0.070 A 
ATOM     13  CAJ G24 d           1.447   0.190   0.787  0.00  0.00     0.044 A 
ATOM     14  CAK G24 d           1.089   0.610   2.063  0.00  0.00    -0.052 A 
ATOM     15  CAE G24 d           1.951   1.662   2.753  0.00  0.00     0.049 C 
BRANCH  12  16
ATOM     16  OAU G24 d           1.031  -1.201  -1.101  0.00  0.00    -0.341 OA
BRANCH  16  17
ATOM     17  CAT G24 d           0.085  -2.174  -1.620  0.00  0.00     0.288 C 
BRANCH  17  18
ATOM     18  CAS G24 d          -1.279  -1.607  -2.059  0.00  0.00     0.198 C 
ATOM     19  OAR G24 d          -1.358  -0.401  -2.386  0.00  0.00    -0.646 OA
ATOM     20  OAI G24 d          -2.269  -2.371  -2.033  0.00  0.00    -0.646 OA
ENDBRANCH  17  18
ENDBRANCH  16  17
ENDBRANCH  12  16
ENDBRANCH   7   8
ENDBRANCH   6   7
BRANCH   1  21
ATOM     21  CAQ G24 d          -1.286  -0.319   8.845  0.00  0.00     0.080 C 
BRANCH  21  22
ATOM     22  CAG G24 d          -0.491   0.596   9.783  0.00  0.00    -0.054 A 
ATOM     23  CAF G24 d           0.012   0.071  10.967  0.00  0.00     0.007 A 
ATOM     24  CAB G24 d           0.720   0.911  11.801  0.00  0.00     0.001 A 
ATOM     25  CAC G24 d           0.949   2.234  11.442  0.00  0.00     0.000 A 
ATOM     26  CAD G24 d           0.450   2.764  10.267  0.00  0.00     0.001 A 
ATOM     27  CAH G24 d          -0.274   1.928   9.430  0.00  0.00     0.007 A 
ENDBRANCH  21  22
ENDBRANCH   1  21
BRANCH   3  28
ATOM     28  OBC G24 d           0.838  -2.182   8.866  0.00  0.00    -0.360 OA
ATOM     29  H9  G24 d           1.571  -2.780   8.781  0.00  0.00     0.217 HD
ENDBRANCH   3  28
TORSDOF 8
