REMARK  16 active torsions:
REMARK  status: ('A' for Active; 'I' for Inactive)
REMARK    1  A    between atoms: CA_2  and  N_1 
REMARK    2  A    between atoms: C_3  and  CA_2 
REMARK    3  A    between atoms: CA_2  and  CB_5 
REMARK       I    between atoms: N_10  and  C_3 
REMARK    4  A    between atoms: CB_5  and  CG_6 
REMARK    5  A    between atoms: CG_6  and  CD_7 
REMARK    6  A    between atoms: CD_7  and  CE_8 
REMARK    7  A    between atoms: CE_8  and  NZ_9 
REMARK    8  A    between atoms: CA_11  and  N_10 
REMARK    9  A    between atoms: C_12  and  CA_11 
REMARK       I    between atoms: C_12  and  N_15 
REMARK   10  A    between atoms: N_15  and  CA_16 
REMARK   11  A    between atoms: CA_16  and  C_17 
REMARK   12  A    between atoms: CA_16  and  CB_19 
REMARK   13  A    between atoms: CB_19  and  CG_20 
REMARK   14  A    between atoms: CG_20  and  CD_21 
REMARK   15  A    between atoms: CD_21  and  CE_22 
REMARK   16  A    between atoms: CE_22  and  NZ_23 
ROOT
ATOM      1  CA  MOL d           3.839  20.195  16.066  0.00  0.00     0.172 C 
ATOM      2  CB  MOL d           4.213  21.651  16.350  0.00  0.00     0.042 C 
ENDROOT
BRANCH   1   3
ATOM      3  C   MOL d           2.528  20.138  15.305  0.00  0.00     0.240 C 
ATOM      4  O   MOL d           2.462  20.427  14.111  0.00  0.00    -0.271 OA
ATOM      5  N   MOL d           1.453  19.749  16.022  0.00  0.00    -0.345 N 
ATOM      6  H21 MOL d           1.562  19.506  16.986  0.00  0.00     0.163 HD
BRANCH   5   7
ATOM      7  CA  MOL d           0.143  19.680  15.408  0.00  0.00     0.185 C 
BRANCH   7   8
ATOM      8  C   MOL d          -0.875  20.513  16.195  0.00  0.00     0.196 C 
ATOM      9  OXT MOL d          -0.553  20.908  17.333  0.00  0.00    -0.646 OA
ATOM     10  O   MOL d          -1.955  20.784  15.609  0.00  0.00    -0.646 OA
ENDBRANCH   7   8
BRANCH   7  11
ATOM     11  CB  MOL d          -0.348  18.232  15.275  0.00  0.00     0.036 C 
BRANCH  11  12
ATOM     12  CG  MOL d          -1.603  18.124  14.416  0.00  0.00     0.004 C 
BRANCH  12  13
ATOM     13  CD  MOL d          -1.552  17.051  13.367  0.00  0.00     0.027 C 
BRANCH  13  14
ATOM     14  CE  MOL d          -2.572  17.332  12.268  0.00  0.00     0.229 C 
BRANCH  14  15
ATOM     15  NZ  MOL d          -3.841  17.860  12.836  0.00  0.00    -0.079 N 
ATOM     16  H31 MOL d          -4.495  18.037  12.090  0.00  0.00     0.274 HD
ATOM     17  H32 MOL d          -3.656  18.718  13.331  0.00  0.00     0.274 HD
ATOM     18  H33 MOL d          -4.232  17.183  13.472  0.00  0.00     0.274 HD
ENDBRANCH  14  15
ENDBRANCH  13  14
ENDBRANCH  12  13
ENDBRANCH  11  12
ENDBRANCH   7  11
ENDBRANCH   5   7
ENDBRANCH   1   3
BRANCH   1  19
ATOM     19  N   MOL d           4.923  19.566  15.319  0.00  0.00    -0.346 N 
ATOM     20  C   MOL d           5.045  18.251  15.215  0.00  0.00     0.248 C 
ATOM     21  O   MOL d           4.280  17.448  15.762  0.00  0.00    -0.271 OA
ATOM     22  H16 MOL d           5.599  20.149  14.869  0.00  0.00     0.163 HD
BRANCH  20  23
ATOM     23  CA  MOL d           6.253  17.756  14.437  0.00  0.00     0.274 C 
BRANCH  23  24
ATOM     24  CB  MOL d           5.968  17.654  12.946  0.00  0.00     0.042 C 
BRANCH  24  25
ATOM     25  CG  MOL d           5.118  16.458  12.548  0.00  0.00     0.004 C 
BRANCH  25  26
ATOM     26  CD  MOL d           4.978  16.357  11.033  0.00  0.00     0.027 C 
BRANCH  26  27
ATOM     27  CE  MOL d           6.249  15.793  10.404  0.00  0.00     0.229 C 
BRANCH  27  28
ATOM     28  NZ  MOL d           6.483  14.392  10.875  0.00  0.00    -0.079 N 
ATOM     29  H13 MOL d           7.324  14.032  10.453  0.00  0.00     0.274 HD
ATOM     30  H14 MOL d           5.701  13.814  10.611  0.00  0.00     0.274 HD
ATOM     31  H15 MOL d           6.582  14.387  11.878  0.00  0.00     0.274 HD
ENDBRANCH  27  28
ENDBRANCH  26  27
ENDBRANCH  25  26
ENDBRANCH  24  25
ENDBRANCH  23  24
BRANCH  23  32
ATOM     32  N   MOL d           6.729  16.450  14.992  0.00  0.00    -0.067 N 
ATOM     33  H1  MOL d           7.529  16.134  14.467  0.00  0.00     0.275 HD
ATOM     34  H2  MOL d           5.991  15.767  14.923  0.00  0.00     0.275 HD
ATOM     35  H3  MOL d           6.987  16.570  15.959  0.00  0.00     0.275 HD
ENDBRANCH  23  32
ENDBRANCH  20  23
ENDBRANCH   1  19
TORSDOF 16
