REMARK  2 active torsions:
REMARK  status: ('A' for Active; 'I' for Inactive)
REMARK    1  A    between atoms: C3_5  and  N1_2 
REMARK    2  A    between atoms: C2_3  and  O15_18 
ROOT
ATOM      1  C1  CZ0 d          23.369   9.464  16.222  0.00  0.00     0.040 A 
ATOM      2  C2  CZ0 d          24.145   8.366  15.893  0.00  0.00     0.099 A 
ATOM      3  C3  CZ0 d          24.399   7.377  16.821  0.00  0.00     0.147 A 
ATOM      4  C4  CZ0 d          22.838   9.569  17.497  0.00  0.00     0.015 A 
ATOM      5  C5  CZ0 d          23.083   8.579  18.434  0.00  0.00    -0.022 A 
ATOM      6  C6  CZ0 d          23.869   7.473  18.111  0.00  0.00     0.013 A 
ATOM      7  C7  CZ0 d          24.099   6.488  19.080  0.00  0.00     0.053 A 
ATOM      8  C8  CZ0 d          22.531   8.702  19.705  0.00  0.00     0.027 A 
ATOM      9  C9  CZ0 d          22.764   7.722  20.662  0.00  0.00     0.005 A 
ATOM     10  C10 CZ0 d          23.544   6.612  20.360  0.00  0.00     0.091 A 
ATOM     11  O11 CZ0 d          23.761   5.651  21.330  0.00  0.00    -0.275 OA
ATOM     12  C12 CZ0 d          23.229   5.763  22.594  0.00  0.00     0.288 A 
ATOM     13  C13 CZ0 d          22.435   6.857  22.954  0.00  0.00     0.090 A 
ATOM     14  C14 CZ0 d          22.184   7.853  22.022  0.00  0.00    -0.043 A 
ATOM     15  O16 CZ0 d          23.455   4.861  23.431  0.00  0.00    -0.260 OA
ATOM     16  C17 CZ0 d          21.345   9.052  22.364  0.00  0.00     0.049 C 
ENDROOT
BRANCH   3  17
ATOM     17  N1  CZ0 d          25.195   6.309  16.389  0.00  0.00    -0.112 N 
ATOM     18  O2  CZ0 d          25.487   5.377  17.123  0.00  0.00    -0.532 OA
ATOM     19  O3  CZ0 d          25.600   6.322  15.241  0.00  0.00    -0.532 OA
ENDBRANCH   3  17
BRANCH   2  20
ATOM     20  O15 CZ0 d          24.658   8.247  14.644  0.00  0.00    -0.358 OA
ATOM     21  H6  CZ0 d          25.606   8.207  14.695  0.00  0.00     0.217 HD
ENDBRANCH   2  20
TORSDOF 2
