REMARK  12 active torsions:
REMARK  status: ('A' for Active; 'I' for Inactive)
REMARK    1  A    between atoms: P_1  and  O2P_22 
REMARK    2  A    between atoms: O5'_43  and  P_1 
REMARK    3  A    between atoms: C6_7  and  N6_8 
REMARK    4  A    between atoms: C1'_12  and  N9_11 
REMARK    5  A    between atoms: C2'_14  and  O2'_15 
REMARK    6  A    between atoms: C24_16  and  C26_18 
REMARK    7  A    between atoms: O2P_22  and  C24_16 
REMARK    8  A    between atoms: C3'_23  and  O3'_24 
REMARK    9  A    between atoms: C30_25  and  C32_27 
REMARK   10  A    between atoms: C35_30  and  C37_32 
REMARK   11  A    between atoms: C5'_42  and  C4'_36 
REMARK   12  A    between atoms: C5'_42  and  O5'_43 
ROOT
ATOM      1  P   M24 d         -29.949  11.676  -8.256  0.00  0.00     0.416 P 
ATOM      2  O1P M24 d         -28.500  12.111  -8.091  0.00  0.00    -0.624 OA
ATOM      3  O3P M24 d         -31.003  12.106  -7.290  0.00  0.00    -0.624 OA
ENDROOT
BRANCH   1   4
ATOM      4  O2P M24 d         -30.029  10.078  -8.006  0.00  0.00    -0.209 OA
BRANCH   4   5
ATOM      5  C24 M24 d         -29.311   9.071  -8.726  0.00  0.00     0.302 C 
ATOM      6  O25 M24 d         -28.716   9.380  -9.744  0.00  0.00    -0.259 OA
BRANCH   5   7
ATOM      7  C26 M24 d         -29.349   7.675  -8.135  0.00  0.00     0.041 A 
ATOM      8  C27 M24 d         -29.830   7.537  -6.832  0.00  0.00     0.017 A 
ATOM      9  C28 M24 d         -29.908   6.297  -6.221  0.00  0.00     0.002 A 
ATOM     10  C29 M24 d         -29.478   5.174  -6.895  0.00  0.00     0.015 A 
ATOM     11  C30 M24 d         -29.016   5.303  -8.184  0.00  0.00     0.015 A 
ATOM     12  C31 M24 d         -28.931   6.550  -8.814  0.00  0.00     0.033 A 
BRANCH  11  13
ATOM     13  C32 M24 d         -28.577   4.072  -8.874  0.00  0.00     0.189 A 
ATOM     14  N33 M24 d         -28.166   4.082 -10.137  0.00  0.00    -0.105 NA
ATOM     15  O34 M24 d         -27.838   2.819 -10.422  0.00  0.00    -0.190 OA
ATOM     16  C35 M24 d         -28.030   2.015  -9.378  0.00  0.00     0.209 A 
ATOM     17  N36 M24 d         -28.491   2.799  -8.374  0.00  0.00    -0.199 NA
BRANCH  16  18
ATOM     18  C37 M24 d         -27.807   0.573  -9.406  0.00  0.00     0.058 A 
ATOM     19  C38 M24 d         -27.286  -0.049 -10.517  0.00  0.00     0.019 A 
ATOM     20  C39 M24 d         -27.123  -1.429 -10.487  0.00  0.00     0.001 A 
ATOM     21  C40 M24 d         -27.514  -2.145  -9.360  0.00  0.00     0.003 A 
ATOM     22  C41 M24 d         -28.077  -1.494  -8.269  0.00  0.00     0.043 A 
ATOM     23  C42 M24 d         -28.219  -0.124  -8.300  0.00  0.00     0.131 A 
ATOM     24  F43 M24 d         -28.741   0.588  -7.292  0.00  0.00    -0.205 F 
ENDBRANCH  16  18
ENDBRANCH  11  13
ENDBRANCH   5   7
ENDBRANCH   4   5
ENDBRANCH   1   4
BRANCH   1  25
ATOM     25  O5' M24 d         -30.370  11.818  -9.803  0.00  0.00    -0.287 OA
BRANCH  25  26
ATOM     26  C5' M24 d         -31.605  11.275 -10.286  0.00  0.00     0.216 C 
BRANCH  26  27
ATOM     27  C4' M24 d         -31.724  11.665 -11.751  0.00  0.00     0.180 C 
ATOM     28  C3' M24 d         -32.983  11.100 -12.398  0.00  0.00     0.182 C 
ATOM     29  C2' M24 d         -32.570  10.911 -13.836  0.00  0.00     0.198 C 
ATOM     30  C1' M24 d         -31.076  10.627 -13.764  0.00  0.00     0.262 C 
ATOM     31  O4' M24 d         -30.618  11.119 -12.505  0.00  0.00    -0.353 OA
BRANCH  28  32
ATOM     32  O3' M24 d         -34.104  11.996 -12.311  0.00  0.00    -0.390 OA
ATOM     33  H12 M24 d         -33.863  12.839 -12.677  0.00  0.00     0.210 HD
ENDBRANCH  28  32
BRANCH  29  34
ATOM     34  O2' M24 d         -32.717  12.155 -14.504  0.00  0.00    -0.388 OA
ATOM     35  H7  M24 d         -33.640  12.370 -14.570  0.00  0.00     0.210 HD
ENDBRANCH  29  34
BRANCH  30  36
ATOM     36  N9  M24 d         -30.791   9.184 -13.845  0.00  0.00    -0.294 N 
ATOM     37  C4  M24 d         -30.760   8.478 -14.970  0.00  0.00     0.167 A 
ATOM     38  N3  M24 d         -30.968   8.808 -16.272  0.00  0.00    -0.222 NA
ATOM     39  C5  M24 d         -30.432   7.189 -14.630  0.00  0.00     0.149 A 
ATOM     40  C2  M24 d         -30.885   7.881 -17.236  0.00  0.00     0.237 A 
ATOM     41  N1  M24 d         -30.571   6.598 -16.979  0.00  0.00    -0.222 NA
ATOM     42  C6  M24 d         -30.323   6.197 -15.714  0.00  0.00     0.155 A 
ATOM     43  N7  M24 d         -30.280   7.135 -13.278  0.00  0.00    -0.236 NA
ATOM     44  C8  M24 d         -30.486   8.388 -12.820  0.00  0.00     0.214 A 
BRANCH  42  45
ATOM     45  N6  M24 d         -30.015   4.896 -15.433  0.00  0.00    -0.382 N 
ATOM     46  H2  M24 d         -29.829   4.609 -14.461  0.00  0.00     0.157 HD
ATOM     47  H3  M24 d         -29.969   4.202 -16.193  0.00  0.00     0.157 HD
ENDBRANCH  42  45
ENDBRANCH  30  36
ENDBRANCH  26  27
ENDBRANCH  25  26
ENDBRANCH   1  25
TORSDOF 12
