REMARK  3 active torsions:
REMARK  status: ('A' for Active; 'I' for Inactive)
REMARK    1  A    between atoms: C15_9  and  C17_10 
REMARK    2  A    between atoms: C17_10  and  C18_11 
REMARK    3  A    between atoms: C11_15  and  N_16 
ROOT
ATOM      1  O1  MOL d          -1.174 -10.665 -26.440  0.00  0.00    -0.268 OA
ATOM      2  C21 MOL d          -0.771 -11.108 -25.365  0.00  0.00     0.252 C 
ATOM      3  N1  MOL d          -1.591 -11.846 -24.589  0.00  0.00    -0.357 N 
ATOM      4  C22 MOL d          -1.221 -12.550 -23.348  0.00  0.00     0.127 C 
ATOM      5  C23 MOL d           0.202 -13.050 -23.474  0.00  0.00     0.059 C 
ATOM      6  C13 MOL d           1.116 -11.967 -23.999  0.00  0.00    -0.038 A 
ATOM      7  C12 MOL d           2.449 -11.947 -23.587  0.00  0.00     0.038 A 
ATOM      8  C14 MOL d           0.639 -10.956 -24.889  0.00  0.00     0.044 A 
ATOM      9  C15 MOL d           1.521  -9.913 -25.310  0.00  0.00    -0.039 A 
ATOM     10  C16 MOL d           2.852  -9.938 -24.894  0.00  0.00     0.038 A 
ATOM     11  C11 MOL d           3.311 -10.950 -24.051  0.00  0.00     0.040 A 
ATOM     12  H   MOL d          -2.543 -11.923 -24.884  0.00  0.00     0.162 HD
ENDROOT
BRANCH  11  13
ATOM     13  N   MOL d           4.710 -10.997 -23.701  0.00  0.00    -0.324 N 
ATOM     14  C2  MOL d           5.449  -9.914 -23.269  0.00  0.00     0.105 A 
ATOM     15  C1  MOL d           6.777 -10.194 -23.327  0.00  0.00    -0.030 A 
ATOM     16  C4  MOL d           6.894 -11.541 -23.822  0.00  0.00     0.040 A 
ATOM     17  C   MOL d           7.876  -9.234 -22.955  0.00  0.00     0.050 C 
ATOM     18  C3  MOL d           5.611 -11.998 -24.054  0.00  0.00     0.031 A 
ATOM     19  C5  MOL d           8.022 -12.458 -24.096  0.00  0.00     0.162 C 
ATOM     20  C8  MOL d           5.273 -13.335 -24.647  0.00  0.00     0.067 C 
ATOM     21  C7  MOL d           6.427 -14.014 -25.397  0.00  0.00    -0.036 C 
ATOM     22  C10 MOL d           6.614 -13.368 -26.774  0.00  0.00     0.015 C 
ATOM     23  C9  MOL d           6.104 -15.494 -25.589  0.00  0.00     0.015 C 
ATOM     24  C6  MOL d           7.709 -13.862 -24.564  0.00  0.00     0.093 C 
ATOM     25  O   MOL d           9.188 -12.099 -23.994  0.00  0.00    -0.292 OA
ENDBRANCH  11  13
BRANCH   9  26
ATOM     26  C17 MOL d           1.163  -8.706 -26.148  0.00  0.00     0.043 C 
BRANCH  26  27
ATOM     27  C18 MOL d           0.406  -7.552 -25.477  0.00  0.00    -0.019 C 
ATOM     28  C20 MOL d           0.150  -6.447 -26.495  0.00  0.00     0.010 C 
ATOM     29  C19 MOL d           1.098  -6.966 -24.242  0.00  0.00     0.010 C 
ENDBRANCH  26  27
ENDBRANCH   9  26
TORSDOF 3
