REMARK  4 active torsions:
REMARK  status: ('A' for Active; 'I' for Inactive)
REMARK    1  A    between atoms: CAM_13  and  OAO_15 
REMARK    2  A    between atoms: CAW_23  and  CAM_13 
REMARK    3  A    between atoms: OAO_15  and  CAS_19 
REMARK    4  A    between atoms: CAT_20  and  CAX_24 
ROOT
ATOM      1  CAI MOL d         -21.048 -48.438  24.912  0.00  0.00     0.233 C 
ATOM      2  CAJ MOL d         -19.740 -48.086  24.212  0.00  0.00     0.037 C 
ATOM      3  CAK MOL d         -22.124 -46.360  23.982  0.00  0.00     0.239 C 
ATOM      4  NAN MOL d         -22.178 -47.773  24.290  0.00  0.00    -0.075 N 
ATOM      5  CAW MOL d         -20.811 -46.017  23.281  0.00  0.00     0.044 C 
ATOM      6  CAX MOL d         -19.596 -46.578  24.038  0.00  0.00     0.028 C 
ATOM      7  H   MOL d         -22.965 -47.904  24.907  0.00  0.00     0.277 HD
ATOM      8  H   MOL d         -22.351 -48.251  23.420  0.00  0.00     0.277 HD
ENDROOT
BRANCH   5   9
ATOM      9  CAM MOL d         -20.750 -44.508  23.088  0.00  0.00     0.182 C 
BRANCH   9  10
ATOM     10  OAO MOL d         -20.517 -43.900  24.359  0.00  0.00    -0.351 OA
BRANCH  10  11
ATOM     11  CAS MOL d         -20.876 -42.609  24.631  0.00  0.00     0.071 A 
ATOM     12  CAD MOL d         -21.216 -42.272  25.954  0.00  0.00     0.039 A 
ATOM     13  CAG MOL d         -21.596 -40.979  26.284  0.00  0.00     0.042 A 
ATOM     14  CAU MOL d         -21.610 -40.040  25.260  0.00  0.00     0.105 A 
ATOM     15  OAP MOL d         -21.954 -38.722  25.308  0.00  0.00    -0.323 OA
ATOM     16  CAV MOL d         -21.283 -40.368  23.976  0.00  0.00     0.107 A 
ATOM     17  CAL MOL d         -21.947 -38.218  23.956  0.00  0.00     0.352 A 
ATOM     18  OAQ MOL d         -21.415 -39.275  23.179  0.00  0.00    -0.323 OA
ATOM     19  CAH MOL d         -20.907 -41.651  23.621  0.00  0.00     0.076 A 
ENDBRANCH  10  11
ENDBRANCH   9  10
ENDBRANCH   5   9
BRANCH   6  20
ATOM     20  CAT MOL d         -18.334 -46.240  23.316  0.00  0.00    -0.053 A 
ATOM     21  CAE MOL d         -18.163 -46.576  21.976  0.00  0.00     0.010 A 
ATOM     22  CAB MOL d         -16.990 -46.243  21.298  0.00  0.00     0.043 A 
ATOM     23  CAR MOL d         -15.961 -45.566  21.936  0.00  0.00     0.116 A 
ATOM     24  FAA MOL d         -14.836 -45.258  21.253  0.00  0.00    -0.206 F 
ATOM     25  CAC MOL d         -16.118 -45.220  23.273  0.00  0.00     0.043 A 
ATOM     26  CAF MOL d         -17.297 -45.552  23.957  0.00  0.00     0.010 A 
ENDBRANCH   6  20
TORSDOF 4
