3u15_ligand

Created by X-TOOL on Fri Sep 26 17:34:55 2014
 42 45  0  0  0  0  0  0  0  0999 V2000
  -10.1830  -34.3510    1.6740  C 0  0  0  2  0  3
   -8.0530  -37.1220    0.5890  C 0  0  0  2  0  3
   -9.2640  -36.5010    0.6750  C 0  0  0  1  0  3
   -9.2280  -35.3140    1.3560  C 0  0  0  1  0  3
  -10.4630  -36.9840    0.0160  C 0  0  0  2  0  3
   -9.7710  -39.0810   -1.2730  N 0  0  0  2  0  3
  -10.5630  -39.8700   -2.0390  C 0  0  0  1  0  3
  -11.9750  -38.4190   -1.4440  C 0  0  0  1  0  3
  -15.0410  -40.8860   -1.6330  C 0  0  0  2  0  3
  -15.7810  -41.8660   -0.9540  C 0  0  0  2  0  3
  -15.3550  -43.2060   -0.9660  C 0  0  0  1  0  3
  -13.4170  -42.5540   -2.2720  C 0  0  0  2  0  3
   -9.7660  -33.2810    2.4220  C 0  0  0  2  0  3
   -8.4360  -33.1820    2.8070  C 0  0  0  1  0  3
   -7.4970  -34.1130    2.4680  C 0  0  0  1  0  3
   -7.2530  -36.2880    1.2880  N 0  0  0  2  0  3
   -7.9050  -35.2080    1.7540  C 0  0  0  1  0  3
  -10.6750  -38.1460   -0.8290  C 0  0  0  1  0  3
  -11.8990  -39.5090   -2.2160  N 0  0  0  1  0  3
  -10.0200  -40.8770   -2.6500  O 0  0  0  1  0  1
  -13.0060  -37.6760   -1.1760  O 0  0  0  1  0  1
  -12.9700  -40.1810   -3.0040  C 0  0  0  3  0  4
  -13.8200  -41.2180   -2.2690  C 0  0  0  1  0  3
  -14.1610  -43.5220   -1.6120  C 0  0  0  1  0  3
  -13.7230  -44.7900   -1.6240  F 0  0  0  1  0  1
  -16.0480  -44.1980   -0.3160  F 0  0  0  1  0  1
   -6.0640  -33.9890    2.9150  C 0  0  0  4  0  4
   -8.0200  -31.7770    3.7790 Cl 0  0  0  1  0  1
  -11.2114  -34.4439    1.3441  H 0  0  0  1  0  1
   -7.7964  -38.0528    0.0853  H 0  0  0  1  0  1
  -11.3502  -36.3748    0.1824  H 0  0  0  1  0  1
   -8.7924  -39.1583   -1.0822  H 0  0  0  1  0  1
  -15.4070  -39.8664   -1.6710  H 0  0  0  1  0  1
  -16.6825  -41.5896   -0.4193  H 0  0  0  1  0  1
  -12.5120  -42.8392   -2.7961  H 0  0  0  1  0  1
  -10.4738  -32.5131    2.7126  H 0  0  0  1  0  1
   -6.2502  -36.4608    1.4472  H 0  0  0  1  0  1
  -12.4896  -40.6870   -3.8544  H 0  0  0  1  0  1
  -13.6481  -39.3996   -3.3777  H 0  0  0  1  0  1
   -5.9332  -33.0485    3.4703  H 0  0  0  1  0  1
   -5.4040  -33.9900    2.0350  H 0  0  0  1  0  1
   -5.8083  -34.8378    3.5662  H 0  0  0  1  0  1
  4  1  4  0  0  1
  1 13  4  0  0  1
  3  2  2  0  0  1
  2 16  1  0  0  1
  3  4  1  0  0  1
  5  3  1  0  0  2
  4 17  4  0  0  1
 18  5  2  0  0  2
  7  6  1  0  0  1
 18  6  1  0  0  1
 19  7  1  0  0  1
  7 20  2  0  0  2
  8 18  1  0  0  1
 19  8  1  0  0  1
  8 21  2  0  0  2
  9 10  4  0  0  1
 23  9  4  0  0  1
 10 11  4  0  0  1
 24 11  4  0  0  1
 11 26  1  0  0  2
 23 12  4  0  0  1
 12 24  4  0  0  1
 13 14  4  0  0  1
 15 14  4  0  0  1
 14 28  1  0  0  2
 17 15  4  0  0  1
 15 27  1  0  0  2
 17 16  1  0  0  1
 22 19  1  0  0  2
 22 23  1  0  0  2
 24 25  1  0  0  2
  1 29  1  0  0  2
  2 30  1  0  0  2
  5 31  1  0  0  2
  6 32  1  0  0  2
  9 33  1  0  0  2
 10 34  1  0  0  2
 12 35  1  0  0  2
 13 36  1  0  0  2
 16 37  1  0  0  2
 22 38  1  0  0  2
 22 39  1  0  0  2
 27 40  1  0  0  2
 27 41  1  0  0  2
 27 42  1  0  0  2
M  END
> <MOLECULAR_FORMULA>
C20H14N3O2F2Cl

> <MOLECULAR_WEIGHT>
401.7

> <NUM_HB_ATOMS>
4  

> <NUM_ROTOR>
2  

> <XLOGP2>
4.28 

$$$$
