REMARK  4 active torsions:
REMARK  status: ('A' for Active; 'I' for Inactive)
REMARK    1  A    between atoms: C1_1  and  C7_7 
REMARK    2  A    between atoms: C7_7  and  N1_8 
REMARK    3  A    between atoms: C8_12  and  C1'_13 
REMARK    4  A    between atoms: C6'_19  and  O6'_20 
ROOT
ATOM      1  C1  MOL d          44.198  -3.084  26.099  0.00  0.00     0.009 A 
ATOM      2  C2  MOL d          44.630  -1.746  26.174  0.00  0.00     0.017 A 
ATOM      3  C3  MOL d          44.589  -1.042  27.369  0.00  0.00     0.033 A 
ATOM      4  C4  MOL d          44.115  -1.684  28.481  0.00  0.00     0.062 A 
ATOM      5  C5  MOL d          43.679  -2.955  28.474  0.00  0.00     0.086 A 
ATOM      6  C6  MOL d          43.705  -3.702  27.284  0.00  0.00     0.049 A 
ATOM      7  N3  MOL d          43.977  -1.276  29.682  0.00  0.00    -0.338 N 
ATOM      8  N4  MOL d          43.269  -3.348  29.667  0.00  0.00    -0.228 NA
ATOM      9  C8  MOL d          43.479  -2.248  30.387  0.00  0.00     0.142 A 
ATOM     10  H8  MOL d          44.219  -0.338  30.032  0.00  0.00     0.167 HD
ENDROOT
BRANCH   9  11
ATOM     11  C1' MOL d          43.255  -2.095  31.779  0.00  0.00     0.045 A 
ATOM     12  C2' MOL d          42.914  -3.190  32.588  0.00  0.00     0.025 A 
ATOM     13  C3' MOL d          42.699  -3.016  33.966  0.00  0.00    -0.060 A 
ATOM     14  C31 MOL d          42.324  -4.195  34.877  0.00  0.00     0.048 C 
ATOM     15  C4' MOL d          42.826  -1.758  34.546  0.00  0.00     0.028 A 
ATOM     16  C5' MOL d          43.169  -0.652  33.762  0.00  0.00     0.045 A 
ATOM     17  C6' MOL d          43.376  -0.822  32.386  0.00  0.00     0.097 A 
ATOM     18 BR5' MOL d          43.427   1.116  34.572  0.00  0.00    -0.048 Br
BRANCH  17  19
ATOM     19  O6' MOL d          43.672   0.299  31.629  0.00  0.00    -0.358 OA
ATOM     20  H14 MOL d          43.787   0.045  30.721  0.00  0.00     0.217 HD
ENDBRANCH  17  19
ENDBRANCH   9  11
BRANCH   1  21
ATOM     21  C7  MOL d          44.269  -3.764  24.858  0.00  0.00     0.102 C 
ATOM     22  N2  MOL d          44.716  -3.128  23.796  0.00  0.00    -0.385 N 
ATOM     23  H6  MOL d          45.010  -2.144  23.871  0.00  0.00     0.157 HD
ATOM     24  H7  MOL d          44.772  -3.615  22.890  0.00  0.00     0.157 HD
BRANCH  21  25
ATOM     25  N1  MOL d          43.892  -5.021  24.768  0.00  0.00    -0.385 N 
ATOM     26  H4  MOL d          43.945  -5.511  23.864  0.00  0.00     0.157 HD
ATOM     27  H5  MOL d          43.543  -5.515  25.602  0.00  0.00     0.157 HD
ENDBRANCH  21  25
ENDBRANCH   1  21
TORSDOF 4
