REMARK  5 active torsions:
REMARK  status: ('A' for Active; 'I' for Inactive)
REMARK    1  A    between atoms: C2_2  and  O2_3 
REMARK    2  A    between atoms: C3_4  and  O3_5 
REMARK    3  A    between atoms: C4_6  and  O4_7 
REMARK    4  A    between atoms: C5_8  and  C6_10 
REMARK    5  A    between atoms: C6_10  and  O6_11 
ROOT
ATOM      1  C1  NOJ d          -0.912  11.133  10.947  0.00  0.00     0.267 C 
ATOM      2  C2  NOJ d           0.135  11.636   9.943  0.00  0.00     0.175 C 
ATOM      3  C3  NOJ d          -0.486  11.758   8.544  0.00  0.00     0.179 C 
ATOM      4  C4  NOJ d          -1.308  10.504   8.144  0.00  0.00     0.182 C 
ATOM      5  C5  NOJ d          -2.470  10.384   9.146  0.00  0.00     0.240 C 
ATOM      6  N5  NOJ d          -1.891  10.158  10.468  0.00  0.00    -0.064 N 
ATOM      7  H10 NOJ d          -2.650  10.139  11.132  0.00  0.00     0.277 HD
ATOM      8  H11 NOJ d          -1.438   9.258  10.450  0.00  0.00     0.277 HD
ENDROOT
BRANCH   5   9
ATOM      9  C6  NOJ d          -3.412   9.198   8.883  0.00  0.00     0.199 C 
BRANCH   9  10
ATOM     10  O6  NOJ d          -2.716   7.967   9.006  0.00  0.00    -0.399 OA
ATOM     11  H14 NOJ d          -3.314   7.248   8.840  0.00  0.00     0.209 HD
ENDBRANCH   9  10
ENDBRANCH   5   9
BRANCH   4  12
ATOM     12  O4  NOJ d          -1.740  10.723   6.816  0.00  0.00    -0.391 OA
ATOM     13  H8  NOJ d          -0.983  10.831   6.252  0.00  0.00     0.210 HD
ENDBRANCH   4  12
BRANCH   3  14
ATOM     14  O3  NOJ d           0.577  12.053   7.664  0.00  0.00    -0.390 OA
ATOM     15  H6  NOJ d           0.240  12.139   6.780  0.00  0.00     0.210 HD
ENDBRANCH   3  14
BRANCH   2  16
ATOM     16  O2  NOJ d           0.472  12.934  10.386  0.00  0.00    -0.391 OA
ATOM     17  H4  NOJ d           1.123  13.307   9.803  0.00  0.00     0.210 HD
ENDBRANCH   2  16
TORSDOF 5
