REMARK  3 active torsions:
REMARK  status: ('A' for Active; 'I' for Inactive)
REMARK    1  A    between atoms: CA_2  and  N_1 
REMARK    2  A    between atoms: CA_2  and  CB_3 
REMARK    3  A    between atoms: CB_3  and  CG_4 
ROOT
ATOM      1  CG  HSM d          73.721  43.937  25.565  0.00  0.00     0.052 A 
ATOM      2  ND1 HSM d          75.075  43.939  25.284  0.00  0.00    -0.247 NA
ATOM      3  CD2 HSM d          73.222  42.802  25.014  0.00  0.00     0.116 A 
ATOM      4  CE1 HSM d          75.378  42.858  24.583  0.00  0.00     0.207 A 
ATOM      5  NE2 HSM d          74.270  42.150  24.404  0.00  0.00    -0.359 N 
ATOM      6  H10 HSM d          74.205  41.258  23.892  0.00  0.00     0.166 HD
ENDROOT
BRANCH   1   7
ATOM      7  CB  HSM d          73.043  45.047  26.297  0.00  0.00     0.088 C 
BRANCH   7   8
ATOM      8  CA  HSM d          72.683  46.233  25.394  0.00  0.00     0.235 C 
BRANCH   8   9
ATOM      9  N   HSM d          71.872  47.208  26.110  0.00  0.00    -0.079 N 
ATOM     10  H1  HSM d          71.649  47.976  25.496  0.00  0.00     0.274 HD
ATOM     11  H2  HSM d          72.385  47.553  26.906  0.00  0.00     0.274 HD
ATOM     12  H3  HSM d          71.020  46.771  26.424  0.00  0.00     0.274 HD
ENDBRANCH   8   9
ENDBRANCH   7   8
ENDBRANCH   1   7
TORSDOF 3
