REMARK  4 active torsions:
REMARK  status: ('A' for Active; 'I' for Inactive)
REMARK    1  A    between atoms: N1_2  and  N2_4 
REMARK    2  A    between atoms: C6_8  and  O1_3 
REMARK    3  A    between atoms: N2_4  and  C9_11 
REMARK    4  A    between atoms: C16_17  and  C17_18 
ROOT
ATOM      1  N1  AZB d           6.519  -4.893  17.243  0.00  0.00    -0.150 NA
ATOM      2  C11 AZB d           3.238  -3.698  15.913  0.00  0.00     0.010 A 
ATOM      3  C12 AZB d           4.351  -3.829  16.784  0.00  0.00     0.034 A 
ATOM      4  C13 AZB d           5.440  -4.752  16.441  0.00  0.00     0.079 A 
ATOM      5  C14 AZB d           5.369  -5.531  15.230  0.00  0.00     0.034 A 
ATOM      6  C15 AZB d           4.198  -5.376  14.330  0.00  0.00     0.010 A 
ATOM      7  C16 AZB d           3.153  -4.453  14.708  0.00  0.00    -0.055 A 
ENDROOT
BRANCH   1   8
ATOM      8  N2  AZB d           6.749  -4.283  18.364  0.00  0.00    -0.150 NA
BRANCH   8   9
ATOM      9  C9  AZB d           8.043  -4.492  18.939  0.00  0.00     0.079 A 
ATOM     10  C4  AZB d           8.969  -5.498  18.728  0.00  0.00     0.036 A 
ATOM     11  C5  AZB d          10.254  -5.582  19.407  0.00  0.00     0.039 A 
ATOM     12  C6  AZB d          10.640  -4.642  20.301  0.00  0.00     0.065 A 
ATOM     13  C7  AZB d           9.750  -3.638  20.527  0.00  0.00     0.039 A 
ATOM     14  C8  AZB d           8.434  -3.564  19.827  0.00  0.00     0.036 A 
BRANCH  12  15
ATOM     15  O1  AZB d          11.814  -4.713  20.910  0.00  0.00    -0.361 OA
ATOM     16  H4  AZB d          11.910  -3.973  21.497  0.00  0.00     0.217 HD
ENDBRANCH  12  15
ENDBRANCH   8   9
ENDBRANCH   1   8
BRANCH   7  17
ATOM     17  C17 AZB d           1.940  -4.239  13.860  0.00  0.00     0.010 C 
ATOM     18  C1  AZB d           0.994  -5.408  13.828  0.00  0.00     0.015 C 
ATOM     19  C3  AZB d           2.344  -3.660  12.551  0.00  0.00     0.015 C 
ENDBRANCH   7  17
TORSDOF 4
