REMARK  3 active torsions:
REMARK  status: ('A' for Active; 'I' for Inactive)
REMARK    1  A    between atoms: N_1  and  CA_2 
REMARK    2  A    between atoms: CA_2  and  CB_3 
REMARK    3  A    between atoms: CB_3  and  CG_4 
ROOT
ATOM      1  CG  HSM d          -3.141   4.946  10.236  0.00  0.00     0.029 A 
ATOM      2  ND1 HSM d          -3.480   3.627  10.041  0.00  0.00    -0.353 N 
ATOM      3  CD2 HSM d          -4.083   5.415  11.087  0.00  0.00     0.143 A 
ATOM      4  CE1 HSM d          -4.545   3.288  10.731  0.00  0.00     0.207 A 
ATOM      5  NE2 HSM d          -4.926   4.363  11.383  0.00  0.00    -0.254 NA
ATOM      6  H8  HSM d          -2.961   2.983   9.428  0.00  0.00     0.166 HD
ENDROOT
BRANCH   1   7
ATOM      7  CB  HSM d          -1.970   5.583   9.567  0.00  0.00     0.085 C 
BRANCH   7   8
ATOM      8  CA  HSM d          -0.646   5.919  10.239  0.00  0.00     0.235 C 
BRANCH   8   9
ATOM      9  N   HSM d           0.472   5.105   9.736  0.00  0.00    -0.079 N 
ATOM     10  H1  HSM d           1.320   5.368  10.213  0.00  0.00     0.274 HD
ATOM     11  H2  HSM d           0.582   5.260   8.746  0.00  0.00     0.274 HD
ATOM     12  H3  HSM d           0.280   4.130   9.905  0.00  0.00     0.274 HD
ENDBRANCH   8   9
ENDBRANCH   7   8
ENDBRANCH   1   7
TORSDOF 3
