REMARK  13 active torsions:
REMARK  status: ('A' for Active; 'I' for Inactive)
REMARK    1  A    between atoms: C2_3  and  O2A_8 
REMARK    2  A    between atoms: C3_4  and  O3A_13 
REMARK    3  A    between atoms: C4_5  and  O4A_18 
REMARK    4  A    between atoms: C5_6  and  C5A_23 
REMARK    5  A    between atoms: O2A_8  and  C2B_9 
REMARK    6  A    between atoms: C2B_9  and  C2D_11 
REMARK    7  A    between atoms: O3A_13  and  C3B_14 
REMARK    8  A    between atoms: C3B_14  and  C3D_16 
REMARK    9  A    between atoms: O4A_18  and  C4B_19 
REMARK   10  A    between atoms: C4B_19  and  C4D_21 
REMARK   11  A    between atoms: C5A_23  and  O5B_24 
REMARK   12  A    between atoms: O5B_24  and  S5C_25 
REMARK   13  A    between atoms: S5C_25  and  N5F_28 
ROOT
ATOM      1  C1  SG5 d          17.250   0.164  12.021  0.00  0.00     0.289 C 
ATOM      2  O5  SG5 d          16.947   0.299  13.308  0.00  0.00    -0.336 OA
ATOM      3  C2  SG5 d          16.578   1.166  11.222  0.00  0.00     0.235 C 
ATOM      4  C3  SG5 d          17.028   2.610  11.597  0.00  0.00     0.199 C 
ATOM      5  C4  SG5 d          17.201   2.799  13.262  0.00  0.00     0.195 C 
ATOM      6  C5  SG5 d          17.615   1.357  13.926  0.00  0.00     0.182 C 
ATOM      7  O1A SG5 d          18.505  -0.220  11.614  0.00  0.00    -0.188 OA
ENDROOT
BRANCH   6   8
ATOM      8  C5A SG5 d          17.465   1.487  15.426  0.00  0.00     0.226 C 
BRANCH   8   9
ATOM      9  O5B SG5 d          16.152   1.870  15.761  0.00  0.00    -0.257 OA
BRANCH   9  10
ATOM     10  S5C SG5 d          15.531   1.129  16.898  0.00  0.00     0.355 S 
ATOM     11  O5D SG5 d          14.104   1.467  16.911  0.00  0.00    -0.176 OA
ATOM     12  O5E SG5 d          16.248   1.517  18.105  0.00  0.00    -0.176 OA
BRANCH  10  13
ATOM     13  N5F SG5 d          15.820  -0.396  16.709  0.00  0.00    -0.306 N 
ATOM     14  H22 SG5 d          15.479  -1.056  17.378  0.00  0.00     0.171 HD
ATOM     15  H23 SG5 d          16.345  -0.711  15.919  0.00  0.00     0.171 HD
ENDBRANCH  10  13
ENDBRANCH   9  10
ENDBRANCH   8   9
ENDBRANCH   6   8
BRANCH   5  16
ATOM     16  O4A SG5 d          17.954   3.912  13.660  0.00  0.00    -0.311 OA
BRANCH  16  17
ATOM     17  C4B SG5 d          17.389   5.034  13.937  0.00  0.00     0.259 C 
ATOM     18  O4C SG5 d          16.150   5.152  13.835  0.00  0.00    -0.265 OA
BRANCH  17  19
ATOM     19  C4D SG5 d          18.245   6.215  14.309  0.00  0.00     0.106 C 
ATOM     20  C4E SG5 d          19.353   6.570  13.359  0.00  0.00     0.015 C 
ENDBRANCH  17  19
ENDBRANCH  16  17
ENDBRANCH   5  16
BRANCH   4  21
ATOM     21  O3A SG5 d          16.331   3.660  10.997  0.00  0.00    -0.310 OA
BRANCH  21  22
ATOM     22  C3B SG5 d          16.899   4.500  10.208  0.00  0.00     0.259 C 
ATOM     23  O3C SG5 d          18.010   4.224   9.700  0.00  0.00    -0.265 OA
BRANCH  22  24
ATOM     24  C3D SG5 d          16.033   5.595   9.637  0.00  0.00     0.106 C 
ATOM     25  C3E SG5 d          16.481   6.249   8.345  0.00  0.00     0.015 C 
ENDBRANCH  22  24
ENDBRANCH  21  22
ENDBRANCH   4  21
BRANCH   3  26
ATOM     26  O2A SG5 d          16.638   0.971   9.850  0.00  0.00    -0.307 OA
BRANCH  26  27
ATOM     27  C2B SG5 d          15.641   1.164   9.076  0.00  0.00     0.259 C 
ATOM     28  O2C SG5 d          14.696   1.905   9.454  0.00  0.00    -0.265 OA
BRANCH  27  29
ATOM     29  C2D SG5 d          15.876   0.936   7.608  0.00  0.00     0.106 C 
ATOM     30  C2E SG5 d          15.944   2.133   6.721  0.00  0.00     0.015 C 
ENDBRANCH  27  29
ENDBRANCH  26  27
ENDBRANCH   3  26
TORSDOF 13
