REMARK  6 active torsions:
REMARK  status: ('A' for Active; 'I' for Inactive)
REMARK    1  A    between atoms: C2'_10  and  O2'_11 
REMARK    2  A    between atoms: C1'_12  and  N9_13 
REMARK    3  A    between atoms: C6_17  and  N6_18 
REMARK    4  A    between atoms: C2'1_32  and  O2'1_33 
REMARK    5  A    between atoms: C1'1_34  and  N91_35 
REMARK    6  A    between atoms: C61_39  and  N61_40 
ROOT
ATOM      1  P   MOL d          59.781  74.024 -87.877  0.00  0.00     0.408 P 
ATOM      2  O1P MOL d          59.220  73.419 -86.629  0.00  0.00    -0.624 OA
ATOM      3  O2P MOL d          60.915  75.024 -87.820  0.00  0.00    -0.624 OA
ATOM      4  O5' MOL d          58.644  74.768 -88.732  0.00  0.00    -0.287 OA
ATOM      5  C5' MOL d          57.373  74.104 -88.950  0.00  0.00     0.216 C 
ATOM      6  C4' MOL d          56.456  75.019 -89.728  0.00  0.00     0.180 C 
ATOM      7  O4' MOL d          56.199  76.201 -88.996  0.00  0.00    -0.353 OA
ATOM      8  C3' MOL d          57.034  75.514 -91.046  0.00  0.00     0.198 C 
ATOM      9  O3' MOL d          56.882  74.494 -92.032  0.00  0.00    -0.279 OA
ATOM     10  C2' MOL d          56.311  76.814 -91.334  0.00  0.00     0.199 C 
ATOM     11  C1' MOL d          55.691  77.062 -89.974  0.00  0.00     0.262 C 
ATOM     12  P1  MOL d          57.991  74.283 -93.173  0.00  0.00     0.408 P 
ATOM     13  O1P MOL d          58.436  75.582 -93.719  0.00  0.00    -0.624 OA
ATOM     14  O2P MOL d          57.458  73.241 -94.148  0.00  0.00    -0.624 OA
ATOM     15  O5' MOL d          59.258  73.641 -92.397  0.00  0.00    -0.287 OA
ATOM     16  C5' MOL d          59.244  72.334 -91.823  0.00  0.00     0.216 C 
ATOM     17  C4' MOL d          60.571  72.128 -91.151  0.00  0.00     0.180 C 
ATOM     18  O4' MOL d          61.634  72.195 -92.121  0.00  0.00    -0.353 OA
ATOM     19  C3' MOL d          60.912  73.161 -90.099  0.00  0.00     0.198 C 
ATOM     20  O3' MOL d          60.273  72.829 -88.870  0.00  0.00    -0.279 OA
ATOM     21  C2' MOL d          62.437  73.060 -90.016  0.00  0.00     0.199 C 
ATOM     22  C1' MOL d          62.773  72.804 -91.473  0.00  0.00     0.262 C 
ENDROOT
BRANCH  11  23
ATOM     23  N9  MOL d          55.795  78.410 -89.579  0.00  0.00    -0.294 N 
ATOM     24  C8  MOL d          54.722  79.208 -89.209  0.00  0.00     0.214 A 
ATOM     25  N7  MOL d          55.151  80.393 -88.735  0.00  0.00    -0.236 NA
ATOM     26  C5  MOL d          56.510  80.274 -88.787  0.00  0.00     0.149 A 
ATOM     27  C6  MOL d          57.569  81.186 -88.428  0.00  0.00     0.155 C 
ATOM     28  C4  MOL d          56.898  78.973 -89.269  0.00  0.00     0.167 A 
ATOM     29  N1  MOL d          58.824  80.759 -88.615  0.00  0.00    -0.222 NA
ATOM     30  C2  MOL d          59.100  79.532 -89.025  0.00  0.00     0.237 C 
ATOM     31  N3  MOL d          58.209  78.631 -89.441  0.00  0.00    -0.222 NA
BRANCH  27  32
ATOM     32  N6  MOL d          57.275  82.413 -87.973  0.00  0.00    -0.382 N 
ATOM     33  H9  MOL d          58.032  83.063 -87.717  0.00  0.00     0.157 HD
ATOM     34  H10 MOL d          56.292  82.706 -87.879  0.00  0.00     0.157 HD
ENDBRANCH  27  32
ENDBRANCH  11  23
BRANCH  10  35
ATOM     35  O2' MOL d          55.274  76.668 -92.298  0.00  0.00    -0.388 OA
ATOM     36  H6  MOL d          54.633  76.044 -91.980  0.00  0.00     0.210 HD
ENDBRANCH  10  35
BRANCH  21  37
ATOM     37  O2' MOL d          62.836  71.904 -89.270  0.00  0.00    -0.388 OA
ATOM     38  H17 MOL d          63.785  71.864 -89.233  0.00  0.00     0.210 HD
ENDBRANCH  21  37
BRANCH  22  39
ATOM     39  N91 MOL d          63.030  74.050 -92.193  0.00  0.00    -0.294 N 
ATOM     40  C81 MOL d          62.136  74.958 -92.760  0.00  0.00     0.214 C 
ATOM     41  N71 MOL d          62.796  75.942 -93.412  0.00  0.00    -0.236 NA
ATOM     42  C51 MOL d          64.132  75.812 -93.047  0.00  0.00     0.149 A 
ATOM     43  C61 MOL d          65.332  76.515 -93.444  0.00  0.00     0.155 A 
ATOM     44  C41 MOL d          64.263  74.563 -92.365  0.00  0.00     0.167 A 
ATOM     45  N11 MOL d          66.508  75.999 -93.057  0.00  0.00    -0.222 NA
ATOM     46  C21 MOL d          66.547  74.878 -92.320  0.00  0.00     0.237 A 
ATOM     47  N31 MOL d          65.469  74.131 -91.976  0.00  0.00    -0.222 NA
BRANCH  43  48
ATOM     48  N61 MOL d          65.247  77.650 -94.191  0.00  0.00    -0.382 N 
ATOM     49  H20 MOL d          66.104  78.147 -94.471  0.00  0.00     0.157 HD
ATOM     50  H21 MOL d          64.325  78.011 -94.476  0.00  0.00     0.157 HD
ENDBRANCH  43  48
ENDBRANCH  22  39
TORSDOF 6
