REMARK  7 active torsions:
REMARK  status: ('A' for Active; 'I' for Inactive)
REMARK    1  A    between atoms: C4_7  and  S_1 
REMARK    2  A    between atoms: S_1  and  N3S_16 
REMARK       I    between atoms: C7_10  and  N'_2 
REMARK    3  A    between atoms: N'_2  and  C1'_11 
REMARK    4  A    between atoms: C1_4  and  C7_10 
REMARK    5  A    between atoms: C1'_11  and  C2'_13 
REMARK    6  A    between atoms: C2'_13  and  C3'_15 
REMARK    7  A    between atoms: C3'_15  and  C4'_17 
ROOT
ATOM      1  C1  RZ5 d          16.672   4.579  14.646  0.00  0.00     0.032 A 
ATOM      2  C2  RZ5 d          17.012   2.457  15.798  0.00  0.00     0.026 A 
ATOM      3  C3  RZ5 d          17.526   3.563  15.085  0.00  0.00     0.018 A 
ATOM      4  C4  RZ5 d          15.627   2.304  16.067  0.00  0.00     0.079 A 
ATOM      5  C5  RZ5 d          15.298   4.429  14.871  0.00  0.00     0.018 A 
ATOM      6  C6  RZ5 d          14.770   3.355  15.594  0.00  0.00     0.026 A 
ENDROOT
BRANCH   1   7
ATOM      7  C7  RZ5 d          17.234   5.747  13.894  0.00  0.00     0.251 C 
ATOM      8  N'  RZ5 d          18.554   5.750  13.597  0.00  0.00    -0.357 N 
ATOM      9  H1  RZ5 d          19.102   4.965  13.885  0.00  0.00     0.162 HD
ATOM     10  O'  RZ5 d          16.466   6.691  13.584  0.00  0.00    -0.268 OA
BRANCH   8  11
ATOM     11  C1' RZ5 d          19.241   6.854  12.865  0.00  0.00     0.123 C 
BRANCH  11  12
ATOM     12  C2' RZ5 d          19.638   7.861  13.961  0.00  0.00     0.020 C 
BRANCH  12  13
ATOM     13  C3' RZ5 d          19.994   9.199  13.381  0.00  0.00     0.001 C 
BRANCH  13  14
ATOM     14  C4' RZ5 d          19.999  10.234  14.495  0.00  0.00    -0.004 C 
ATOM     15  C5' RZ5 d          19.339  11.478  13.935  0.00  0.00     0.005 C 
ENDBRANCH  13  14
ENDBRANCH  12  13
ENDBRANCH  11  12
ENDBRANCH   8  11
ENDBRANCH   1   7
BRANCH   4  16
ATOM     16  S   RZ5 d          15.043   0.977  16.878  0.00  0.00     0.256 S 
ATOM     17  O1S RZ5 d          13.590   1.014  16.764  0.00  0.00    -0.201 OA
ATOM     18  O2S RZ5 d          15.590   1.031  18.207  0.00  0.00    -0.201 OA
BRANCH  16  19
ATOM     19  N3S RZ5 d          15.635  -0.341  16.212  0.00  0.00    -0.324 N 
ATOM     20  H12 RZ5 d          15.388  -1.239  16.575  0.00  0.00     0.169 HD
ATOM     21  H13 RZ5 d          16.255  -0.271  15.430  0.00  0.00     0.169 HD
ENDBRANCH  16  19
ENDBRANCH   4  16
TORSDOF 7
