REMARK  5 active torsions:
REMARK  status: ('A' for Active; 'I' for Inactive)
REMARK    1  A    between atoms: C2_2  and  O2_3 
REMARK    2  A    between atoms: C3_4  and  O3_5 
REMARK    3  A    between atoms: C4_6  and  O4_7 
REMARK    4  A    between atoms: C5_8  and  C6_10 
REMARK    5  A    between atoms: C6_10  and  O6_11 
ROOT
ATOM      1  C1  DGJ d          64.064  28.814  33.255  0.00  0.00     0.267 C 
ATOM      2  C2  DGJ d          62.804  27.960  33.322  0.00  0.00     0.175 C 
ATOM      3  C3  DGJ d          61.836  28.569  34.346  0.00  0.00     0.179 C 
ATOM      4  C4  DGJ d          62.542  28.735  35.685  0.00  0.00     0.182 C 
ATOM      5  C5  DGJ d          63.695  29.705  35.513  0.00  0.00     0.240 C 
ATOM      6  N5  DGJ d          64.674  29.083  34.573  0.00  0.00    -0.064 N 
ATOM      7  H   DGJ d          65.454  29.709  34.451  0.00  0.00     0.277 HD
ATOM      8  H   DGJ d          64.999  28.214  34.967  0.00  0.00     0.277 HD
ENDROOT
BRANCH   5   9
ATOM      9  C6  DGJ d          64.412  30.001  36.825  0.00  0.00     0.199 C 
BRANCH   9  10
ATOM     10  O6  DGJ d          63.636  30.715  37.760  0.00  0.00    -0.399 OA
ATOM     11  H   DGJ d          64.147  30.861  38.548  0.00  0.00     0.209 HD
ENDBRANCH   9  10
ENDBRANCH   5   9
BRANCH   4  12
ATOM     12  O4  DGJ d          62.997  27.459  36.168  0.00  0.00    -0.391 OA
ATOM     13  H   DGJ d          62.252  26.880  36.278  0.00  0.00     0.210 HD
ENDBRANCH   4  12
BRANCH   3  14
ATOM     14  O3  DGJ d          60.651  27.781  34.522  0.00  0.00    -0.390 OA
ATOM     15  H   DGJ d          60.193  27.711  33.693  0.00  0.00     0.210 HD
ENDBRANCH   3  14
BRANCH   2  16
ATOM     16  O2  DGJ d          62.092  27.868  32.036  0.00  0.00    -0.391 OA
ATOM     17  H   DGJ d          61.834  28.738  31.756  0.00  0.00     0.210 HD
ENDBRANCH   2  16
TORSDOF 5
