REMARK  3 active torsions:
REMARK  status: ('A' for Active; 'I' for Inactive)
REMARK    1  A    between atoms: C7_6  and  C5_3 
REMARK    2  A    between atoms: C11_5  and  N5_20 
REMARK       I    between atoms: N6_22  and  C7_6 
REMARK    3  A    between atoms: C10_9  and  N6_22 
ROOT
ATOM      1  C8  15V d          54.742   9.402   6.075  0.00  0.00     0.055 A 
ATOM      2  C9  15V d          55.954  10.002   6.443  0.00  0.00     0.079 A 
ATOM      3  C10 15V d          56.797   9.750   5.361  0.00  0.00     0.134 A 
ATOM      4  C12 15V d          53.565   9.462   7.027  0.00  0.00     0.072 C 
ATOM      5  N5  15V d          56.120   9.095   4.447  0.00  0.00    -0.217 N 
ATOM      6  N4  15V d          54.818   8.849   4.858  0.00  0.00    -0.171 NA
ENDROOT
BRANCH   3   7
ATOM      7  N6  15V d          58.096  10.134   5.178  0.00  0.00    -0.307 N 
ATOM      8  C7  15V d          58.853  10.910   5.985  0.00  0.00     0.262 C 
ATOM      9  O1  15V d          58.475  11.425   7.030  0.00  0.00    -0.267 OA
ATOM     10  H12 15V d          58.540   9.800   4.346  0.00  0.00     0.170 HD
BRANCH   8  11
ATOM     11  C5  15V d          60.243  11.262   5.578  0.00  0.00     0.099 A 
ATOM     12  C6  15V d          61.173  12.093   6.186  0.00  0.00     0.160 A 
ATOM     13  N3  15V d          62.285  12.145   5.414  0.00  0.00    -0.178 NA
ATOM     14  N2  15V d          61.964  11.365   4.295  0.00  0.00    -0.226 N 
ATOM     15  C4  15V d          62.769  11.147   3.248  0.00  0.00     0.122 A 
ATOM     16  C3  15V d          60.756  10.830   4.355  0.00  0.00     0.167 A 
ATOM     17  C1  15V d          62.304  10.332   2.216  0.00  0.00     0.038 A 
ATOM     18  C2  15V d          61.012   9.778   2.308  0.00  0.00     0.120 A 
ATOM     19  N1  15V d          60.241  10.036   3.384  0.00  0.00    -0.240 NA
ENDBRANCH   8  11
ENDBRANCH   3   7
BRANCH   5  20
ATOM     20  C11 15V d          56.531   8.689   3.251  0.00  0.00     0.062 A 
ATOM     21  C13 15V d          57.075   9.582   2.337  0.00  0.00     0.032 A 
ATOM     22  C14 15V d          57.491   9.196   1.075  0.00  0.00     0.004 A 
ATOM     23  C15 15V d          57.368   7.872   0.690  0.00  0.00     0.024 A 
ATOM     24  C16 15V d          56.806   6.947   1.560  0.00  0.00     0.036 A 
ATOM     25 CL1  15V d          56.633   5.233   1.029  0.00  0.00    -0.084 Cl
ATOM     26  C17 15V d          56.394   7.361   2.826  0.00  0.00     0.055 A 
ENDBRANCH   5  20
TORSDOF 3
