REMARK  5 active torsions:
REMARK  status: ('A' for Active; 'I' for Inactive)
REMARK    1  A    between atoms: CAM_13  and  CAS_19 
REMARK    2  A    between atoms: CBC_29  and  CAM_13 
REMARK    3  A    between atoms: CAS_19  and  OAQ_17 
REMARK    4  A    between atoms: OAQ_17  and  CBE_31 
REMARK    5  A    between atoms: CAT_20  and  CAW_23 
ROOT
ATOM      1  CAA JQ1 d          10.133  -6.313 -28.351  0.00  0.00     0.093 C 
ATOM      2  CAB JQ1 d           5.372  -3.549 -30.703  0.00  0.00     0.057 C 
ATOM      3  CAC JQ1 d           5.948  -1.228 -28.564  0.00  0.00     0.050 C 
ATOM      4  NAN JQ1 d           9.780  -1.064 -27.171  0.00  0.00    -0.275 NA
ATOM      5  NAO JQ1 d          12.059  -4.730 -27.866  0.00  0.00    -0.135 NA
ATOM      6  NAP JQ1 d          12.224  -3.476 -27.810  0.00  0.00    -0.132 NA
ATOM      7  SAR JQ1 d           8.051  -4.376 -29.919  0.00  0.00    -0.075 SA
ATOM      8  CAT JQ1 d           8.526  -1.512 -27.222  0.00  0.00     0.075 C 
ATOM      9  CAV JQ1 d          10.764  -4.978 -28.179  0.00  0.00     0.131 A 
ATOM     10  CAX JQ1 d           6.659  -3.328 -29.824  0.00  0.00    -0.012 A 
ATOM     11  CAY JQ1 d           6.895  -2.341 -28.914  0.00  0.00    -0.034 A 
ATOM     12  CAZ JQ1 d          11.078  -2.870 -28.112  0.00  0.00     0.161 A 
ATOM     13  CBA JQ1 d           8.122  -2.443 -28.232  0.00  0.00     0.035 A 
ATOM     14  CBB JQ1 d           8.897  -3.521 -28.696  0.00  0.00     0.097 A 
ATOM     15  CBC JQ1 d          10.785  -1.357 -28.205  0.00  0.00     0.190 C 
ATOM     16  NBD JQ1 d          10.147  -3.808 -28.323  0.00  0.00    -0.275 N 
ENDROOT
BRANCH  15  17
ATOM     17  CAM JQ1 d          11.982  -0.421 -28.022  0.00  0.00     0.146 C 
BRANCH  17  18
ATOM     18  CAS JQ1 d          11.425   0.988 -28.245  0.00  0.00     0.262 C 
ATOM     19  OAG JQ1 d          11.940   1.983 -27.790  0.00  0.00    -0.265 OA
BRANCH  18  20
ATOM     20  OAQ JQ1 d          10.281   1.143 -28.946  0.00  0.00    -0.311 OA
BRANCH  20  21
ATOM     21  CBE JQ1 d           9.650   2.461 -28.980  0.00  0.00     0.060 C 
ATOM     22  CAD JQ1 d           8.403   2.191 -29.817  0.00  0.00     0.045 C 
ATOM     23  CAE JQ1 d           9.296   2.883 -27.550  0.00  0.00     0.045 C 
ATOM     24  CAF JQ1 d          10.493   3.563 -29.658  0.00  0.00     0.045 C 
ENDBRANCH  20  21
ENDBRANCH  18  20
ENDBRANCH  17  18
ENDBRANCH  15  17
BRANCH   8  25
ATOM     25  CAW JQ1 d           7.679  -1.135 -26.131  0.00  0.00    -0.007 A 
ATOM     26  CAK JQ1 d           7.870   0.053 -25.386  0.00  0.00     0.015 A 
ATOM     27  CAI JQ1 d           7.057   0.405 -24.276  0.00  0.00     0.024 A 
ATOM     28  CAU JQ1 d           6.026  -0.457 -23.937  0.00  0.00     0.034 A 
ATOM     29 CLAH JQ1 d           4.889  -0.205 -22.646  0.00  0.00    -0.084 Cl
ATOM     30  CAJ JQ1 d           5.860  -1.651 -24.633  0.00  0.00     0.024 A 
ATOM     31  CAL JQ1 d           6.663  -1.976 -25.705  0.00  0.00     0.015 A 
ENDBRANCH   8  25
TORSDOF 5
