REMARK  9 active torsions:
REMARK  status: ('A' for Active; 'I' for Inactive)
REMARK    1  A    between atoms: N2_2  and  C4_4 
REMARK    2  A    between atoms: C4_4  and  C5_5 
REMARK    3  A    between atoms: C5_5  and  N6_6 
REMARK    4  A    between atoms: N6_6  and  S7_7 
REMARK    5  A    between atoms: S7_7  and  C10_10 
REMARK    6  A    between atoms: C13_13  and  C16_16 
REMARK    7  A    between atoms: C19_19  and  N31_31 
REMARK    8  A    between atoms: C20_20  and  C22_22 
REMARK       I    between atoms: C22_22  and  N24_24 
REMARK    9  A    between atoms: N24_24  and  C25_25 
ROOT
ATOM      1  C16 MOL d          18.873  18.856   8.033  0.00  0.00     0.085 A 
ATOM      2  C17 MOL d          19.053  19.545   6.851  0.00  0.00     0.151 A 
ATOM      3  N18 MOL d          20.171  19.478   6.117  0.00  0.00    -0.239 NA
ATOM      4  C19 MOL d          21.155  18.707   6.613  0.00  0.00     0.155 A 
ATOM      5  C20 MOL d          20.998  18.046   7.820  0.00  0.00     0.170 A 
ATOM      6  N21 MOL d          19.860  18.090   8.532  0.00  0.00    -0.237 NA
ENDROOT
BRANCH   1   7
ATOM      7  C13 MOL d          17.613  18.876   8.767  0.00  0.00    -0.006 A 
ATOM      8  C12 MOL d          16.406  19.192   8.153  0.00  0.00     0.015 A 
ATOM      9  C11 MOL d          15.212  19.154   8.847  0.00  0.00     0.026 A 
ATOM     10  C10 MOL d          15.217  18.803  10.189  0.00  0.00     0.079 A 
ATOM     11  C15 MOL d          16.408  18.500  10.826  0.00  0.00     0.026 A 
ATOM     12  C14 MOL d          17.588  18.530  10.107  0.00  0.00     0.015 A 
BRANCH  10  13
ATOM     13  S7  MOL d          13.681  18.744  11.143  0.00  0.00     0.258 S 
ATOM     14  O8  MOL d          13.690  17.500  11.893  0.00  0.00    -0.201 OA
ATOM     15  O9  MOL d          12.632  19.072  10.203  0.00  0.00    -0.201 OA
BRANCH  13  16
ATOM     16  N6  MOL d          13.971  19.969  12.299  0.00  0.00    -0.314 N 
ATOM     17  H12 MOL d          14.251  19.735  13.230  0.00  0.00     0.172 HD
BRANCH  16  18
ATOM     18  C5  MOL d          13.800  21.376  11.897  0.00  0.00     0.160 C 
BRANCH  18  19
ATOM     19  C4  MOL d          13.770  22.194  13.183  0.00  0.00     0.254 C 
BRANCH  19  20
ATOM     20  N2  MOL d          12.529  21.989  14.013  0.00  0.00    -0.077 N 
ATOM     21  C1  MOL d          11.209  21.883  13.328  0.00  0.00     0.269 C 
ATOM     22  C3  MOL d          12.672  21.103  15.201  0.00  0.00     0.269 C 
ATOM     23  H4  MOL d          12.446  22.895  14.447  0.00  0.00     0.279 HD
ENDBRANCH  19  20
ENDBRANCH  18  19
ENDBRANCH  16  18
ENDBRANCH  13  16
ENDBRANCH  10  13
ENDBRANCH   1   7
BRANCH   5  24
ATOM     24  C22 MOL d          22.066  17.178   8.369  0.00  0.00     0.278 C 
ATOM     25  O23 MOL d          23.156  17.092   7.824  0.00  0.00    -0.265 OA
ATOM     26  N24 MOL d          21.659  16.480   9.490  0.00  0.00    -0.320 N 
ATOM     27  H18 MOL d          20.691  16.547   9.731  0.00  0.00     0.169 HD
BRANCH  26  28
ATOM     28  C25 MOL d          22.459  15.688  10.325  0.00  0.00     0.052 A 
ATOM     29  C26 MOL d          21.845  15.064  11.391  0.00  0.00     0.032 A 
ATOM     30  C27 MOL d          22.602  14.298  12.261  0.00  0.00     0.021 A 
ATOM     31  C28 MOL d          23.959  14.188  12.009  0.00  0.00     0.116 A 
ATOM     32  N29 MOL d          24.575  14.775  10.971  0.00  0.00    -0.271 NA
ATOM     33  C30 MOL d          23.824  15.520  10.154  0.00  0.00     0.145 A 
ENDBRANCH  26  28
ENDBRANCH   5  24
BRANCH   4  34
ATOM     34  N31 MOL d          22.332  18.579   5.879  0.00  0.00    -0.382 N 
ATOM     35  H23 MOL d          23.101  17.994   6.237  0.00  0.00     0.157 HD
ATOM     36  H24 MOL d          22.433  19.069   4.979  0.00  0.00     0.157 HD
ENDBRANCH   4  34
TORSDOF 9
