2y7p_ligand

Created by X-TOOL on Fri Sep 26 17:34:51 2014
 15 15  0  0  0  0  0  0  0  0999 V2000
   14.8160   48.6310    3.5540  C 0  5  0  1  0  3
   15.5390   49.3720    2.8170  O 0  0  0  1  0  1
   14.9820   48.6050    4.7950  O 0  0  0  1  0  1
   13.7830   47.7510    2.9810  C 0  0  0  1  0  3
   12.9860   46.8930    3.8750  C 0  0  0  1  0  3
   12.0430   46.0320    3.3440  C 0  0  0  2  0  3
   11.8180   45.9740    1.9480  C 0  0  0  2  0  3
   12.5750   46.7800    1.1220  C 0  0  0  2  0  3
   13.5620   47.6770    1.5970  C 0  0  0  2  0  3
   13.1930   46.9800    5.2290  O 0  0  0  2  0  2
   11.4689   45.3934    4.0055  H 0  0  0  1  0  1
   11.0666   45.3102    1.5359  H 0  0  0  1  0  1
   12.4048   46.7232    0.0529  H 0  0  0  1  0  1
   14.1324   48.2909    0.9094  H 0  0  0  1  0  1
   13.8740   47.6190    5.4037  H 0  0  0  1  0  1
  1  2  2  0  0  2
  1  3  2  0  0  2
  1  4  1  0  0  2
  4  5  4  0  0  1
  4  9  4  0  0  1
  5  6  4  0  0  1
  5 10  1  0  0  2
  6  7  4  0  0  1
  7  8  4  0  0  1
  8  9  4  0  0  1
  6 11  1  0  0  2
  7 12  1  0  0  2
  8 13  1  0  0  2
  9 14  1  0  0  2
 10 15  1  0  0  2
M  END
> <MOLECULAR_FORMULA>
C7H5O3

> <MOLECULAR_WEIGHT>
137.1

> <NUM_HB_ATOMS>
3  

> <NUM_ROTOR>
0  

> <XLOGP2>
1.90 

$$$$
