REMARK  15 active torsions:
REMARK  status: ('A' for Active; 'I' for Inactive)
REMARK    1  A    between atoms: C8_2  and  O1_16 
REMARK    2  A    between atoms: C1_30  and  C16_9 
REMARK    3  A    between atoms: C29_13  and  N1_14 
REMARK    4  A    between atoms: O1_16  and  C34_17 
REMARK    5  A    between atoms: C34_17  and  C25_18 
REMARK       I    between atoms: C25_18  and  N16_20 
REMARK    6  A    between atoms: N16_20  and  C17_32 
REMARK    7  A    between atoms: C17_32  and  C15_21 
REMARK    8  A    between atoms: C15_21  and  C12_23 
REMARK    9  A    between atoms: C15_21  and  O14_22 
REMARK   10  A    between atoms: C12_23  and  C4_24 
REMARK   11  A    between atoms: C4_24  and  N3_29 
REMARK   12  A    between atoms: C4_24  and  C5_25 
REMARK   13  A    between atoms: C5_25  and  C6_26 
REMARK       I    between atoms: N3_29  and  C1_30 
REMARK   14  A    between atoms: C17_32  and  C18_33 
REMARK   15  A    between atoms: C18_33  and  C19_34 
ROOT
ATOM      1  C15 R36 d          31.321  32.583  14.425  0.00  0.00     0.143 C 
ENDROOT
BRANCH   1   2
ATOM      2  C17 R36 d          30.662  32.518  13.029  0.00  0.00     0.117 C 
BRANCH   2   3
ATOM      3  N16 R36 d          31.532  31.819  12.110  0.00  0.00    -0.352 N 
ATOM      4  C25 R36 d          31.706  32.243  10.866  0.00  0.00     0.242 C 
ATOM      5  O26 R36 d          31.121  33.253  10.430  0.00  0.00    -0.271 OA
ATOM      6  H18 R36 d          32.013  30.998  12.419  0.00  0.00     0.163 HD
BRANCH   4   7
ATOM      7  C34 R36 d          32.672  31.426   9.972  0.00  0.00     0.278 C 
BRANCH   7   8
ATOM      8  O1  R36 d          33.271  30.304  10.594  0.00  0.00    -0.341 OA
BRANCH   8   9
ATOM      9  C8  R36 d          34.344  29.654   9.961  0.00  0.00     0.081 A 
ATOM     10  C   R36 d          34.095  28.474   9.251  0.00  0.00    -0.028 A 
ATOM     11  C2  R36 d          32.690  27.916   9.168  0.00  0.00     0.051 C 
ATOM     12  C14 R36 d          35.139  27.804   8.605  0.00  0.00     0.009 A 
ATOM     13  C13 R36 d          36.423  28.295   8.665  0.00  0.00     0.001 A 
ATOM     14  C10 R36 d          36.690  29.449   9.345  0.00  0.00     0.009 A 
ATOM     15  C9  R36 d          35.670  30.145  10.000  0.00  0.00    -0.028 A 
ATOM     16  C3  R36 d          35.992  31.446  10.705  0.00  0.00     0.051 C 
ENDBRANCH   8   9
ENDBRANCH   7   8
ENDBRANCH   4   7
ENDBRANCH   2   3
BRANCH   2  17
ATOM     17  C18 R36 d          29.341  31.783  13.145  0.00  0.00     0.066 C 
BRANCH  17  18
ATOM     18  C19 R36 d          28.725  31.412  11.840  0.00  0.00    -0.056 A 
ATOM     19  C24 R36 d          28.827  30.113  11.364  0.00  0.00     0.007 A 
ATOM     20  C23 R36 d          28.176  29.720  10.144  0.00  0.00     0.001 A 
ATOM     21  C22 R36 d          27.431  30.658   9.438  0.00  0.00     0.000 A 
ATOM     22  C21 R36 d          27.333  31.969   9.918  0.00  0.00     0.001 A 
ATOM     23  C20 R36 d          27.986  32.340  11.115  0.00  0.00     0.007 A 
ENDBRANCH  17  18
ENDBRANCH   2  17
ENDBRANCH   1   2
BRANCH   1  24
ATOM     24  C12 R36 d          32.621  33.303  14.348  0.00  0.00     0.059 C 
BRANCH  24  25
ATOM     25  C4  R36 d          32.667  34.616  13.615  0.00  0.00     0.087 C 
BRANCH  25  26
ATOM     26  N3  R36 d          31.827  35.612  14.290  0.00  0.00    -0.352 N 
ATOM     27  C1  R36 d          31.211  36.622  13.680  0.00  0.00     0.252 C 
ATOM     28  O2  R36 d          31.292  36.803  12.458  0.00  0.00    -0.268 OA
ATOM     29  H33 R36 d          31.709  35.526  15.279  0.00  0.00     0.163 HD
BRANCH  27  30
ATOM     30  C16 R36 d          30.462  37.497  14.532  0.00  0.00     0.034 A 
ATOM     31  C30 R36 d          29.448  38.349  14.045  0.00  0.00     0.046 A 
ATOM     32  C29 R36 d          28.754  39.226  14.924  0.00  0.00     0.026 A 
ATOM     33  C28 R36 d          29.072  39.252  16.291  0.00  0.00     0.029 A 
ATOM     34  C27 R36 d          30.050  38.433  16.778  0.00  0.00     0.003 A 
ATOM     35  C26 R36 d          30.747  37.555  15.906  0.00  0.00     0.017 A 
BRANCH  32  36
ATOM     36  N1  R36 d          27.752  40.168  14.410  0.00  0.00    -0.399 N 
ATOM     37  H13 R36 d          27.506  40.163  13.410  0.00  0.00     0.156 HD
ATOM     38  H14 R36 d          27.295  40.834  15.050  0.00  0.00     0.156 HD
ENDBRANCH  32  36
ENDBRANCH  27  30
ENDBRANCH  25  26
BRANCH  25  39
ATOM     39  C5  R36 d          34.119  35.076  13.425  0.00  0.00     0.029 C 
BRANCH  39  40
ATOM     40  C6  R36 d          35.079  35.425  14.575  0.00  0.00    -0.021 C 
ATOM     41  C7  R36 d          35.663  34.219  15.262  0.00  0.00     0.009 C 
ATOM     42  C11 R36 d          36.208  36.207  13.982  0.00  0.00     0.009 C 
ENDBRANCH  39  40
ENDBRANCH  25  39
ENDBRANCH  24  25
ENDBRANCH   1  24
BRANCH   1  43
ATOM     43  O14 R36 d          31.704  31.264  14.795  0.00  0.00    -0.393 OA
ATOM     44  H20 R36 d          30.929  30.720  14.870  0.00  0.00     0.210 HD
ENDBRANCH   1  43
TORSDOF 15
