REMARK  9 active torsions:
REMARK  status: ('A' for Active; 'I' for Inactive)
REMARK    1  A    between atoms: N2_7  and  C8_8 
REMARK    2  A    between atoms: C18_14  and  N15_15 
REMARK       I    between atoms: N15_15  and  C12_16 
REMARK    3  A    between atoms: C12_16  and  C16_18 
REMARK    4  A    between atoms: C16_18  and  N1_19 
REMARK    5  A    between atoms: C5_20  and  C10_21 
REMARK       I    between atoms: C10_21  and  N23_22 
REMARK    6  A    between atoms: N23_22  and  C37_36 
REMARK    7  A    between atoms: C17_25  and  N13_27 
REMARK       I    between atoms: N13_27  and  C6_28 
REMARK    8  A    between atoms: C6_28  and  C3_30 
REMARK    9  A    between atoms: C37_36  and  C25_37 
ROOT
ATOM      1  N1  LZI d          15.100   4.453  25.231  0.00  0.00    -0.369 N 
ATOM      2  C5  LZI d          15.534   3.496  24.187  0.00  0.00     0.178 C 
ATOM      3  C21 LZI d          14.063   4.036  25.914  0.00  0.00     0.085 C 
ATOM      4  C17 LZI d          13.653   2.662  25.453  0.00  0.00     0.125 C 
ATOM      5  C20 LZI d          14.767   2.268  24.541  0.00  0.00     0.065 C 
ENDROOT
BRANCH   1   6
ATOM      6  C16 LZI d          15.347   5.896  25.049  0.00  0.00     0.225 C 
BRANCH   6   7
ATOM      7  C12 LZI d          15.694   6.655  26.291  0.00  0.00     0.240 C 
ATOM      8  N15 LZI d          16.198   6.012  27.454  0.00  0.00    -0.323 N 
ATOM      9  H8  LZI d          16.395   5.032  27.460  0.00  0.00     0.169 HD
ATOM     10  O33 LZI d          15.546   7.882  26.320  0.00  0.00    -0.271 OA
BRANCH   8  11
ATOM     11  C18 LZI d          16.413   6.823  28.620  0.00  0.00     0.073 A 
ATOM     12  C19 LZI d          17.613   6.746  29.324  0.00  0.00     0.145 A 
ATOM     13  C11 LZI d          17.851   7.508  30.443  0.00  0.00     0.074 A 
ATOM     14  F39 LZI d          18.584   5.873  28.933  0.00  0.00    -0.204 F 
ATOM     15  C8  LZI d          16.849   8.383  30.844  0.00  0.00     0.045 A 
ATOM     16  C31 LZI d          15.645   8.505  30.156  0.00  0.00     0.032 A 
ATOM     17  C34 LZI d          15.409   7.701  29.031  0.00  0.00     0.035 A 
BRANCH  15  18
ATOM     18  N2  LZI d          17.138   9.202  32.009  0.00  0.00    -0.290 N 
ATOM     19  C7  LZI d          17.541  10.557  31.819  0.00  0.00     0.252 A 
ATOM     20  O30 LZI d          17.614  10.980  30.635  0.00  0.00    -0.268 OA
ATOM     21  C28 LZI d          17.839  11.332  32.991  0.00  0.00     0.075 A 
ATOM     22  C36 LZI d          17.747  10.789  34.238  0.00  0.00     0.007 A 
ATOM     23  C35 LZI d          17.327   9.434  34.402  0.00  0.00     0.018 A 
ATOM     24  C24 LZI d          17.058   8.669  33.314  0.00  0.00     0.100 A 
ENDBRANCH  15  18
ENDBRANCH   8  11
ENDBRANCH   6   7
ENDBRANCH   1   6
BRANCH   2  25
ATOM     25  C10 LZI d          15.020   3.940  22.861  0.00  0.00     0.240 C 
ATOM     26  N23 LZI d          15.825   3.722  21.765  0.00  0.00    -0.359 N 
ATOM     27  H12 LZI d          16.731   3.332  21.926  0.00  0.00     0.162 HD
ATOM     28  O32 LZI d          13.919   4.502  22.768  0.00  0.00    -0.271 OA
BRANCH  26  29
ATOM     29  C37 LZI d          15.456   4.016  20.400  0.00  0.00     0.127 C 
BRANCH  29  30
ATOM     30  C25 LZI d          16.663   3.933  19.458  0.00  0.00     0.003 A 
ATOM     31  C27 LZI d          16.500   3.196  18.158  0.00  0.00     0.007 A 
ATOM     32  C26 LZI d          17.335   2.603  19.256  0.00  0.00     0.007 A 
ENDBRANCH  29  30
ENDBRANCH  26  29
ENDBRANCH   2  25
BRANCH   4  33
ATOM     33  N13 LZI d          13.574   1.710  26.552  0.00  0.00    -0.347 N 
ATOM     34  C6  LZI d          12.570   1.885  27.453  0.00  0.00     0.259 C 
ATOM     35  O29 LZI d          11.790   2.833  27.302  0.00  0.00    -0.267 OA
ATOM     36  H17 LZI d          14.229   0.960  26.641  0.00  0.00     0.163 HD
BRANCH  34  37
ATOM     37  C3  LZI d          12.482   0.951  28.534  0.00  0.00     0.074 A 
ATOM     38  C14 LZI d          13.273  -0.131  28.778  0.00  0.00     0.027 A 
ATOM     39  C22 LZI d          12.867  -0.809  29.940  0.00  0.00     0.033 A 
ATOM     40  C9  LZI d          11.811  -0.149  30.514  0.00  0.00     0.075 A 
ATOM     41  S4  LZI d          11.228   1.220  29.686  0.00  0.00    -0.072 SA
ATOM     42 CL3  LZI d          11.035  -0.507  32.018  0.00  0.00    -0.076 Cl
ENDBRANCH  34  37
ENDBRANCH   4  33
TORSDOF 9
