REMARK  5 active torsions:
REMARK  status: ('A' for Active; 'I' for Inactive)
REMARK    1  A    between atoms: C1_1  and  C7_7 
REMARK    2  A    between atoms: C7_7  and  N1_8 
REMARK    3  A    between atoms: C8_12  and  C1'_13 
REMARK    4  A    between atoms: C5'_17  and  C20_20 
REMARK    5  A    between atoms: C6'_18  and  O6'_19 
ROOT
ATOM      1  C1  MOL d          16.236  -6.759  25.199  0.00  0.00     0.030 A 
ATOM      2  C2  MOL d          14.955  -6.096  24.982  0.00  0.00     0.050 A 
ATOM      3  C3  MOL d          14.553  -5.059  25.843  0.00  0.00     0.055 A 
ATOM      4  C4  MOL d          15.429  -4.747  26.872  0.00  0.00     0.044 A 
ATOM      5  C5  MOL d          16.601  -5.350  27.087  0.00  0.00    -0.006 A 
ATOM      6  C6  MOL d          17.017  -6.337  26.269  0.00  0.00     0.030 A 
ATOM      7  N3  MOL d          15.313  -3.860  27.841  0.00  0.00    -0.355 N 
ATOM      8  C9  MOL d          17.170  -4.825  28.165  0.00  0.00     0.044 A 
ATOM      9  C8  MOL d          16.355  -3.852  28.681  0.00  0.00     0.046 A 
ATOM     10 CL2  MOL d          13.747  -6.560  23.739  0.00  0.00    -0.083 Cl
ATOM     11  H7  MOL d          14.501  -3.235  27.942  0.00  0.00     0.166 HD
ENDROOT
BRANCH   9  12
ATOM     12  C1' MOL d          16.466  -3.032  29.830  0.00  0.00     0.025 A 
ATOM     13  C2' MOL d          17.522  -3.274  30.730  0.00  0.00     0.016 A 
ATOM     14  C3' MOL d          17.686  -2.552  31.882  0.00  0.00     0.002 A 
ATOM     15  C4' MOL d          16.785  -1.542  32.178  0.00  0.00     0.015 A 
ATOM     16  C5' MOL d          15.702  -1.225  31.335  0.00  0.00     0.008 A 
ATOM     17  C6' MOL d          15.569  -2.000  30.164  0.00  0.00     0.089 A 
BRANCH  16  18
ATOM     18  C20 MOL d          14.847  -0.154  31.690  0.00  0.00    -0.023 A 
ATOM     19  C21 MOL d          14.299  -0.039  32.976  0.00  0.00     0.012 A 
ATOM     20  C22 MOL d          13.476   1.043  33.357  0.00  0.00     0.001 A 
ATOM     21  C23 MOL d          13.195   2.028  32.451  0.00  0.00     0.000 A 
ATOM     22  C24 MOL d          13.723   1.937  31.170  0.00  0.00     0.001 A 
ATOM     23  C25 MOL d          14.531   0.872  30.797  0.00  0.00     0.012 A 
ENDBRANCH  16  18
BRANCH  17  24
ATOM     24  O6' MOL d          14.514  -1.784  29.303  0.00  0.00    -0.359 OA
ATOM     25  H12 MOL d          14.575  -2.387  28.571  0.00  0.00     0.217 HD
ENDBRANCH  17  24
ENDBRANCH   9  12
BRANCH   1  26
ATOM     26  C7  MOL d          16.752  -7.796  24.431  0.00  0.00     0.104 C 
ATOM     27  N2  MOL d          15.963  -8.422  23.637  0.00  0.00    -0.385 N 
ATOM     28  H5  MOL d          14.970  -8.154  23.580  0.00  0.00     0.157 HD
ATOM     29  H6  MOL d          16.322  -9.193  23.056  0.00  0.00     0.157 HD
BRANCH  26  30
ATOM     30  N1  MOL d          17.997  -8.141  24.495  0.00  0.00    -0.385 N 
ATOM     31  H3  MOL d          18.348  -8.914  23.912  0.00  0.00     0.157 HD
ATOM     32  H4  MOL d          18.638  -7.642  25.129  0.00  0.00     0.157 HD
ENDBRANCH  26  30
ENDBRANCH   1  26
TORSDOF 5
