REMARK  12 active torsions:
REMARK  status: ('A' for Active; 'I' for Inactive)
REMARK    1  A    between atoms: N_1  and  CA_2 
REMARK    2  A    between atoms: CA_20  and  CB_23 
REMARK    3  A    between atoms: CB_23  and  CG_24 
REMARK    4  A    between atoms: CZ_29  and  OH_30 
REMARK    5  A    between atoms: CA_32  and  CB_35 
REMARK    6  A    between atoms: CB_35  and  OG_36 
REMARK    7  A    between atoms: CA_43  and  CB_46 
REMARK    8  A    between atoms: CB_46  and  CG_47 
REMARK    9  A    between atoms: CZ_52  and  OH_53 
REMARK   10  A    between atoms: CA_55  and  CB_58 
REMARK   11  A    between atoms: CB_58  and  CG1_59 
REMARK   12  A    between atoms: CA_67  and  C_68 
ROOT
ATOM      1  CA  CYS d           8.772 -26.086 -27.402  0.00  0.00     0.284 C 
ATOM      2  C   CYS d           9.149 -27.401 -28.082  0.00  0.00     0.252 C 
ATOM      3  O   CYS d           9.342 -27.431 -29.299  0.00  0.00    -0.271 OA
ATOM      4  CB  CYS d           7.458 -25.568 -27.983  0.00  0.00     0.129 C 
ATOM      5  SG  CYS d           6.574 -24.430 -26.891  0.00  0.00    -0.095 SA
ATOM      6  N   CYS d           9.252 -28.496 -27.301  0.00  0.00    -0.337 N 
ATOM      7  CA  CYS d           9.491 -29.800 -27.920  0.00  0.00     0.179 C 
ATOM      8  C   CYS d           8.384 -30.165 -28.898  0.00  0.00     0.241 C 
ATOM      9  O   CYS d           7.224 -29.818 -28.673  0.00  0.00    -0.271 OA
ATOM     10  CB  CYS d           9.507 -30.767 -26.731  0.00  0.00     0.037 C 
ATOM     11  CG  CYS d           9.872 -29.924 -25.566  0.00  0.00     0.022 C 
ATOM     12  CD  CYS d           9.286 -28.571 -25.830  0.00  0.00     0.127 C 
ATOM     13  N   CYS d           8.742 -30.851 -29.979  0.00  0.00    -0.346 N 
ATOM     14  CA  CYS d           7.783 -31.159 -31.036  0.00  0.00     0.172 C 
ATOM     15  C   CYS d           6.575 -31.955 -30.522  0.00  0.00     0.240 C 
ATOM     16  O   CYS d           5.494 -31.871 -31.100  0.00  0.00    -0.271 OA
ATOM     17  CB  CYS d           8.468 -31.896 -32.180  0.00  0.00     0.042 C 
ATOM     18  N   CYS d           6.764 -32.712 -29.440  0.00  0.00    -0.346 N 
ATOM     19  CA  CYS d           5.698 -33.532 -28.859  0.00  0.00     0.180 C 
ATOM     20  C   CYS d           5.189 -32.972 -27.527  0.00  0.00     0.241 C 
ATOM     21  O   CYS d           4.659 -33.700 -26.677  0.00  0.00    -0.271 OA
ATOM     22  N   CYS d           5.326 -31.660 -27.363  0.00  0.00    -0.344 N 
ATOM     23  CA  CYS d           4.674 -30.978 -26.271  0.00  0.00     0.200 C 
ATOM     24  C   CYS d           3.168 -31.223 -26.380  0.00  0.00     0.243 C 
ATOM     25  O   CYS d           2.566 -31.118 -27.445  0.00  0.00    -0.271 OA
ATOM     26  N   CYS d           2.629 -31.326 -25.270  0.00  0.00    -0.346 N 
ATOM     27  CA  CYS d           1.242 -31.244 -24.825  0.00  0.00     0.172 C 
ATOM     28  C   CYS d           1.009 -29.943 -24.091  0.00  0.00     0.240 C 
ATOM     29  O   CYS d          -0.062 -29.742 -23.607  0.00  0.00    -0.271 OA
ATOM     30  CB  CYS d           0.815 -32.386 -23.918  0.00  0.00     0.042 C 
ATOM     31  N   CYS d           1.840 -28.748 -23.811  0.00  0.00    -0.346 N 
ATOM     32  CA  CYS d           1.544 -27.465 -23.182  0.00  0.00     0.180 C 
ATOM     33  C   CYS d           0.615 -26.637 -24.063  0.00  0.00     0.241 C 
ATOM     34  O   CYS d           0.830 -26.522 -25.286  0.00  0.00    -0.271 OA
ATOM     35  N   CYS d          -0.424 -26.077 -23.438  0.00  0.00    -0.346 N 
ATOM     36  CA  CYS d          -1.322 -25.100 -24.087  0.00  0.00     0.180 C 
ATOM     37  C   CYS d          -0.514 -24.040 -24.843  0.00  0.00     0.241 C 
ATOM     38  O   CYS d          -0.862 -23.655 -25.964  0.00  0.00    -0.271 OA
ATOM     39  N   CYS d           0.567 -23.577 -24.222  0.00  0.00    -0.351 N 
ATOM     40  CA  CYS d           1.378 -22.504 -24.782  0.00  0.00     0.225 C 
ATOM     41  C   CYS d           2.332 -22.870 -25.908  0.00  0.00     0.236 C 
ATOM     42  O   CYS d           3.136 -22.030 -26.302  0.00  0.00    -0.272 OA
ATOM     43  N   CYS d           2.275 -24.109 -26.410  0.00  0.00    -0.344 N 
ATOM     44  CA  CYS d           3.144 -24.548 -27.508  0.00  0.00     0.195 C 
ATOM     45  CB  CYS d           3.880 -25.843 -27.141  0.00  0.00     0.122 C 
ATOM     46  SG  CYS d           5.228 -25.637 -25.953  0.00  0.00    -0.095 SA
ATOM     47  H14 CYS d           9.688 -31.163 -30.070  0.00  0.00     0.163 HD
ATOM     48  H19 CYS d           7.667 -32.720 -29.010  0.00  0.00     0.163 HD
ATOM     49  H28 CYS d           5.888 -31.139 -28.005  0.00  0.00     0.163 HD
ATOM     50  H33 CYS d           3.276 -31.501 -24.528  0.00  0.00     0.163 HD
ATOM     51  H38 CYS d           2.789 -28.839 -24.112  0.00  0.00     0.163 HD
ATOM     52  H47 CYS d          -0.602 -26.331 -22.487  0.00  0.00     0.163 HD
ATOM     53  H58 CYS d           0.831 -23.977 -23.345  0.00  0.00     0.163 HD
ATOM     54  H61 CYS d           1.619 -24.757 -26.024  0.00  0.00     0.163 HD
ENDROOT
BRANCH  19  55
ATOM     55  CB  CYS d           6.181 -34.982 -28.734  0.00  0.00     0.073 C 
BRANCH  55  56
ATOM     56  CG  CYS d           6.712 -35.550 -30.047  0.00  0.00    -0.056 A 
ATOM     57  CD1 CYS d           6.297 -35.034 -31.285  0.00  0.00     0.010 A 
ATOM     58  CE1 CYS d           6.778 -35.539 -32.480  0.00  0.00     0.037 A 
ATOM     59  CZ  CYS d           7.671 -36.582 -32.464  0.00  0.00     0.065 A 
ATOM     60  CE2 CYS d           8.084 -37.131 -31.263  0.00  0.00     0.037 A 
ATOM     61  CD2 CYS d           7.612 -36.612 -30.061  0.00  0.00     0.010 A 
BRANCH  59  62
ATOM     62  OH  CYS d           8.136 -37.075 -33.661  0.00  0.00    -0.361 OA
ATOM     63  H27 CYS d           7.751 -36.583 -34.376  0.00  0.00     0.217 HD
ENDBRANCH  59  62
ENDBRANCH  55  56
ENDBRANCH  19  55
BRANCH  23  64
ATOM     64  CB  CYS d           4.961 -29.481 -26.307  0.00  0.00     0.199 C 
BRANCH  64  65
ATOM     65  OG  CYS d           4.395 -28.820 -25.185  0.00  0.00    -0.398 OA
ATOM     66  H32 CYS d           4.764 -29.180 -24.387  0.00  0.00     0.209 HD
ENDBRANCH  64  65
ENDBRANCH  23  64
BRANCH   1  67
ATOM     67  N   CYS d           9.851 -25.065 -27.574  0.00  0.00    -0.066 N 
ATOM     68  H1  CYS d           9.579 -24.209 -27.117  0.00  0.00     0.275 HD
ATOM     69  H2  CYS d           9.995 -24.891 -28.556  0.00  0.00     0.275 HD
ATOM     70  H3  CYS d          10.706 -25.407 -27.164  0.00  0.00     0.275 HD
ENDBRANCH   1  67
BRANCH  32  71
ATOM     71  CB  CYS d           2.865 -26.756 -22.936  0.00  0.00     0.073 C 
BRANCH  71  72
ATOM     72  CG  CYS d           2.765 -25.477 -22.169  0.00  0.00    -0.056 A 
ATOM     73  CD1 CYS d           1.883 -25.339 -21.095  0.00  0.00     0.010 A 
ATOM     74  CE1 CYS d           1.811 -24.157 -20.388  0.00  0.00     0.037 A 
ATOM     75  CZ  CYS d           2.629 -23.103 -20.745  0.00  0.00     0.065 A 
ATOM     76  CE2 CYS d           3.515 -23.225 -21.790  0.00  0.00     0.037 A 
ATOM     77  CD2 CYS d           3.581 -24.405 -22.489  0.00  0.00     0.010 A 
BRANCH  75  78
ATOM     78  OH  CYS d           2.581 -21.917 -20.058  0.00  0.00    -0.361 OA
ATOM     79  H46 CYS d           3.432 -21.739 -19.675  0.00  0.00     0.217 HD
ENDBRANCH  75  78
ENDBRANCH  71  72
ENDBRANCH  32  71
BRANCH  36  80
ATOM     80  CB  CYS d          -2.201 -24.333 -23.059  0.00  0.00     0.013 C 
ATOM     81  CG2 CYS d          -3.095 -23.301 -23.749  0.00  0.00     0.012 C 
BRANCH  80  82
ATOM     82  CG1 CYS d          -3.077 -25.270 -22.235  0.00  0.00     0.002 C 
ATOM     83  CD1 CYS d          -4.150 -25.959 -23.026  0.00  0.00     0.005 C 
ENDBRANCH  80  82
ENDBRANCH  36  80
BRANCH  44  84
ATOM     84  C   CYS d           2.361 -24.745 -28.804  0.00  0.00     0.197 C 
ATOM     85  O   CYS d           1.208 -25.174 -28.780  0.00  0.00    -0.646 OA
ATOM     86  OXT CYS d           2.872 -24.478 -29.891  0.00  0.00    -0.646 OA
ENDBRANCH  44  84
TORSDOF 12
