REMARK  3 active torsions:
REMARK  status: ('A' for Active; 'I' for Inactive)
REMARK    1  A    between atoms: N1_1  and  C19_21 
REMARK    2  A    between atoms: C19_21  and  C20_11 
REMARK    3  A    between atoms: C14_17  and  C24_14 
REMARK       I    between atoms: C24_14  and  N2_18 
ROOT
ATOM      1  N1  MOL d           2.744  -8.803 -25.615  0.00  0.00    -0.372 N 
ATOM      2  C4  MOL d           6.416 -11.583 -24.317  0.00  0.00     0.041 A 
ATOM      3  fur MOL d           7.547 -12.536 -24.470  0.00  0.00     0.162 C 
ATOM      4  C6  MOL d           7.259 -13.972 -24.852  0.00  0.00     0.093 C 
ATOM      5  C7  MOL d           6.009 -14.201 -25.717  0.00  0.00    -0.036 C 
ATOM      6  C8  MOL d           4.831 -13.446 -25.092  0.00  0.00     0.067 C 
ATOM      7  C10 MOL d           5.682 -15.690 -25.769  0.00  0.00     0.015 C 
ATOM      8  C13 MOL d           0.756 -12.250 -24.176  0.00  0.00     0.052 A 
ATOM      9  C15 MOL d           0.717 -10.121 -25.271  0.00  0.00     0.050 A 
ATOM     10  C17 MOL d           3.601  -7.919 -24.817  0.00  0.00     0.129 C 
ATOM     11 CL   MOL d           0.015 -13.718 -23.643  0.00  0.00    -0.083 Cl
ATOM     12  C12 MOL d           2.119 -12.144 -23.993  0.00  0.00     0.057 A 
ATOM     13  C14 MOL d           0.025 -11.246 -24.816  0.00  0.00     0.055 A 
ATOM     14  C16 MOL d           2.100 -10.000 -25.115  0.00  0.00     0.059 A 
ATOM     15  C18 MOL d           4.309  -8.588 -23.645  0.00  0.00     0.078 C 
ATOM     16  C2  MOL d           4.930  -9.913 -23.977  0.00  0.00     0.025 A 
ATOM     17  C11 MOL d           2.819 -11.045 -24.492  0.00  0.00     0.067 A 
ATOM     18  N   MOL d           4.253 -11.041 -24.383  0.00  0.00    -0.315 N 
ATOM     19  C3  MOL d           5.155 -12.066 -24.600  0.00  0.00     0.032 A 
ATOM     20  C9  MOL d           6.256 -13.708 -27.147  0.00  0.00     0.015 C 
ATOM     21  O   MOL d           8.711 -12.184 -24.330  0.00  0.00    -0.292 OA
ATOM     22  C1  MOL d           6.272 -10.195 -23.921  0.00  0.00    -0.023 A 
ATOM     23  C   MOL d           7.415  -9.293 -23.547  0.00  0.00     0.051 C 
ENDROOT
BRANCH   1  24
ATOM     24  C19 MOL d           2.390  -8.408 -26.970  0.00  0.00     0.188 C 
BRANCH  24  25
ATOM     25  C20 MOL d           3.067  -7.442 -27.867  0.00  0.00     0.070 A 
ATOM     26  C21 MOL d           3.461  -6.169 -27.732  0.00  0.00     0.036 A 
ATOM     27  C22 MOL d           3.987  -5.778 -28.961  0.00  0.00     0.027 A 
ATOM     28  C23 MOL d           3.883  -6.824 -29.765  0.00  0.00     0.142 A 
ATOM     29  O1  MOL d           3.327  -7.873 -29.124  0.00  0.00    -0.325 OA
ENDBRANCH  24  25
ENDBRANCH   1  24
BRANCH  13  30
ATOM     30  C24 MOL d          -1.451 -11.295 -25.069  0.00  0.00     0.251 C 
ATOM     31  N2  MOL d          -2.233 -11.792 -24.123  0.00  0.00    -0.366 N 
ATOM     32  H14 MOL d          -3.222 -11.837 -24.264  0.00  0.00     0.159 HD
ATOM     33  H15 MOL d          -1.835 -12.122 -23.267  0.00  0.00     0.159 HD
ATOM     34  O2  MOL d          -1.898 -10.868 -26.144  0.00  0.00    -0.268 OA
ENDBRANCH  13  30
TORSDOF 3
