REMARK  9 active torsions:
REMARK  status: ('A' for Active; 'I' for Inactive)
REMARK    1  A    between atoms: PB_1  and  O3A_5 
REMARK    2  A    between atoms: O3A_5  and  PA_6 
REMARK    3  A    between atoms: PA_6  and  O5_9 
REMARK    4  A    between atoms: O5_9  and  C5_10 
REMARK    5  A    between atoms: C5_10  and  C4_11 
REMARK    6  A    between atoms: C3_13  and  O3_14 
REMARK    7  A    between atoms: C2_15  and  O2_16 
REMARK    8  A    between atoms: C1_17  and  N9_18 
REMARK    9  A    between atoms: C2_25  and  N2_26 
ROOT
ATOM      1  C4  GDP d          36.001  26.354 -18.391  0.00  0.00     0.180 C 
ATOM      2  O4  GDP d          34.846  26.425 -17.492  0.00  0.00    -0.353 OA
ATOM      3  C3  GDP d          35.563  25.244 -19.354  0.00  0.00     0.182 C 
ATOM      4  C2  GDP d          34.086  25.051 -19.228  0.00  0.00     0.198 C 
ATOM      5  C1  GDP d          33.887  25.317 -17.685  0.00  0.00     0.262 C 
ENDROOT
BRANCH   5   6
ATOM      6  N9  GDP d          32.485  25.779 -17.358  0.00  0.00    -0.293 N 
ATOM      7  C8  GDP d          31.745  26.844 -17.809  0.00  0.00     0.214 A 
ATOM      8  N7  GDP d          30.516  26.887 -17.413  0.00  0.00    -0.234 NA
ATOM      9  C5  GDP d          30.476  25.744 -16.633  0.00  0.00     0.173 A 
ATOM     10  C6  GDP d          29.418  25.220 -15.895  0.00  0.00     0.292 A 
ATOM     11  C4  GDP d          31.665  25.107 -16.599  0.00  0.00     0.186 A 
ATOM     12  O6  GDP d          28.243  25.591 -15.834  0.00  0.00    -0.265 OA
ATOM     13  N1  GDP d          29.805  24.125 -15.231  0.00  0.00    -0.152 N 
ATOM     14  C2  GDP d          31.030  23.581 -15.249  0.00  0.00     0.703 A 
ATOM     15  H10 GDP d          29.115  23.669 -14.668  0.00  0.00     0.187 HD
ATOM     16  N3  GDP d          32.030  24.036 -15.943  0.00  0.00    -0.044 NA
BRANCH  14  17
ATOM     17  N2  GDP d          31.211  22.537 -14.446  0.00  0.00    -0.233 N 
ATOM     18  H11 GDP d          32.128  22.069 -14.409  0.00  0.00     0.174 HD
ATOM     19  H12 GDP d          30.434  22.196 -13.861  0.00  0.00     0.174 HD
ENDBRANCH  14  17
ENDBRANCH   5   6
BRANCH   4  20
ATOM     20  O2  GDP d          33.903  23.698 -19.755  0.00  0.00    -0.388 OA
ATOM     21  H7  GDP d          34.403  23.084 -19.230  0.00  0.00     0.210 HD
ENDBRANCH   4  20
BRANCH   1  22
ATOM     22  C5  GDP d          36.223  27.748 -19.020  0.00  0.00     0.216 C 
BRANCH  22  23
ATOM     23  O5  GDP d          35.024  28.433 -19.346  0.00  0.00    -0.287 OA
BRANCH  23  24
ATOM     24  PA  GDP d          34.825  29.000 -20.748  0.00  0.00     0.418 P 
ATOM     25  O1A GDP d          35.109  27.855 -21.628  0.00  0.00    -0.624 OA
ATOM     26  O2A GDP d          33.341  29.468 -21.130  0.00  0.00    -0.624 OA
BRANCH  24  27
ATOM     27  O3A GDP d          35.700  30.210 -21.135  0.00  0.00    -0.173 OA
BRANCH  27  28
ATOM     28  PB  GDP d          35.741  31.495 -20.332  0.00  0.00     0.431 P 
ATOM     29  O1B GDP d          35.356  30.941 -19.081  0.00  0.00    -0.616 OA
ATOM     30  O2B GDP d          34.909  32.860 -20.224  0.00  0.00    -0.616 OA
ATOM     31  O3B GDP d          37.268  32.121 -20.226  0.00  0.00    -0.616 OA
ENDBRANCH  27  28
ENDBRANCH  24  27
ENDBRANCH  23  24
ENDBRANCH  22  23
ENDBRANCH   1  22
BRANCH   3  32
ATOM     32  O3  GDP d          36.129  24.006 -18.952  0.00  0.00    -0.390 OA
ATOM     33  H5  GDP d          35.854  23.323 -19.553  0.00  0.00     0.210 HD
ENDBRANCH   3  32
TORSDOF 9
