REMARK  5 active torsions:
REMARK  status: ('A' for Active; 'I' for Inactive)
REMARK    1  A    between atoms: N_1  and  CA_2 
REMARK    2  A    between atoms: CA_2  and  CB_3 
REMARK    3  A    between atoms: CA_2  and  P_9 
REMARK    4  A    between atoms: CB_3  and  CG_4 
REMARK    5  A    between atoms: CG_4  and  SD_5 
ROOT
ATOM      1  CA  MPJ d          14.303  10.373  19.851  0.00  0.00     0.312 C 
ENDROOT
BRANCH   1   2
ATOM      2  N   MPJ d          14.663   8.988  19.445  0.00  0.00    -0.062 N 
ATOM      3  H1  MPJ d          14.069   8.695  18.686  0.00  0.00     0.275 HD
ATOM      4  H2  MPJ d          14.539   8.365  20.228  0.00  0.00     0.275 HD
ATOM      5  H3  MPJ d          15.626   8.965  19.146  0.00  0.00     0.275 HD
ENDBRANCH   1   2
BRANCH   1   6
ATOM      6  CB  MPJ d          12.820  10.535  20.223  0.00  0.00     0.057 C 
BRANCH   6   7
ATOM      7  CG  MPJ d          11.865  10.049  19.158  0.00  0.00     0.076 C 
BRANCH   7   8
ATOM      8  SD  MPJ d          10.191  10.311  19.774  0.00  0.00    -0.173 SA
ATOM      9  CE  MPJ d           9.226   9.998  18.265  0.00  0.00     0.089 C 
ENDBRANCH   7   8
ENDBRANCH   6   7
ENDBRANCH   1   6
BRANCH   1  10
ATOM     10  P   MPJ d          15.300  10.998  21.199  0.00  0.00     0.290 P 
ATOM     11  O1  MPJ d          15.136   9.807  22.435  0.00  0.00    -0.638 OA
ATOM     12  O2  MPJ d          14.887  12.566  21.447  0.00  0.00    -0.638 OA
ATOM     13  O3  MPJ d          16.735  11.007  20.799  0.00  0.00    -0.638 OA
ENDBRANCH   1  10
TORSDOF 5
