REMARK  7 active torsions:
REMARK  status: ('A' for Active; 'I' for Inactive)
REMARK    1  A    between atoms: NH_2  and  CAH_3 
REMARK    2  A    between atoms: CAG_4  and  OAC_5 
REMARK    3  A    between atoms: CAK_12  and  CAE_13 
REMARK    4  A    between atoms: CAK_12  and  CB_16 
REMARK    5  A    between atoms: CB_16  and  CA_17 
REMARK    6  A    between atoms: CA_17  and  C_18 
REMARK    7  A    between atoms: CA_17  and  N_21 
ROOT
ATOM      1  CAH DYH d         -14.960  55.247  50.837  0.00  0.00     0.247 C 
ATOM      2  CAG DYH d         -15.740  53.976  50.536  0.00  0.00     0.175 C 
ATOM      3  CAP DYH d         -17.053  53.974  51.299  0.00  0.00     0.202 C 
ATOM      4  OAQ DYH d         -17.854  55.061  50.887  0.00  0.00    -0.381 OA
ATOM      5  CAR DYH d         -17.275  56.324  51.277  0.00  0.00     0.156 C 
ATOM      6  CAS DYH d         -18.006  57.409  50.520  0.00  0.00     0.084 C 
ATOM      7  CAI DYH d         -15.858  56.488  50.749  0.00  0.00     0.185 C 
ATOM      8  OAJ DYH d         -16.014  56.806  49.347  0.00  0.00    -0.359 OA
ATOM      9  CAK DYH d         -17.283  57.432  49.160  0.00  0.00     0.154 C 
ENDROOT
BRANCH   9  10
ATOM     10  CAE DYH d         -18.112  56.659  48.135  0.00  0.00     0.209 C 
ATOM     11  OAB DYH d         -17.743  55.505  47.819  0.00  0.00    -0.646 OA
ATOM     12  OAF DYH d         -19.106  57.242  47.690  0.00  0.00    -0.646 OA
ENDBRANCH   9  10
BRANCH   9  13
ATOM     13  CB  DYH d         -17.088  58.891  48.743  0.00  0.00     0.093 C 
BRANCH  13  14
ATOM     14  CA  DYH d         -16.456  59.099  47.352  0.00  0.00     0.286 C 
BRANCH  14  15
ATOM     15  C   DYH d         -16.742  60.524  46.910  0.00  0.00     0.204 C 
ATOM     16  OXT DYH d         -17.936  60.893  46.984  0.00  0.00    -0.646 OA
ATOM     17  O   DYH d         -15.781  61.234  46.531  0.00  0.00    -0.646 OA
ENDBRANCH  14  15
BRANCH  14  18
ATOM     18  N   DYH d         -15.009  58.830  47.317  0.00  0.00    -0.065 N 
ATOM     19  H18 DYH d         -14.661  58.984  46.384  0.00  0.00     0.275 HD
ATOM     20  H19 DYH d         -14.838  57.873  47.585  0.00  0.00     0.275 HD
ATOM     21  H20 DYH d         -14.537  59.448  47.958  0.00  0.00     0.275 HD
ENDBRANCH  14  18
ENDBRANCH  13  14
ENDBRANCH   9  13
BRANCH   1  22
ATOM     22  NH  DYH d         -13.824  55.350  49.884  0.00  0.00    -0.070 N 
ATOM     23  CAA DYH d         -12.945  56.470  50.230  0.00  0.00     0.267 C 
ATOM     24  H4  DYH d         -13.293  54.494  49.911  0.00  0.00     0.277 HD
ATOM     25  H5  DYH d         -14.186  55.491  48.954  0.00  0.00     0.277 HD
ENDBRANCH   1  22
BRANCH   2  26
ATOM     26  OAC DYH d         -16.021  53.855  49.138  0.00  0.00    -0.391 OA
ATOM     27  H8  DYH d         -16.537  54.600  48.854  0.00  0.00     0.210 HD
ENDBRANCH   2  26
TORSDOF 7
