REMARK  23 active torsions:
REMARK  status: ('A' for Active; 'I' for Inactive)
REMARK    1  A    between atoms: C1_1  and  C2_4 
REMARK    2  A    between atoms: C3_6  and  C1_1 
REMARK    3  A    between atoms: C9_13  and  N1_2 
REMARK       I    between atoms: N1_2  and  C10_14 
REMARK       I    between atoms: C2_4  and  N_15 
REMARK       I    between atoms: C10_14  and  N2_5 
REMARK       I    between atoms: C10_14  and  N3_7 
REMARK    4  A    between atoms: C7_11  and  C9_13 
REMARK    5  A    between atoms: N_15  and  CA_16 
REMARK    6  A    between atoms: CA_16  and  C_17 
REMARK    7  A    between atoms: CA_16  and  CB_19 
REMARK       I    between atoms: C_17  and  N_26 
REMARK    8  A    between atoms: CB_19  and  CG_20 
REMARK    9  A    between atoms: CG_20  and  CD_21 
REMARK   10  A    between atoms: CD_21  and  NE_22 
REMARK       I    between atoms: NE_22  and  CZ_23 
REMARK       I    between atoms: CZ_23  and  NH1_24 
REMARK       I    between atoms: CZ_23  and  NH2_25 
REMARK   11  A    between atoms: N_26  and  CA_27 
REMARK   12  A    between atoms: CA_27  and  CB_28 
REMARK   13  A    between atoms: CA_27  and  C_32 
REMARK       I    between atoms: C_32  and  N_34 
REMARK   14  A    between atoms: N_34  and  CA_35 
REMARK   15  A    between atoms: CA_35  and  C_36 
REMARK   16  A    between atoms: CA_35  and  CB_38 
REMARK       I    between atoms: C_36  and  N23_45 
REMARK   17  A    between atoms: CB_38  and  CG_39 
REMARK   18  A    between atoms: CG_39  and  CD_40 
REMARK   19  A    between atoms: CD_40  and  NE_41 
REMARK       I    between atoms: NE_41  and  CZ_42 
REMARK       I    between atoms: CZ_42  and  NH1_43 
REMARK       I    between atoms: CZ_42  and  NH2_44 
REMARK   20  A    between atoms: N23_45  and  C16_46 
REMARK   21  A    between atoms: C16_46  and  C17_47 
REMARK   22  A    between atoms: C24_50  and  C27_51 
REMARK   23  A    between atoms: C27_51  and  N35_52 
ROOT
ATOM      1  CA  MOL d          27.275  30.622  -6.884  0.00  0.00     0.184 C 
ENDROOT
BRANCH   1   2
ATOM      2  N   MOL d          27.910  29.463  -6.695  0.00  0.00    -0.345 N 
ATOM      3  C   MOL d          29.238  29.347  -6.635  0.00  0.00     0.241 C 
ATOM      4  O   MOL d          30.003  30.304  -6.729  0.00  0.00    -0.271 OA
ATOM      5  H27 MOL d          27.359  28.635  -6.593  0.00  0.00     0.163 HD
BRANCH   3   6
ATOM      6  CA  MOL d          29.786  27.939  -6.437  0.00  0.00     0.176 C 
BRANCH   6   7
ATOM      7  N   MOL d          30.812  27.649  -7.428  0.00  0.00    -0.348 N 
ATOM      8  C2  MOL d          30.695  26.662  -8.310  0.00  0.00     0.222 C 
ATOM      9  O1  MOL d          29.747  25.885  -8.352  0.00  0.00    -0.273 OA
ATOM     10  H14 MOL d          31.637  28.214  -7.446  0.00  0.00     0.163 HD
BRANCH   8  11
ATOM     11  C1  MOL d          31.876  26.535  -9.217  0.00  0.00     0.141 C 
BRANCH  11  12
ATOM     12  C3  MOL d          32.986  25.723  -8.622  0.00  0.00    -0.049 A 
ATOM     13  C4  MOL d          32.909  24.320  -8.634  0.00  0.00     0.008 A 
ATOM     14  C6  MOL d          33.864  23.547  -7.940  0.00  0.00     0.009 A 
ATOM     15  C7  MOL d          34.916  24.176  -7.219  0.00  0.00    -0.040 A 
ATOM     16  C8  MOL d          34.994  25.578  -7.232  0.00  0.00     0.009 A 
ATOM     17  C5  MOL d          34.038  26.343  -7.925  0.00  0.00     0.008 A 
BRANCH  15  18
ATOM     18  C9  MOL d          35.904  23.363  -6.423  0.00  0.00     0.176 C 
BRANCH  18  19
ATOM     19  N1  MOL d          35.316  22.199  -5.746  0.00  0.00    -0.223 N 
ATOM     20  C10 MOL d          34.559  22.233  -4.647  0.00  0.00     0.665 C 
ATOM     21  N2  MOL d          34.251  23.393  -4.053  0.00  0.00    -0.235 N 
ATOM     22  N3  MOL d          34.095  21.089  -4.151  0.00  0.00    -0.235 N 
ATOM     23  H4  MOL d          33.666  23.398  -3.206  0.00  0.00     0.174 HD
ATOM     24  H5  MOL d          34.600  24.280  -4.444  0.00  0.00     0.174 HD
ATOM     25  H6  MOL d          34.331  20.196  -4.607  0.00  0.00     0.174 HD
ATOM     26  H7  MOL d          33.499  21.096  -3.311  0.00  0.00     0.174 HD
ATOM     27  H3  MOL d          35.505  21.273  -6.156  0.00  0.00     0.178 HD
ENDBRANCH  18  19
ENDBRANCH  15  18
ENDBRANCH  11  12
ENDBRANCH   8  11
ENDBRANCH   6   7
BRANCH   6  28
ATOM     28  CB  MOL d          30.402  27.743  -5.054  0.00  0.00     0.036 C 
BRANCH  28  29
ATOM     29  CG  MOL d          30.994  26.334  -4.862  0.00  0.00     0.023 C 
BRANCH  29  30
ATOM     30  CD  MOL d          29.885  25.291  -4.880  0.00  0.00     0.138 C 
BRANCH  30  31
ATOM     31  NE  MOL d          30.343  23.911  -4.719  0.00  0.00    -0.227 N 
ATOM     32  CZ  MOL d          30.436  23.035  -5.719  0.00  0.00     0.665 C 
ATOM     33  NH1 MOL d          30.847  21.790  -5.495  0.00  0.00    -0.235 N 
ATOM     34  NH2 MOL d          30.125  23.410  -6.956  0.00  0.00    -0.235 N 
ATOM     35  H23 MOL d          30.915  21.122  -6.276  0.00  0.00     0.174 HD
ATOM     36  H24 MOL d          31.097  21.494  -4.541  0.00  0.00     0.174 HD
ATOM     37  H25 MOL d          29.806  24.372  -7.138  0.00  0.00     0.174 HD
ATOM     38  H26 MOL d          30.203  22.738  -7.733  0.00  0.00     0.174 HD
ATOM     39  H22 MOL d          30.610  23.597  -3.775  0.00  0.00     0.177 HD
ENDBRANCH  30  31
ENDBRANCH  29  30
ENDBRANCH  28  29
ENDBRANCH   6  28
ENDBRANCH   3   6
ENDBRANCH   1   2
BRANCH   1  40
ATOM     40  CB  MOL d          26.509  30.574  -8.275  0.00  0.00    -0.022 C 
ATOM     41  CG1 MOL d          25.975  31.968  -8.654  0.00  0.00     0.017 C 
ATOM     42  CG2 MOL d          27.464  30.109  -9.374  0.00  0.00     0.017 C 
ATOM     43  CG3 MOL d          25.346  29.565  -8.224  0.00  0.00     0.017 C 
ENDBRANCH   1  40
BRANCH   1  44
ATOM     44  C   MOL d          26.301  31.037  -5.761  0.00  0.00     0.241 C 
ATOM     45  O   MOL d          25.688  30.210  -5.116  0.00  0.00    -0.271 OA
ATOM     46  N   MOL d          26.187  32.357  -5.578  0.00  0.00    -0.346 N 
ATOM     47  H38 MOL d          26.725  32.980  -6.146  0.00  0.00     0.163 HD
BRANCH  46  48
ATOM     48  CA  MOL d          25.284  32.907  -4.556  0.00  0.00     0.176 C 
BRANCH  48  49
ATOM     49  C   MOL d          23.889  32.538  -5.074  0.00  0.00     0.240 C 
ATOM     50  O   MOL d          23.587  32.733  -6.251  0.00  0.00    -0.271 OA
ATOM     51  N23 MOL d          23.049  32.008  -4.198  0.00  0.00    -0.355 N 
ATOM     52  H51 MOL d          23.354  31.886  -3.253  0.00  0.00     0.162 HD
BRANCH  51  53
ATOM     53  C16 MOL d          21.704  31.597  -4.554  0.00  0.00     0.161 C 
BRANCH  53  54
ATOM     54  C17 MOL d          21.686  30.105  -4.751  0.00  0.00    -0.040 A 
ATOM     55  C22 MOL d          21.469  29.250  -3.658  0.00  0.00     0.010 A 
ATOM     56  C21 MOL d          21.585  27.847  -3.795  0.00  0.00     0.016 A 
ATOM     57  C24 MOL d          21.913  27.268  -5.029  0.00  0.00     0.007 A 
ATOM     58  C19 MOL d          22.120  28.111  -6.138  0.00  0.00     0.016 A 
ATOM     59  C18 MOL d          22.005  29.535  -6.002  0.00  0.00     0.010 A 
BRANCH  57  60
ATOM     60  C27 MOL d          22.031  25.782  -5.161  0.00  0.00     0.102 C 
ATOM     61  N34 MOL d          22.707  25.216  -6.159  0.00  0.00    -0.385 N 
ATOM     62  H58 MOL d          23.159  25.804  -6.873  0.00  0.00     0.157 HD
ATOM     63  H59 MOL d          22.778  24.190  -6.216  0.00  0.00     0.157 HD
BRANCH  60  64
ATOM     64  N35 MOL d          21.441  25.041  -4.230  0.00  0.00    -0.385 N 
ATOM     65  H56 MOL d          21.495  24.014  -4.279  0.00  0.00     0.157 HD
ATOM     66  H57 MOL d          20.930  25.494  -3.459  0.00  0.00     0.157 HD
ENDBRANCH  60  64
ENDBRANCH  57  60
ENDBRANCH  53  54
ENDBRANCH  51  53
ENDBRANCH  48  49
BRANCH  48  67
ATOM     67  CB  MOL d          25.406  34.433  -4.460  0.00  0.00     0.036 C 
BRANCH  67  68
ATOM     68  CG  MOL d          26.708  34.941  -3.882  0.00  0.00     0.023 C 
BRANCH  68  69
ATOM     69  CD  MOL d          26.755  36.461  -3.976  0.00  0.00     0.138 C 
BRANCH  69  70
ATOM     70  NE  MOL d          27.995  37.030  -3.454  0.00  0.00    -0.227 N 
ATOM     71  CZ  MOL d          29.187  36.872  -4.021  0.00  0.00     0.665 C 
ATOM     72  NH1 MOL d          29.310  36.150  -5.131  0.00  0.00    -0.235 N 
ATOM     73  NH2 MOL d          30.253  37.467  -3.497  0.00  0.00    -0.235 N 
ATOM     74  H47 MOL d          30.235  36.030  -5.567  0.00  0.00     0.174 HD
ATOM     75  H48 MOL d          28.480  35.711  -5.554  0.00  0.00     0.174 HD
ATOM     76  H49 MOL d          30.160  38.027  -2.637  0.00  0.00     0.174 HD
ATOM     77  H50 MOL d          31.173  37.369  -3.950  0.00  0.00     0.174 HD
ATOM     78  H46 MOL d          27.942  37.590  -2.591  0.00  0.00     0.177 HD
ENDBRANCH  69  70
ENDBRANCH  68  69
ENDBRANCH  67  68
ENDBRANCH  48  67
ENDBRANCH  46  48
ENDBRANCH   1  44
TORSDOF 23
