REMARK  15 active torsions:
REMARK  status: ('A' for Active; 'I' for Inactive)
REMARK    1  A    between atoms: C1_1  and  O1_2 
REMARK    2  A    between atoms: C2_3  and  N2_4 
REMARK       I    between atoms: N2_4  and  C7_5 
REMARK    3  A    between atoms: C3_8  and  O3_9 
REMARK    4  A    between atoms: O3_9  and  C18_16 
REMARK    5  A    between atoms: C4_10  and  O4_11 
REMARK    6  A    between atoms: C5_12  and  C6_14 
REMARK    7  A    between atoms: C6_14  and  O6_15 
REMARK    8  A    between atoms: C18_16  and  C19_18 
REMARK       I    between atoms: C19_18  and  N4_20 
REMARK    9  A    between atoms: N4_20  and  C21_21 
REMARK   10  A    between atoms: C21_21  and  C22_23 
REMARK       I    between atoms: C22_23  and  N5_25 
REMARK   11  A    between atoms: N5_25  and  C24_26 
REMARK   12  A    between atoms: C24_26  and  C25_27 
REMARK   13  A    between atoms: C24_26  and  C28_32 
REMARK   14  A    between atoms: C25_27  and  C26_28 
REMARK   15  A    between atoms: C26_28  and  C27_29 
REMARK       I    between atoms: C27_29  and  N20_30 
ROOT
ATOM      1  C18 MU2 d         -14.147 -22.644 -22.419  0.00  0.00     0.209 C 
ATOM      2  C20 MU2 d         -14.054 -24.164 -22.395  0.00  0.00     0.050 C 
ENDROOT
BRANCH   1   3
ATOM      3  O3  MU2 d         -14.333 -22.143 -21.088  0.00  0.00    -0.367 OA
BRANCH   3   4
ATOM      4  C3  MU2 d         -15.485 -21.322 -20.807  0.00  0.00     0.181 C 
ATOM      5  C2  MU2 d         -16.294 -21.930 -19.646  0.00  0.00     0.171 C 
ATOM      6  C1  MU2 d         -17.645 -21.220 -19.395  0.00  0.00     0.282 C 
ATOM      7  O5  MU2 d         -18.288 -20.716 -20.583  0.00  0.00    -0.349 OA
ATOM      8  C5  MU2 d         -17.430 -19.972 -21.460  0.00  0.00     0.179 C 
ATOM      9  C4  MU2 d         -16.370 -20.940 -22.006  0.00  0.00     0.180 C 
BRANCH   5  10
ATOM     10  N2  MU2 d         -15.439 -21.652 -18.485  0.00  0.00    -0.349 N 
ATOM     11  C7  MU2 d         -15.592 -22.165 -17.249  0.00  0.00     0.214 C 
ATOM     12  O7  MU2 d         -16.492 -22.950 -16.925  0.00  0.00    -0.274 OA
ATOM     13  C8  MU2 d         -14.562 -21.694 -16.257  0.00  0.00     0.117 C 
ATOM     14  H4  MU2 d         -14.673 -21.024 -18.625  0.00  0.00     0.163 HD
ENDBRANCH   5  10
BRANCH   6  15
ATOM     15  O1  MU2 d         -17.596 -20.354 -18.274  0.00  0.00    -0.369 OA
ATOM     16  H2  MU2 d         -17.152 -20.791 -17.557  0.00  0.00     0.212 HD
ENDBRANCH   6  15
BRANCH   8  17
ATOM     17  C6  MU2 d         -18.256 -19.306 -22.563  0.00  0.00     0.198 C 
BRANCH  17  18
ATOM     18  O6  MU2 d         -17.499 -18.211 -23.120  0.00  0.00    -0.398 OA
ATOM     19  H14 MU2 d         -16.686 -18.542 -23.483  0.00  0.00     0.209 HD
ENDBRANCH  17  18
ENDBRANCH   8  17
BRANCH   9  20
ATOM     20  O4  MU2 d         -15.587 -20.262 -23.009  0.00  0.00    -0.390 OA
ATOM     21  H10 MU2 d         -16.145 -20.032 -23.743  0.00  0.00     0.210 HD
ENDBRANCH   9  20
ENDBRANCH   3   4
ENDBRANCH   1   3
BRANCH   1  22
ATOM     22  C19 MU2 d         -12.914 -22.064 -23.067  0.00  0.00     0.247 C 
ATOM     23  O18 MU2 d         -12.060 -21.499 -22.403  0.00  0.00    -0.271 OA
ATOM     24  N4  MU2 d         -12.890 -22.239 -24.391  0.00  0.00    -0.346 N 
ATOM     25  H19 MU2 d         -13.682 -22.746 -24.733  0.00  0.00     0.163 HD
BRANCH  24  26
ATOM     26  C21 MU2 d         -11.955 -21.850 -25.455  0.00  0.00     0.172 C 
ATOM     27  C23 MU2 d         -12.619 -20.680 -26.182  0.00  0.00     0.042 C 
BRANCH  26  28
ATOM     28  C22 MU2 d         -10.502 -21.512 -25.200  0.00  0.00     0.240 C 
ATOM     29  O19 MU2 d         -10.099 -21.113 -24.118  0.00  0.00    -0.271 OA
ATOM     30  N5  MU2 d          -9.736 -21.673 -26.292  0.00  0.00    -0.345 N 
ATOM     31  H24 MU2 d         -10.218 -22.009 -27.101  0.00  0.00     0.163 HD
BRANCH  30  32
ATOM     32  C24 MU2 d          -8.300 -21.432 -26.481  0.00  0.00     0.186 C 
BRANCH  32  33
ATOM     33  C25 MU2 d          -8.088 -21.972 -27.898  0.00  0.00     0.045 C 
BRANCH  33  34
ATOM     34  C26 MU2 d          -6.851 -21.432 -28.613  0.00  0.00     0.105 C 
BRANCH  34  35
ATOM     35  C27 MU2 d          -6.007 -22.591 -29.097  0.00  0.00     0.215 C 
ATOM     36  N20 MU2 d          -6.406 -23.204 -30.211  0.00  0.00    -0.370 N 
ATOM     37  H30 MU2 d          -5.882 -23.976 -30.572  0.00  0.00     0.159 HD
ATOM     38  H31 MU2 d          -7.229 -22.892 -30.686  0.00  0.00     0.159 HD
ATOM     39  O21 MU2 d          -5.009 -22.927 -28.479  0.00  0.00    -0.274 OA
ENDBRANCH  34  35
ENDBRANCH  33  34
ENDBRANCH  32  33
BRANCH  32  40
ATOM     40  C28 MU2 d          -7.382 -22.121 -25.501  0.00  0.00     0.196 C 
ATOM     41  O22 MU2 d          -7.904 -22.802 -24.581  0.00  0.00    -0.646 OA
ATOM     42  O23 MU2 d          -6.129 -22.017 -25.659  0.00  0.00    -0.646 OA
ENDBRANCH  32  40
ENDBRANCH  30  32
ENDBRANCH  26  28
ENDBRANCH  24  26
ENDBRANCH   1  22
TORSDOF 15
