REMARK  13 active torsions:
REMARK  status: ('A' for Active; 'I' for Inactive)
REMARK    1  A    between atoms: N1_1  and  C8_10 
REMARK    2  A    between atoms: N2_2  and  C32_34 
REMARK    3  A    between atoms: N4_5  and  C22_24 
REMARK    4  A    between atoms: C5_6  and  C15_17 
REMARK    5  A    between atoms: C6_7  and  O6_8 
REMARK    6  A    between atoms: C8_10  and  C9_11 
REMARK    7  A    between atoms: C15_17  and  C16_18 
REMARK    8  A    between atoms: C22_24  and  C23_25 
REMARK    9  A    between atoms: C25_27  and  O30_32 
REMARK   10  A    between atoms: C26_28  and  O29_31 
REMARK   11  A    between atoms: C32_34  and  C33_35 
REMARK   12  A    between atoms: C36_38  and  O39_41 
REMARK   13  A    between atoms: C37_39  and  O40_42 
ROOT
ATOM      1  N1  A88 d          -8.609  17.479  26.967  0.00  0.00     0.021 N 
ATOM      2  N2  A88 d          -8.635  16.034  26.795  0.00  0.00    -0.155 N 
ATOM      3  C3  A88 d          -8.834  15.139  27.793  0.00  0.00     0.345 C 
ATOM      4  O3  A88 d          -8.196  14.058  27.749  0.00  0.00    -0.245 OA
ATOM      5  N4  A88 d          -9.738  15.500  28.737  0.00  0.00    -0.321 N 
ATOM      6  C5  A88 d         -10.783  16.411  28.690  0.00  0.00     0.124 C 
ATOM      7  C6  A88 d         -10.507  17.943  28.312  0.00  0.00     0.169 C 
ATOM      8  C7  A88 d          -9.955  18.217  26.928  0.00  0.00     0.296 C 
ATOM      9  H1  A88 d          -8.197  17.773  26.096  0.00  0.00     0.309 HD
ENDROOT
BRANCH   2  10
ATOM     10  C32 A88 d          -7.903  15.578  25.526  0.00  0.00     0.200 C 
BRANCH  10  11
ATOM     11  C33 A88 d          -8.325  16.126  24.190  0.00  0.00    -0.035 A 
ATOM     12  C38 A88 d          -7.423  16.897  23.470  0.00  0.00     0.048 A 
ATOM     13  C37 A88 d          -7.790  17.408  22.246  0.00  0.00     0.101 A 
ATOM     14  C36 A88 d          -9.050  17.141  21.725  0.00  0.00     0.099 A 
ATOM     15  C35 A88 d          -9.964  16.357  22.435  0.00  0.00     0.040 A 
ATOM     16  C34 A88 d          -9.601  15.845  23.679  0.00  0.00     0.012 A 
BRANCH  13  17
ATOM     17  O40 A88 d          -6.977  18.284  21.532  0.00  0.00    -0.353 OA
ATOM     18  C41 A88 d          -6.275  19.323  22.266  0.00  0.00     0.210 C 
ENDBRANCH  13  17
BRANCH  14  19
ATOM     19  O39 A88 d          -9.642  17.479  20.566  0.00  0.00    -0.358 OA
ATOM     20  H35 A88 d          -9.049  18.015  20.053  0.00  0.00     0.217 HD
ENDBRANCH  14  19
ENDBRANCH  10  11
ENDBRANCH   2  10
BRANCH   1  21
ATOM     21  C8  A88 d          -7.597  18.011  27.981  0.00  0.00     0.301 C 
BRANCH  21  22
ATOM     22  C9  A88 d          -6.261  18.014  27.260  0.00  0.00    -0.030 A 
ATOM     23  C14 A88 d          -5.330  17.010  27.541  0.00  0.00     0.009 A 
ATOM     24  C13 A88 d          -4.140  16.995  26.834  0.00  0.00     0.001 A 
ATOM     25  C12 A88 d          -3.866  17.965  25.866  0.00  0.00     0.000 A 
ATOM     26  C11 A88 d          -4.798  18.968  25.587  0.00  0.00     0.001 A 
ATOM     27  C10 A88 d          -5.999  18.999  26.290  0.00  0.00     0.009 A 
ENDBRANCH  21  22
ENDBRANCH   1  21
BRANCH   5  28
ATOM     28  C22 A88 d          -9.508  14.689  30.031  0.00  0.00     0.166 C 
BRANCH  28  29
ATOM     29  C23 A88 d          -9.761  15.313  31.393  0.00  0.00    -0.037 A 
ATOM     30  C28 A88 d          -8.854  16.253  31.895  0.00  0.00     0.012 A 
ATOM     31  C27 A88 d          -9.060  16.830  33.141  0.00  0.00     0.040 A 
ATOM     32  C26 A88 d         -10.186  16.464  33.869  0.00  0.00     0.099 A 
ATOM     33  C25 A88 d         -11.106  15.550  33.365  0.00  0.00     0.101 A 
ATOM     34  C24 A88 d         -10.888  14.957  32.122  0.00  0.00     0.048 A 
BRANCH  32  35
ATOM     35  O29 A88 d         -10.386  17.027  35.070  0.00  0.00    -0.358 OA
ATOM     36  H26 A88 d          -9.671  17.622  35.263  0.00  0.00     0.217 HD
ENDBRANCH  32  35
BRANCH  33  37
ATOM     37  O30 A88 d         -12.330  15.289  33.995  0.00  0.00    -0.353 OA
ATOM     38  C31 A88 d         -13.219  14.146  33.846  0.00  0.00     0.210 C 
ENDBRANCH  33  37
ENDBRANCH  28  29
ENDBRANCH   5  28
BRANCH   7  39
ATOM     39  O6  A88 d         -11.712  18.578  28.625  0.00  0.00    -0.392 OA
ATOM     40  H4  A88 d         -11.972  18.344  29.508  0.00  0.00     0.210 HD
ENDBRANCH   7  39
BRANCH   6  41
ATOM     41  C15 A88 d         -11.835  15.724  27.779  0.00  0.00     0.066 C 
BRANCH  41  42
ATOM     42  C16 A88 d         -12.513  14.511  28.440  0.00  0.00    -0.056 A 
ATOM     43  C21 A88 d         -12.129  13.220  28.057  0.00  0.00     0.007 A 
ATOM     44  C20 A88 d         -12.748  12.118  28.647  0.00  0.00     0.001 A 
ATOM     45  C19 A88 d         -13.742  12.283  29.609  0.00  0.00     0.000 A 
ATOM     46  C18 A88 d         -14.126  13.570  29.989  0.00  0.00     0.001 A 
ATOM     47  C17 A88 d         -13.515  14.689  29.410  0.00  0.00     0.007 A 
ENDBRANCH  41  42
ENDBRANCH   6  41
TORSDOF 13
