REMARK  0 active torsions:
REMARK  status: ('A' for Active; 'I' for Inactive)
ROOT
ATOM      1  C   MBN d           5.324  11.174   0.477  0.00  0.00     0.048 C 
ATOM      2  C1  MBN d           4.114  10.421   0.976  0.00  0.00    -0.062 A 
ATOM      3  C2  MBN d           3.698   9.271   0.320  0.00  0.00     0.007 A 
ATOM      4  C3  MBN d           2.581   8.588   0.772  0.00  0.00     0.001 A 
ATOM      5  C4  MBN d           1.861   9.051   1.867  0.00  0.00     0.000 A 
ATOM      6  C5  MBN d           2.277  10.201   2.528  0.00  0.00     0.001 A 
ATOM      7  C6  MBN d           3.399  10.898   2.085  0.00  0.00     0.007 A 
ENDROOT
TORSDOF 0
