REMARK  4 active torsions:
REMARK  status: ('A' for Active; 'I' for Inactive)
REMARK    1  A    between atoms: CA_2  and  N_1 
REMARK    2  A    between atoms: CA_2  and  C_3 
REMARK    3  A    between atoms: CA_2  and  CB_5 
REMARK    4  A    between atoms: CB_5  and  CG_6 
ROOT
ATOM      1  CA  LEU d          63.378  54.126  17.506  0.00  0.00     0.257 C 
ENDROOT
BRANCH   1   2
ATOM      2  C   LEU d          64.777  53.522  17.189  0.00  0.00     0.320 C 
ATOM      3  OXT LEU d          64.670  52.094  17.271  0.00  0.00    -0.186 OA
ATOM      4  O   LEU d          65.125  53.725  15.840  0.00  0.00    -0.186 OA
ENDBRANCH   1   2
BRANCH   1   5
ATOM      5  CB  LEU d          62.905  53.611  18.858  0.00  0.00     0.042 C 
BRANCH   5   6
ATOM      6  CG  LEU d          61.534  54.136  19.298  0.00  0.00    -0.021 C 
ATOM      7  CD2 LEU d          61.258  55.577  18.934  0.00  0.00     0.009 C 
ATOM      8  CD1 LEU d          61.199  53.887  20.740  0.00  0.00     0.009 C 
ENDBRANCH   5   6
ENDBRANCH   1   5
BRANCH   1   9
ATOM      9  N   LEU d          62.444  53.710  16.451  0.00  0.00    -0.069 N 
ATOM     10  H1  LEU d          61.531  54.093  16.640  0.00  0.00     0.275 HD
ATOM     11  H2  LEU d          62.388  52.704  16.429  0.00  0.00     0.275 HD
ATOM     12  H3  LEU d          62.772  54.048  15.560  0.00  0.00     0.275 HD
ENDBRANCH   1   9
TORSDOF 4
