REMARK  19 active torsions:
REMARK  status: ('A' for Active; 'I' for Inactive)
REMARK    1  A    between atoms: C1_2  and  N4_3 
REMARK    2  A    between atoms: C1_2  and  C2_4 
REMARK       I    between atoms: C2_4  and  N12_6 
REMARK    3  A    between atoms: N12_6  and  CA1_7 
REMARK    4  A    between atoms: CA1_7  and  C15_9 
REMARK       I    between atoms: C15_9  and  N22_11 
REMARK    5  A    between atoms: N22_11  and  CA2_12 
REMARK    6  A    between atoms: CA2_12  and  CB2_13 
REMARK    7  A    between atoms: CA2_12  and  C31_20 
REMARK    8  A    between atoms: CB2_13  and  CG2_14 
REMARK    9  A    between atoms: C31_20  and  O32_21 
REMARK   10  A    between atoms: C31_20  and  C44_22 
REMARK   11  A    between atoms: C44_22  and  CA4_23 
REMARK   12  A    between atoms: CA4_23  and  C46_24 
REMARK       I    between atoms: C46_24  and  N52_26 
REMARK   13  A    between atoms: N52_26  and  CA5_27 
REMARK   14  A    between atoms: CA5_27  and  CB5_28 
REMARK   15  A    between atoms: CA5_27  and  C57_31 
REMARK       I    between atoms: C57_31  and  N68_33 
REMARK   16  A    between atoms: N68_33  and  CA6_34 
REMARK   17  A    between atoms: CA6_34  and  CB7_35 
REMARK   18  A    between atoms: CA6_34  and  C73_38 
REMARK   19  A    between atoms: C73_38  and  OT7_39 
ROOT
ATOM      1  C31 PSI d          -9.926  17.871   1.167  0.00  0.00     0.141 C 
ENDROOT
BRANCH   1   2
ATOM      2  CA2 PSI d          -8.663  17.822   0.218  0.00  0.00     0.117 C 
BRANCH   2   3
ATOM      3  N22 PSI d          -8.982  17.902  -1.237  0.00  0.00    -0.352 N 
ATOM      4  C15 PSI d          -8.818  16.868  -2.081  0.00  0.00     0.240 C 
ATOM      5  O16 PSI d          -8.435  15.761  -1.729  0.00  0.00    -0.271 OA
ATOM      6  H13 PSI d          -9.334  18.764  -1.601  0.00  0.00     0.163 HD
BRANCH   4   7
ATOM      7  CA1 PSI d          -9.068  17.115  -3.573  0.00  0.00     0.172 C 
ATOM      8  CB3 PSI d         -10.088  16.115  -4.141  0.00  0.00     0.042 C 
BRANCH   7   9
ATOM      9  N12 PSI d          -7.764  16.932  -4.232  0.00  0.00    -0.346 N 
ATOM     10  C2  PSI d          -7.284  17.785  -5.151  0.00  0.00     0.248 C 
ATOM     11  O3  PSI d          -7.878  18.795  -5.503  0.00  0.00    -0.271 OA
ATOM     12  H8  PSI d          -7.211  16.137  -3.984  0.00  0.00     0.163 HD
BRANCH  10  13
ATOM     13  C1  PSI d          -5.883  17.474  -5.680  0.00  0.00     0.270 C 
ATOM     14  CB1 PSI d          -4.832  18.179  -4.828  0.00  0.00     0.050 C 
BRANCH  13  15
ATOM     15  N4  PSI d          -5.741  17.938  -7.039  0.00  0.00    -0.067 N 
ATOM     16  H5  PSI d          -6.427  17.485  -7.622  0.00  0.00     0.275 HD
ATOM     17  H6  PSI d          -4.816  17.718  -7.375  0.00  0.00     0.275 HD
ATOM     18  H7  PSI d          -5.881  18.936  -7.070  0.00  0.00     0.275 HD
ENDBRANCH  13  15
ENDBRANCH  10  13
ENDBRANCH   7   9
ENDBRANCH   4   7
ENDBRANCH   2   3
BRANCH   2  19
ATOM     19  CB2 PSI d          -7.686  18.939   0.623  0.00  0.00     0.066 C 
BRANCH  19  20
ATOM     20  CG2 PSI d          -6.315  18.826  -0.024  0.00  0.00    -0.056 A 
ATOM     21  CD1 PSI d          -5.958  19.605  -1.137  0.00  0.00     0.007 A 
ATOM     22  CE1 PSI d          -4.669  19.494  -1.682  0.00  0.00     0.001 A 
ATOM     23  CZ3 PSI d          -3.729  18.621  -1.110  0.00  0.00     0.000 A 
ATOM     24  CE2 PSI d          -4.086  17.837  -0.004  0.00  0.00     0.001 A 
ATOM     25  CD2 PSI d          -5.368  17.953   0.546  0.00  0.00     0.007 A 
ENDBRANCH  19  20
ENDBRANCH   2  19
ENDBRANCH   1   2
BRANCH   1  26
ATOM     26  O32 PSI d         -10.864  19.015   1.093  0.00  0.00    -0.393 OA
ATOM     27  H23 PSI d         -11.563  18.891   1.724  0.00  0.00     0.210 HD
ENDBRANCH   1  26
BRANCH   1  28
ATOM     28  C44 PSI d         -10.774  16.612   0.915  0.00  0.00     0.043 C 
BRANCH  28  29
ATOM     29  CA4 PSI d         -11.884  16.414   1.972  0.00  0.00     0.105 C 
BRANCH  29  30
ATOM     30  C46 PSI d         -11.370  15.781   3.271  0.00  0.00     0.218 C 
ATOM     31  O47 PSI d         -10.780  14.710   3.196  0.00  0.00    -0.274 OA
ATOM     32  N52 PSI d         -11.629  16.367   4.458  0.00  0.00    -0.347 N 
ATOM     33  H28 PSI d         -12.052  17.273   4.493  0.00  0.00     0.163 HD
BRANCH  32  34
ATOM     34  CA5 PSI d         -11.280  15.653   5.711  0.00  0.00     0.179 C 
BRANCH  34  35
ATOM     35  CB5 PSI d         -10.432  16.519   6.669  0.00  0.00     0.009 C 
ATOM     36  CG6 PSI d          -9.968  15.726   7.908  0.00  0.00     0.012 C 
ATOM     37  CG5 PSI d          -9.167  17.037   5.954  0.00  0.00     0.012 C 
ENDBRANCH  34  35
BRANCH  34  38
ATOM     38  C57 PSI d         -12.596  15.131   6.328  0.00  0.00     0.241 C 
ATOM     39  O58 PSI d         -13.577  15.844   6.493  0.00  0.00    -0.271 OA
ATOM     40  N68 PSI d         -12.539  13.842   6.657  0.00  0.00    -0.349 N 
ATOM     41  H37 PSI d         -11.656  13.417   6.458  0.00  0.00     0.163 HD
BRANCH  40  42
ATOM     42  CA6 PSI d         -13.519  12.917   7.256  0.00  0.00     0.159 C 
BRANCH  42  43
ATOM     43  CB7 PSI d         -14.168  12.052   6.121  0.00  0.00     0.006 C 
ATOM     44  CG8 PSI d         -15.279  11.090   6.638  0.00  0.00     0.012 C 
ATOM     45  CG7 PSI d         -14.852  12.927   5.045  0.00  0.00     0.012 C 
ENDBRANCH  42  43
BRANCH  42  46
ATOM     46  C73 PSI d         -12.829  12.077   8.419  0.00  0.00     0.279 C 
ATOM     47  OXT PSI d         -11.511  11.436   8.275  0.00  0.00    -0.189 OA
BRANCH  46  48
ATOM     48  OT7 PSI d         -13.000  12.664   9.710  0.00  0.00    -0.352 OA
ATOM     49  C76 PSI d         -13.056  11.697  10.774  0.00  0.00     0.206 C 
ENDBRANCH  46  48
ENDBRANCH  42  46
ENDBRANCH  40  42
ENDBRANCH  34  38
ENDBRANCH  32  34
ENDBRANCH  29  30
ENDBRANCH  28  29
ENDBRANCH   1  28
TORSDOF 19
