REMARK  4 active torsions:
REMARK  status: ('A' for Active; 'I' for Inactive)
REMARK    1  A    between atoms: C5_7  and  O1_2 
REMARK    2  A    between atoms: C2_3  and  C7_9 
REMARK    3  A    between atoms: C3_5  and  O2_4 
REMARK    4  A    between atoms: C7_9  and  C8_10 
ROOT
ATOM      1  C1  EOL d           2.647 -10.674 -10.663  0.00  0.00     0.047 A 
ATOM      2  C2  EOL d           2.807 -11.494 -11.785  0.00  0.00    -0.052 A 
ATOM      3  C3  EOL d           2.691 -11.242  -9.392  0.00  0.00     0.101 A 
ATOM      4  C4  EOL d           3.033 -12.859 -11.630  0.00  0.00     0.010 A 
ATOM      5  C5  EOL d           2.868 -12.610  -9.251  0.00  0.00     0.099 A 
ATOM      6  C6  EOL d           3.059 -13.427 -10.361  0.00  0.00     0.040 A 
ENDROOT
BRANCH   2   7
ATOM      7  C7  EOL d           2.742 -10.915 -13.163  0.00  0.00     0.065 C 
BRANCH   7   8
ATOM      8  C8  EOL d           3.628  -9.766 -13.473  0.00  0.00    -0.032 C 
ATOM      9  C9  EOL d           4.805  -9.630 -12.803  0.00  0.00     0.007 C 
ENDBRANCH   7   8
ENDBRANCH   2   7
BRANCH   3  10
ATOM     10  O2  EOL d           2.513 -10.499  -8.241  0.00  0.00    -0.353 OA
ATOM     11  C10 EOL d           2.360  -9.130  -8.313  0.00  0.00     0.210 C 
ENDBRANCH   3  10
BRANCH   5  12
ATOM     12  O1  EOL d           2.898 -13.159  -8.006  0.00  0.00    -0.358 OA
ATOM     13  H2  EOL d           3.025 -14.098  -8.078  0.00  0.00     0.217 HD
ENDBRANCH   5  12
TORSDOF 4
