REMARK  24 active torsions:
REMARK  status: ('A' for Active; 'I' for Inactive)
REMARK    1  A    between atoms: S4_22  and  C1_1 
REMARK    2  A    between atoms: C2_2  and  O2_7 
REMARK    3  A    between atoms: C3_3  and  O3_8 
REMARK    4  A    between atoms: C4_4  and  O4_9 
REMARK    5  A    between atoms: C5_5  and  C6_6 
REMARK    6  A    between atoms: C6_6  and  O6_11 
REMARK    7  A    between atoms: S4_33  and  C1_12 
REMARK    8  A    between atoms: C2_13  and  O2_14 
REMARK    9  A    between atoms: C3_15  and  O3_16 
REMARK   10  A    between atoms: C4_17  and  S4_22 
REMARK   11  A    between atoms: C5_18  and  C6_20 
REMARK   12  A    between atoms: C6_20  and  O6_21 
REMARK   13  A    between atoms: O4_44  and  C1_23 
REMARK   14  A    between atoms: C2_24  and  O2_25 
REMARK   15  A    between atoms: C3_26  and  O3_27 
REMARK   16  A    between atoms: C4_28  and  S4_33 
REMARK   17  A    between atoms: C5_29  and  C6_31 
REMARK   18  A    between atoms: C6_31  and  O6_32 
REMARK   19  A    between atoms: C1_34  and  O1_41 
REMARK   20  A    between atoms: C2_35  and  O2_42 
REMARK   21  A    between atoms: C3_36  and  O3_43 
REMARK   22  A    between atoms: O4_44  and  C4_37 
REMARK   23  A    between atoms: C5_38  and  C6_39 
REMARK   24  A    between atoms: C6_39  and  O6_46 
ROOT
ATOM      1  S4  MOL d           2.101  42.055  11.883  0.00  0.00    -0.124 SA
ENDROOT
BRANCH   1   2
ATOM      2  C4  MOL d           2.500  42.030  10.124  0.00  0.00     0.112 C 
ATOM      3  C3  MOL d           3.800  42.867   9.938  0.00  0.00     0.168 C 
ATOM      4  C2  MOL d           4.314  42.668   8.515  0.00  0.00     0.203 C 
ATOM      5  C1  MOL d           4.416  41.171   8.223  0.00  0.00     0.292 C 
ATOM      6  O5  MOL d           3.193  40.549   8.403  0.00  0.00    -0.350 OA
ATOM      7  C5  MOL d           2.696  40.557   9.725  0.00  0.00     0.164 C 
BRANCH   3   8
ATOM      8  O3  MOL d           3.522  44.208  10.050  0.00  0.00    -0.392 OA
ATOM      9  H26 MOL d           4.315  44.709   9.896  0.00  0.00     0.210 HD
ENDBRANCH   3   8
BRANCH   4  10
ATOM     10  O2  MOL d           5.568  43.266   8.390  0.00  0.00    -0.388 OA
ATOM     11  H24 MOL d           5.494  44.195   8.573  0.00  0.00     0.210 HD
ENDBRANCH   4  10
BRANCH   5  12
ATOM     12  O4  MOL d           4.800  40.983   6.872  0.00  0.00    -0.348 OA
BRANCH  12  13
ATOM     13  C4  MOL d           5.304  39.683   6.611  0.00  0.00     0.187 C 
ATOM     14  C3  MOL d           4.337  38.892   5.757  0.00  0.00     0.183 C 
ATOM     15  C2  MOL d           4.906  37.528   5.362  0.00  0.00     0.204 C 
ATOM     16  C1  MOL d           6.280  37.723   4.757  0.00  0.00     0.290 C 
ATOM     17  O5  MOL d           7.137  38.507   5.547  0.00  0.00    -0.349 OA
ATOM     18  C5  MOL d           6.688  39.783   5.975  0.00  0.00     0.180 C 
BRANCH  14  19
ATOM     19  O3  MOL d           3.158  38.618   6.486  0.00  0.00    -0.390 OA
ATOM     20  H43 MOL d           2.759  39.436   6.759  0.00  0.00     0.210 HD
ENDBRANCH  14  19
BRANCH  15  21
ATOM     21  O2  MOL d           3.958  36.981   4.443  0.00  0.00    -0.388 OA
ATOM     22  H42 MOL d           3.119  36.882   4.877  0.00  0.00     0.210 HD
ENDBRANCH  15  21
BRANCH  16  23
ATOM     23  O1  MOL d           6.786  36.533   4.180  0.00  0.00    -0.363 OA
ATOM     24  C7  MOL d           7.970  36.667   3.387  0.00  0.00     0.204 C 
ENDBRANCH  16  23
BRANCH  18  25
ATOM     25  C6  MOL d           7.652  40.269   7.082  0.00  0.00     0.198 C 
BRANCH  25  26
ATOM     26  O6  MOL d           8.919  40.552   6.347  0.00  0.00    -0.398 OA
ATOM     27  H44 MOL d           9.224  39.757   5.926  0.00  0.00     0.209 HD
ENDBRANCH  25  26
ENDBRANCH  18  25
ENDBRANCH  12  13
ENDBRANCH   5  12
BRANCH   7  28
ATOM     28  C6  MOL d           1.423  39.690   9.736  0.00  0.00     0.197 C 
BRANCH  28  29
ATOM     29  O6  MOL d           0.370  40.375   9.064  0.00  0.00    -0.398 OA
ATOM     30  H31 MOL d           0.628  40.546   8.166  0.00  0.00     0.209 HD
ENDBRANCH  28  29
ENDBRANCH   7  28
ENDBRANCH   1   2
BRANCH   1  31
ATOM     31  C1  MOL d           1.176  43.566  12.022  0.00  0.00     0.215 C 
ATOM     32  C2  MOL d           0.505  43.679  13.391  0.00  0.00     0.187 C 
ATOM     33  C3  MOL d          -0.702  42.716  13.417  0.00  0.00     0.166 C 
ATOM     34  C4  MOL d          -1.590  43.001  12.223  0.00  0.00     0.112 C 
ATOM     35  C5  MOL d          -0.836  42.972  10.891  0.00  0.00     0.163 C 
ATOM     36  O5  MOL d           0.274  43.904  10.988  0.00  0.00    -0.364 OA
BRANCH  32  37
ATOM     37  O2  MOL d           1.500  43.379  14.378  0.00  0.00    -0.390 OA
ATOM     38  H14 MOL d           1.828  42.498  14.238  0.00  0.00     0.210 HD
ENDBRANCH  32  37
BRANCH  33  39
ATOM     39  O3  MOL d          -1.438  42.889  14.618  0.00  0.00    -0.392 OA
ATOM     40  H16 MOL d          -2.177  42.292  14.624  0.00  0.00     0.210 HD
ENDBRANCH  33  39
BRANCH  34  41
ATOM     41  S4  MOL d          -2.916  41.724  12.124  0.00  0.00    -0.124 SA
BRANCH  41  42
ATOM     42  C1  MOL d          -4.397  42.746  12.107  0.00  0.00     0.215 C 
ATOM     43  C2  MOL d          -5.631  41.870  11.741  0.00  0.00     0.188 C 
ATOM     44  C3  MOL d          -6.892  42.702  11.781  0.00  0.00     0.181 C 
ATOM     45  C4  MOL d          -7.063  43.426  13.101  0.00  0.00     0.180 C 
ATOM     46  C5  MOL d          -5.769  44.233  13.356  0.00  0.00     0.178 C 
ATOM     47  O5  MOL d          -4.674  43.355  13.328  0.00  0.00    -0.363 OA
BRANCH  43  48
ATOM     48  O2  MOL d          -5.442  41.521  10.379  0.00  0.00    -0.389 OA
ATOM     49  H8  MOL d          -6.192  41.025  10.073  0.00  0.00     0.210 HD
ENDBRANCH  43  48
BRANCH  44  50
ATOM     50  O3  MOL d          -7.976  41.791  11.616  0.00  0.00    -0.390 OA
ATOM     51  H9  MOL d          -7.879  41.331  10.790  0.00  0.00     0.210 HD
ENDBRANCH  44  50
BRANCH  45  52
ATOM     52  O4  MOL d          -8.203  44.308  13.104  0.00  0.00    -0.390 OA
ATOM     53  H10 MOL d          -8.993  43.804  12.947  0.00  0.00     0.210 HD
ENDBRANCH  45  52
BRANCH  46  54
ATOM     54  C6  MOL d          -5.886  44.902  14.723  0.00  0.00     0.198 C 
BRANCH  54  55
ATOM     55  O6  MOL d          -5.861  43.976  15.751  0.00  0.00    -0.398 OA
ATOM     56  H11 MOL d          -5.042  43.495  15.723  0.00  0.00     0.209 HD
ENDBRANCH  54  55
ENDBRANCH  46  54
ENDBRANCH  41  42
ENDBRANCH  34  41
BRANCH  35  57
ATOM     57  C6  MOL d          -1.669  43.432   9.655  0.00  0.00     0.197 C 
BRANCH  57  58
ATOM     58  O6  MOL d          -2.228  44.713   9.886  0.00  0.00    -0.398 OA
ATOM     59  H21 MOL d          -1.530  45.339  10.040  0.00  0.00     0.209 HD
ENDBRANCH  57  58
ENDBRANCH  35  57
ENDBRANCH   1  31
TORSDOF 24
