REMARK  2 active torsions:
REMARK  status: ('A' for Active; 'I' for Inactive)
REMARK    1  A    between atoms: C4_3  and  C12_4 
REMARK    2  A    between atoms: N2_9  and  C6_10 
ROOT
ATOM      1  O11 GF4 d          -4.718  51.226  12.901  0.00  0.00    -0.265 OA
ATOM      2  C3  GF4 d          -5.065  52.372  12.427  0.00  0.00     0.290 A 
ATOM      3  C4  GF4 d          -6.450  52.795  12.148  0.00  0.00     0.036 A 
ATOM      4  C5  GF4 d          -6.262  54.198  11.629  0.00  0.00     0.035 A 
ATOM      5  C14 GF4 d          -7.333  55.155  11.169  0.00  0.00     0.070 C 
ATOM      6  N1  GF4 d          -4.939  54.486  11.635  0.00  0.00    -0.280 N 
ATOM      7  N2  GF4 d          -4.255  53.372  12.138  0.00  0.00    -0.043 N 
ATOM      8  H9  GF4 d          -4.511  55.370  11.324  0.00  0.00     0.188 HD
ENDROOT
BRANCH   7   9
ATOM      9  C6  GF4 d          -2.925  53.335  12.232  0.00  0.00     0.756 A 
ATOM     10  N10 GF4 d          -2.177  53.542  11.153  0.00  0.00     0.032 NA
ATOM     11  N9  GF4 d          -0.859  53.426  11.616  0.00  0.00     0.033 NA
ATOM     12  N8  GF4 d          -0.914  53.144  12.991  0.00  0.00     0.009 NA
ATOM     13  N7  GF4 d          -2.262  53.095  13.368  0.00  0.00    -0.113 N 
ATOM     14  H10 GF4 d          -2.652  52.916  14.304  0.00  0.00     0.203 HD
ENDBRANCH   7   9
BRANCH   3  15
ATOM     15  C12 GF4 d          -7.713  51.991  12.345  0.00  0.00     0.042 C 
ATOM     16  C13 GF4 d          -8.621  52.723  13.305  0.00  0.00     0.010 C 
ENDBRANCH   3  15
TORSDOF 2
