REMARK  9 active torsions:
REMARK  status: ('A' for Active; 'I' for Inactive)
REMARK    1  A    between atoms: PB_2  and  N3B_1 
REMARK    2  A    between atoms: PB_2  and  O3A_5 
REMARK    3  A    between atoms: O3A_5  and  PA_6 
REMARK    4  A    between atoms: PA_6  and  O5'_9 
REMARK    5  A    between atoms: O5'_9  and  C5'_10 
REMARK    6  A    between atoms: C5'_10  and  C4'_11 
REMARK    7  A    between atoms: C3'_13  and  O3'_14 
REMARK    8  A    between atoms: C2'_15  and  O2'_16 
REMARK    9  A    between atoms: C1'_17  and  N9_18 
ROOT
ATOM      1  C4' GNH d         105.993  29.899  -2.100  0.00  0.00     0.180 C 
ATOM      2  O4' GNH d         105.482  31.183  -2.439  0.00  0.00    -0.353 OA
ATOM      3  C3' GNH d         106.463  30.062  -0.657  0.00  0.00     0.182 C 
ATOM      4  C2' GNH d         105.735  31.266  -0.096  0.00  0.00     0.198 C 
ATOM      5  C1' GNH d         105.582  32.139  -1.349  0.00  0.00     0.262 C 
ENDROOT
BRANCH   5   6
ATOM      6  N9  GNH d         104.315  32.943  -1.510  0.00  0.00    -0.294 N 
ATOM      7  C8  GNH d         103.000  32.536  -1.354  0.00  0.00     0.214 A 
ATOM      8  N7  GNH d         102.073  33.446  -1.556  0.00  0.00    -0.234 NA
ATOM      9  C5  GNH d         102.807  34.596  -1.889  0.00  0.00     0.172 A 
ATOM     10  C6  GNH d         102.366  35.971  -2.236  0.00  0.00     0.281 A 
ATOM     11  C4  GNH d         104.205  34.323  -1.866  0.00  0.00     0.171 A 
ATOM     12  O6  GNH d         101.206  36.385  -2.306  0.00  0.00    -0.265 OA
ATOM     13  N1  GNH d         103.448  36.888  -2.522  0.00  0.00    -0.292 N 
ATOM     14  C2  GNH d         104.839  36.556  -2.481  0.00  0.00     0.204 A 
ATOM     15  H12 GNH d         103.205  37.826  -2.767  0.00  0.00     0.172 HD
ATOM     16  N2  GNH d         105.733  37.517  -2.767  0.00  0.00    -0.369 N 
ATOM     17  N3  GNH d         105.280  35.271  -2.157  0.00  0.00    -0.195 NA
ATOM     18  H13 GNH d         106.741  37.306  -2.745  0.00  0.00     0.159 HD
ATOM     19  H14 GNH d         105.411  38.465  -3.008  0.00  0.00     0.159 HD
ENDBRANCH   5   6
BRANCH   4  20
ATOM     20  O2' GNH d         106.298  31.889   1.059  0.00  0.00    -0.388 OA
ATOM     21  H9  GNH d         107.175  32.193   0.858  0.00  0.00     0.210 HD
ENDBRANCH   4  20
BRANCH   1  22
ATOM     22  C5' GNH d         104.864  28.849  -2.367  0.00  0.00     0.216 C 
BRANCH  22  23
ATOM     23  O5' GNH d         103.718  29.017  -1.498  0.00  0.00    -0.287 OA
BRANCH  23  24
ATOM     24  PA  GNH d         102.980  27.819  -0.775  0.00  0.00     0.417 P 
ATOM     25  O1A GNH d         103.932  26.873  -0.157  0.00  0.00    -0.624 OA
ATOM     26  O2A GNH d         101.850  28.318   0.057  0.00  0.00    -0.624 OA
BRANCH  24  27
ATOM     27  O3A GNH d         102.409  27.149  -2.136  0.00  0.00    -0.186 OA
BRANCH  27  28
ATOM     28  PB  GNH d         101.522  25.886  -2.428  0.00  0.00     0.366 P 
ATOM     29  O1B GNH d         100.983  25.470  -1.079  0.00  0.00    -0.630 OA
ATOM     30  O2B GNH d         100.350  26.250  -3.273  0.00  0.00    -0.630 OA
BRANCH  28  31
ATOM     31  N3B GNH d         102.486  24.870  -2.909  0.00  0.00    -0.334 N 
ATOM     32  H1  GNH d         102.165  23.959  -3.167  0.00  0.00     0.162 HD
ATOM     33  H2  GNH d         103.458  25.095  -2.976  0.00  0.00     0.162 HD
ENDBRANCH  28  31
ENDBRANCH  27  28
ENDBRANCH  24  27
ENDBRANCH  23  24
ENDBRANCH  22  23
ENDBRANCH   1  22
BRANCH   3  34
ATOM     34  O3' GNH d         107.873  30.193  -0.594  0.00  0.00    -0.390 OA
ATOM     35  H7  GNH d         108.141  30.293   0.312  0.00  0.00     0.210 HD
ENDBRANCH   3  34
TORSDOF 9
