REMARK  17 active torsions:
REMARK  status: ('A' for Active; 'I' for Inactive)
REMARK    1  A    between atoms: C4_3  and  O17_16 
REMARK    2  A    between atoms: N6_5  and  C7_6 
REMARK    3  A    between atoms: C11_10  and  O12_11 
REMARK    4  A    between atoms: C18_17  and  C19_18 
REMARK    5  A    between atoms: C20_54  and  C18_17 
REMARK    6  A    between atoms: C19_18  and  N36_34 
REMARK    7  A    between atoms: C21_19  and  C22_20 
REMARK    8  A    between atoms: C3_52  and  C21_19 
REMARK    9  A    between atoms: C29_27  and  C28_26 
REMARK   10  A    between atoms: C35_33  and  C32_30 
REMARK   11  A    between atoms: N36_34  and  C35_33 
REMARK   12  A    between atoms: N36_34  and  N37_35 
REMARK       I    between atoms: N37_35  and  C38_36 
REMARK   13  A    between atoms: C38_36  and  C39_37 
REMARK   14  A    between atoms: C39_37  and  N40_38 
REMARK   15  A    between atoms: C39_37  and  C45_43 
REMARK       I    between atoms: N40_38  and  C41_39 
REMARK   16  A    between atoms: C41_39  and  O42_40 
REMARK   17  A    between atoms: C3_52  and  C20_54 
ROOT
ATOM      1  N36 QG9 d          15.802  22.794   7.166  0.00  0.00     0.015 N 
ATOM      2  H31 QG9 d          14.877  22.524   7.463  0.00  0.00     0.309 HD
ENDROOT
BRANCH   1   3
ATOM      3  C19 QG9 d          15.744  24.137   6.619  0.00  0.00     0.263 C 
BRANCH   3   4
ATOM      4  C18 QG9 d          14.638  24.400   5.637  0.00  0.00     0.031 C 
BRANCH   4   5
ATOM      5  C20 QG9 d          13.213  24.210   6.224  0.00  0.00     0.024 C 
BRANCH   5   6
ATOM      6  C3  QG9 d          12.024  24.497   5.262  0.00  0.00     0.072 C 
ATOM      7  C1  QG9 d          10.732  24.368   6.106  0.00  0.00     0.232 C 
ATOM      8  O2  QG9 d          10.513  23.384   6.830  0.00  0.00    -0.272 OA
ATOM      9  N6  QG9 d           9.916  25.410   5.935  0.00  0.00    -0.338 N 
ATOM     10  C5  QG9 d          10.514  26.354   5.022  0.00  0.00     0.159 C 
ATOM     11  C4  QG9 d          11.963  26.024   4.907  0.00  0.00     0.154 C 
BRANCH   9  12
ATOM     12  C7  QG9 d           8.599  25.631   6.567  0.00  0.00     0.150 C 
ATOM     13  C8  QG9 d           8.434  26.886   7.408  0.00  0.00    -0.026 A 
ATOM     14  C9  QG9 d           7.081  27.317   7.352  0.00  0.00    -0.047 A 
ATOM     15  C16 QG9 d           9.429  27.619   8.190  0.00  0.00     0.010 A 
ATOM     16  C10 QG9 d           6.264  26.401   6.485  0.00  0.00     0.073 C 
ATOM     17  C13 QG9 d           6.634  28.496   8.056  0.00  0.00     0.008 A 
ATOM     18  C11 QG9 d           7.336  25.698   5.623  0.00  0.00     0.149 C 
ATOM     19  C14 QG9 d           7.607  29.244   8.842  0.00  0.00     0.001 A 
ATOM     20  C15 QG9 d           9.001  28.808   8.906  0.00  0.00     0.001 A 
BRANCH  18  21
ATOM     21  O12 QG9 d           7.497  26.527   4.468  0.00  0.00    -0.393 OA
ATOM     22  H8  QG9 d           8.150  26.144   3.893  0.00  0.00     0.210 HD
ENDBRANCH  18  21
ENDBRANCH   9  12
BRANCH  11  23
ATOM     23  O17 QG9 d          12.566  26.905   5.820  0.00  0.00    -0.393 OA
ATOM     24  H13 QG9 d          13.506  26.767   5.817  0.00  0.00     0.210 HD
ENDBRANCH  11  23
BRANCH   6  25
ATOM     25  C21 QG9 d          12.079  23.474   3.971  0.00  0.00     0.060 C 
BRANCH  25  26
ATOM     26  C22 QG9 d          10.835  23.647   2.973  0.00  0.00    -0.057 A 
ATOM     27  C27 QG9 d          10.476  24.614   1.939  0.00  0.00     0.007 A 
ATOM     28  C26 QG9 d           9.252  24.494   1.188  0.00  0.00     0.001 A 
ATOM     29  C25 QG9 d           8.350  23.396   1.456  0.00  0.00     0.000 A 
ATOM     30  C24 QG9 d           8.683  22.419   2.479  0.00  0.00     0.001 A 
ATOM     31  C23 QG9 d           9.911  22.535   3.235  0.00  0.00     0.007 A 
ENDBRANCH  25  26
ENDBRANCH   6  25
ENDBRANCH   5   6
ENDBRANCH   4   5
ENDBRANCH   3   4
ENDBRANCH   1   3
BRANCH   1  32
ATOM     32  C35 QG9 d          16.707  22.777   8.339  0.00  0.00     0.301 C 
BRANCH  32  33
ATOM     33  C32 QG9 d          16.902  21.531   8.974  0.00  0.00    -0.030 A 
ATOM     34  C31 QG9 d          18.186  20.916   9.195  0.00  0.00     0.010 A 
ATOM     35  C30 QG9 d          18.277  19.629   9.855  0.00  0.00     0.013 A 
ATOM     36  C29 QG9 d          17.083  18.905  10.318  0.00  0.00    -0.026 A 
ATOM     37  C34 QG9 d          15.781  19.558  10.079  0.00  0.00     0.013 A 
ATOM     38  C33 QG9 d          15.693  20.854   9.416  0.00  0.00     0.010 A 
BRANCH  36  39
ATOM     39  C28 QG9 d          17.198  17.549  11.013  0.00  0.00    -0.023 A 
ATOM     40  C54 QG9 d          18.501  17.018  11.190  0.00  0.00     0.031 A 
ATOM     41  C53 QG9 d          18.688  15.787  11.816  0.00  0.00     0.117 A 
ATOM     42  N52 QG9 d          17.578  15.005  12.304  0.00  0.00    -0.273 NA
ATOM     43  C51 QG9 d          16.230  15.523  12.136  0.00  0.00     0.117 A 
ATOM     44  C50 QG9 d          16.032  16.796  11.487  0.00  0.00     0.031 A 
ENDBRANCH  36  39
ENDBRANCH  32  33
ENDBRANCH   1  32
BRANCH   1  45
ATOM     45  N37 QG9 d          16.244  21.885   6.197  0.00  0.00    -0.185 N 
ATOM     46  C38 QG9 d          15.507  20.867   5.716  0.00  0.00     0.265 C 
ATOM     47  O49 QG9 d          14.346  20.621   6.077  0.00  0.00    -0.269 OA
ATOM     48  H32 QG9 d          17.170  22.000   5.838  0.00  0.00     0.197 HD
BRANCH  46  49
ATOM     49  C39 QG9 d          16.293  20.042   4.695  0.00  0.00     0.188 C 
BRANCH  49  50
ATOM     50  N40 QG9 d          17.076  19.157   5.595  0.00  0.00    -0.323 N 
ATOM     51  C41 QG9 d          18.456  19.270   5.774  0.00  0.00     0.360 C 
ATOM     52  O44 QG9 d          19.168  20.105   5.201  0.00  0.00    -0.239 OA
ATOM     53  H34 QG9 d          16.590  18.443   6.099  0.00  0.00     0.165 HD
BRANCH  51  54
ATOM     54  O42 QG9 d          18.877  18.341   6.662  0.00  0.00    -0.309 OA
ATOM     55  C43 QG9 d          20.262  18.266   7.012  0.00  0.00     0.215 C 
ENDBRANCH  51  54
ENDBRANCH  49  50
BRANCH  49  56
ATOM     56  C45 QG9 d          15.534  19.224   3.568  0.00  0.00    -0.022 C 
ATOM     57  C46 QG9 d          14.575  18.142   4.121  0.00  0.00     0.017 C 
ATOM     58  C47 QG9 d          14.743  20.196   2.661  0.00  0.00     0.017 C 
ATOM     59  C48 QG9 d          16.559  18.493   2.652  0.00  0.00     0.017 C 
ENDBRANCH  49  56
ENDBRANCH  46  49
ENDBRANCH   1  45
TORSDOF 17
