REMARK  2 active torsions:
REMARK  status: ('A' for Active; 'I' for Inactive)
REMARK    1  A    between atoms: O1_1  and  C1_2 
REMARK    2  A    between atoms: C2_8  and  S1_9 
ROOT
ATOM      1  C1  HT4 d          14.673   2.144  16.888  0.00  0.00     0.082 A 
ATOM      2  C6  HT4 d          14.248   3.430  16.712  0.00  0.00     0.038 A 
ATOM      3  C5  HT4 d          14.747   4.188  15.635  0.00  0.00     0.009 A 
ATOM      4  C4  HT4 d          15.661   3.625  14.768  0.00  0.00    -0.061 A 
ATOM      5  C7  HT4 d          16.161   4.369  13.698  0.00  0.00     0.048 C 
ATOM      6  C3  HT4 d          16.090   2.290  14.967  0.00  0.00     0.027 A 
ATOM      7  C2  HT4 d          15.589   1.562  16.028  0.00  0.00     0.031 A 
ENDROOT
BRANCH   1   8
ATOM      8  O1  HT4 d          14.214   1.366  17.922  0.00  0.00    -0.359 OA
ATOM      9  H1  HT4 d          14.622   0.509  17.878  0.00  0.00     0.217 HD
ENDBRANCH   1   8
BRANCH   7  10
ATOM     10  S1  HT4 d          16.133  -0.157  16.295  0.00  0.00    -0.140 SA
ATOM     11  H8  HT4 d          15.670  -0.532  17.108  0.00  0.00     0.107 HD
ENDBRANCH   7  10
TORSDOF 2
