REMARK  19 active torsions:
REMARK  status: ('A' for Active; 'I' for Inactive)
REMARK    1  A    between atoms: CA1_2  and  N1_1 
REMARK    2  A    between atoms: CA1_2  and  C1_3 
REMARK    3  A    between atoms: CB1_6  and  CA1_2 
REMARK    4  A    between atoms: CG1_7  and  CB1_6 
REMARK    5  A    between atoms: CD1_8  and  CG1_7 
REMARK       I    between atoms: N2_10  and  CD1_8 
REMARK    6  A    between atoms: CA2_11  and  N2_10 
REMARK    7  A    between atoms: CA2_11  and  C2_12 
REMARK    8  A    between atoms: CB2_14  and  CA2_11 
REMARK       I    between atoms: C2_12  and  N3_16 
REMARK    9  A    between atoms: SG2_15  and  CB2_14 
REMARK   10  A    between atoms: C11_35  and  SG2_15 
REMARK   11  A    between atoms: N3_16  and  CA3_17 
REMARK   12  A    between atoms: CA3_17  and  C3_18 
REMARK   13  A    between atoms: C1_21  and  O2_22 
REMARK   14  A    between atoms: O2_22  and  C12_36 
REMARK   15  A    between atoms: C7_30  and  C4_27 
REMARK   16  A    between atoms: C8_32  and  C7_30 
REMARK   17  A    between atoms: C8_32  and  C9_33 
REMARK   18  A    between atoms: C11_35  and  C8_32 
REMARK   19  A    between atoms: C12_36  and  C13_37 
ROOT
ATOM      1  CA2 GTT d           9.740   7.383  27.360  0.00  0.00     0.185 C 
ENDROOT
BRANCH   1   2
ATOM      2  N2  GTT d          11.120   7.756  27.110  0.00  0.00    -0.347 N 
ATOM      3  CD1 GTT d          11.513   8.127  25.904  0.00  0.00     0.218 C 
ATOM      4  OE1 GTT d          10.759   8.125  24.938  0.00  0.00    -0.274 OA
ATOM      5  H9  GTT d          11.782   7.732  27.859  0.00  0.00     0.163 HD
BRANCH   3   6
ATOM      6  CG1 GTT d          12.962   8.524  25.769  0.00  0.00     0.105 C 
BRANCH   6   7
ATOM      7  CB1 GTT d          13.218   9.352  24.534  0.00  0.00     0.053 C 
BRANCH   7   8
ATOM      8  CA1 GTT d          14.589  10.018  24.518  0.00  0.00     0.283 C 
BRANCH   8   9
ATOM      9  N1  GTT d          14.706  10.882  23.329  0.00  0.00    -0.065 N 
ATOM     10  H1  GTT d          13.988  11.589  23.356  0.00  0.00     0.275 HD
ATOM     11  H2  GTT d          14.598  10.324  22.496  0.00  0.00     0.275 HD
ATOM     12  H3  GTT d          15.612  11.323  23.322  0.00  0.00     0.275 HD
ENDBRANCH   8   9
BRANCH   8  13
ATOM     13  C1  GTT d          15.690   8.974  24.428  0.00  0.00     0.204 C 
ATOM     14  O11 GTT d          16.105   8.444  25.475  0.00  0.00    -0.646 OA
ATOM     15  O12 GTT d          16.161   8.721  23.297  0.00  0.00    -0.646 OA
ENDBRANCH   8  13
ENDBRANCH   7   8
ENDBRANCH   6   7
ENDBRANCH   3   6
ENDBRANCH   1   2
BRANCH   1  16
ATOM     16  C2  GTT d           9.373   7.764  28.782  0.00  0.00     0.241 C 
ATOM     17  O2  GTT d          10.251   7.977  29.620  0.00  0.00    -0.271 OA
ATOM     18  N3  GTT d           8.074   7.849  29.042  0.00  0.00    -0.349 N 
ATOM     19  H13 GTT d           7.413   7.647  28.320  0.00  0.00     0.163 HD
BRANCH  18  20
ATOM     20  CA3 GTT d           7.600   8.230  30.356  0.00  0.00     0.235 C 
BRANCH  20  21
ATOM     21  C3  GTT d           6.927   9.589  30.268  0.00  0.00     0.191 C 
ATOM     22  O31 GTT d           6.176   9.941  31.190  0.00  0.00    -0.647 OA
ATOM     23  O32 GTT d           7.124  10.301  29.262  0.00  0.00    -0.647 OA
ENDBRANCH  20  21
ENDBRANCH  18  20
ENDBRANCH   1  16
BRANCH   1  24
ATOM     24  CB2 GTT d           9.525   5.893  27.114  0.00  0.00     0.108 C 
BRANCH  24  25
ATOM     25  SG2 GTT d          10.267   4.849  28.347  0.00  0.00    -0.166 SA
BRANCH  25  26
ATOM     26  C11 GTT d           9.863   3.171  27.840  0.00  0.00     0.086 C 
BRANCH  26  27
ATOM     27  C8  GTT d           8.357   2.946  27.589  0.00  0.00     0.069 C 
BRANCH  27  28
ATOM     28  C7  GTT d           7.859   3.376  26.153  0.00  0.00     0.166 C 
ATOM     29  O1  GTT d           8.665   3.156  25.247  0.00  0.00    -0.292 OA
BRANCH  28  30
ATOM     30  C4  GTT d           6.494   4.020  25.896  0.00  0.00     0.034 A 
ATOM     31  C3  GTT d           6.252   4.913  24.801  0.00  0.00     0.072 A 
ATOM     32  C2  GTT d           4.950   5.422  24.578  0.00  0.00     0.090 A 
ATOM     33 CL2  GTT d           7.549   5.418  23.694  0.00  0.00    -0.081 Cl
ATOM     34  C1  GTT d           3.886   5.069  25.444  0.00  0.00     0.092 A 
ATOM     35 CL1  GTT d           4.647   6.501  23.201  0.00  0.00    -0.080 Cl
ATOM     36  C6  GTT d           4.136   4.199  26.517  0.00  0.00     0.039 A 
ATOM     37  C5  GTT d           5.410   3.688  26.744  0.00  0.00     0.020 A 
BRANCH  34  38
ATOM     38  O2  GTT d           2.631   5.587  25.157  0.00  0.00    -0.339 OA
BRANCH  38  39
ATOM     39  C12 GTT d           1.537   4.807  24.582  0.00  0.00     0.288 C 
BRANCH  39  40
ATOM     40  C13 GTT d           0.746   5.547  23.508  0.00  0.00     0.198 C 
ATOM     41  O   GTT d          -0.473   5.296  23.380  0.00  0.00    -0.646 OA
ATOM     42  OXT GTT d           1.327   6.421  22.818  0.00  0.00    -0.646 OA
ENDBRANCH  39  40
ENDBRANCH  38  39
ENDBRANCH  34  38
ENDBRANCH  28  30
ENDBRANCH  27  28
BRANCH  27  43
ATOM     43  C9  GTT d           7.864   1.548  28.014  0.00  0.00     0.009 C 
ATOM     44  C10 GTT d           8.388   0.960  29.319  0.00  0.00     0.006 C 
ENDBRANCH  27  43
ENDBRANCH  26  27
ENDBRANCH  25  26
ENDBRANCH  24  25
ENDBRANCH   1  24
TORSDOF 19
