REMARK  4 active torsions:
REMARK  status: ('A' for Active; 'I' for Inactive)
REMARK    1  A    between atoms: C13_4  and  O17_5 
REMARK    2  A    between atoms: C14_8  and  O16_9 
REMARK    3  A    between atoms: C5_17  and  O20_18 
REMARK    4  A    between atoms: C6_19  and  O15_20 
ROOT
ATOM      1  O18 TXQ d          21.346   9.237  18.707  0.00  0.00    -0.286 OA
ATOM      2  C9  TXQ d          22.103   8.255  18.547  0.00  0.00     0.197 A 
ATOM      3  C8  TXQ d          22.369   7.327  19.694  0.00  0.00     0.065 A 
ATOM      4  C13 TXQ d          21.770   7.549  20.940  0.00  0.00     0.081 A 
ATOM      5  C12 TXQ d          22.020   6.686  22.007  0.00  0.00     0.040 A 
ATOM      6  C11 TXQ d          22.868   5.585  21.828  0.00  0.00     0.040 A 
ATOM      7  C14 TXQ d          23.459   5.364  20.581  0.00  0.00     0.081 A 
ATOM      8  C7  TXQ d          23.216   6.231  19.515  0.00  0.00     0.065 A 
ATOM      9  C10 TXQ d          23.850   5.990  18.181  0.00  0.00     0.200 A 
ATOM     10  O19 TXQ d          24.598   5.002  18.008  0.00  0.00    -0.286 OA
ATOM     11  C2  TXQ d          22.732   8.022  17.218  0.00  0.00     0.032 A 
ATOM     12  C1  TXQ d          23.579   6.922  17.046  0.00  0.00     0.065 A 
ATOM     13  C3  TXQ d          22.488   8.895  16.147  0.00  0.00     0.019 A 
ATOM     14  C4  TXQ d          23.085   8.655  14.899  0.00  0.00     0.040 A 
ATOM     15  C5  TXQ d          23.925   7.551  14.735  0.00  0.00     0.099 A 
ATOM     16  C6  TXQ d          24.165   6.690  15.799  0.00  0.00     0.114 A 
ENDROOT
BRANCH   4  17
ATOM     17  O17 TXQ d          20.950   8.627  21.112  0.00  0.00    -0.360 OA
ATOM     18  H1  TXQ d          20.219   8.567  20.509  0.00  0.00     0.217 HD
ENDBRANCH   4  17
BRANCH   7  19
ATOM     19  O16 TXQ d          24.284   4.296  20.393  0.00  0.00    -0.360 OA
ATOM     20  H4  TXQ d          24.598   4.294  19.496  0.00  0.00     0.217 HD
ENDBRANCH   7  19
BRANCH  16  21
ATOM     21  O15 TXQ d          24.986   5.621  15.625  0.00  0.00    -0.357 OA
ATOM     22  H8  TXQ d          25.047   5.135  16.439  0.00  0.00     0.217 HD
ENDBRANCH  16  21
BRANCH  15  23
ATOM     23  O20 TXQ d          24.516   7.293  13.534  0.00  0.00    -0.358 OA
ATOM     24  H7  TXQ d          25.048   6.509  13.606  0.00  0.00     0.217 HD
ENDBRANCH  15  23
TORSDOF 4
