REMARK  12 active torsions:
REMARK  status: ('A' for Active; 'I' for Inactive)
REMARK    1  A    between atoms: C24_2  and  C23_4 
REMARK    2  A    between atoms: C23_4  and  C25_5 
REMARK    3  A    between atoms: C23_4  and  N2_15 
REMARK    4  A    between atoms: C25_5  and  C26_6 
REMARK       I    between atoms: N2_15  and  C19_16 
REMARK    5  A    between atoms: C19_16  and  C18_18 
REMARK    6  A    between atoms: C17_22  and  P1_23 
REMARK    7  A    between atoms: P1_23  and  C9_26 
REMARK    8  A    between atoms: C9_26  and  C10_27 
REMARK    9  A    between atoms: C10_27  and  C11_28 
REMARK       I    between atoms: N1_34  and  C1_35 
REMARK   10  A    between atoms: C1_35  and  O1_37 
REMARK   11  A    between atoms: O1_37  and  C2_38 
REMARK   12  A    between atoms: C2_38  and  C3_39 
ROOT
ATOM      1  C18 RX3 d          27.776   3.822  23.684  0.00  0.00     0.092 C 
ATOM      2  C20 RX3 d          27.227   4.892  24.627  0.00  0.00     0.015 C 
ATOM      3  C21 RX3 d          26.007   4.303  25.331  0.00  0.00     0.002 C 
ATOM      4  C22 RX3 d          26.085   2.786  25.176  0.00  0.00     0.016 C 
ATOM      5  C17 RX3 d          26.872   2.641  23.911  0.00  0.00     0.092 C 
ENDROOT
BRANCH   5   6
ATOM      6  P1  RX3 d          26.599   1.426  22.729  0.00  0.00     0.135 P 
ATOM      7  O3  RX3 d          27.590   1.635  21.600  0.00  0.00    -0.666 OA
ATOM      8  O4  RX3 d          25.195   1.725  22.308  0.00  0.00    -0.666 OA
BRANCH   6   9
ATOM      9  C9  RX3 d          26.847  -0.264  23.080  0.00  0.00     0.183 C 
ATOM     10  N1  RX3 d          26.192  -1.171  22.311  0.00  0.00    -0.322 N 
ATOM     11  C1  RX3 d          25.093  -1.824  21.945  0.00  0.00     0.361 C 
ATOM     12  H27 RX3 d          26.902  -1.537  21.710  0.00  0.00     0.165 HD
ATOM     13  O2  RX3 d          24.067  -1.891  22.587  0.00  0.00    -0.238 OA
BRANCH   9  14
ATOM     14  C10 RX3 d          27.715  -0.805  24.208  0.00  0.00     0.074 C 
BRANCH  14  15
ATOM     15  C11 RX3 d          27.638  -2.326  24.321  0.00  0.00    -0.056 A 
ATOM     16  C13 RX3 d          26.919  -2.903  25.379  0.00  0.00     0.007 A 
ATOM     17  C15 RX3 d          26.817  -4.300  25.498  0.00  0.00     0.001 A 
ATOM     18  C16 RX3 d          27.431  -5.137  24.550  0.00  0.00     0.000 A 
ATOM     19  C14 RX3 d          28.143  -4.574  23.479  0.00  0.00     0.001 A 
ATOM     20  C12 RX3 d          28.243  -3.178  23.370  0.00  0.00     0.007 A 
ENDBRANCH  14  15
ENDBRANCH   9  14
BRANCH  11  21
ATOM     21  O1  RX3 d          25.125  -2.503  20.667  0.00  0.00    -0.299 OA
BRANCH  21  22
ATOM     22  C2  RX3 d          23.981  -2.686  19.840  0.00  0.00     0.219 C 
BRANCH  22  23
ATOM     23  C3  RX3 d          24.407  -3.381  18.560  0.00  0.00    -0.034 A 
ATOM     24  C4  RX3 d          25.298  -2.756  17.675  0.00  0.00     0.009 A 
ATOM     25  C6  RX3 d          25.681  -3.413  16.498  0.00  0.00     0.001 A 
ATOM     26  C8  RX3 d          25.168  -4.686  16.192  0.00  0.00     0.000 A 
ATOM     27  C7  RX3 d          24.279  -5.310  17.072  0.00  0.00     0.001 A 
ATOM     28  C5  RX3 d          23.897  -4.656  18.254  0.00  0.00     0.009 A 
ENDBRANCH  22  23
ENDBRANCH  21  22
ENDBRANCH  11  21
ENDBRANCH   6   9
ENDBRANCH   5   6
BRANCH   1  29
ATOM     29  C19 RX3 d          29.233   3.581  23.964  0.00  0.00     0.223 C 
ATOM     30  N2  RX3 d          30.012   4.570  23.521  0.00  0.00    -0.346 N 
ATOM     31  H10 RX3 d          29.576   5.341  23.056  0.00  0.00     0.163 HD
ATOM     32  O5  RX3 d          29.630   2.564  24.547  0.00  0.00    -0.273 OA
BRANCH  30  33
ATOM     33  C23 RX3 d          31.465   4.593  23.675  0.00  0.00     0.189 C 
BRANCH  33  34
ATOM     34  C24 RX3 d          31.893   4.710  25.125  0.00  0.00     0.197 C 
ATOM     35  OXT RX3 d          33.100   4.566  25.402  0.00  0.00    -0.646 OA
ATOM     36  O6  RX3 d          31.041   4.946  26.018  0.00  0.00    -0.646 OA
ENDBRANCH  33  34
BRANCH  33  37
ATOM     37  C25 RX3 d          31.983   5.762  22.824  0.00  0.00     0.077 C 
BRANCH  37  38
ATOM     38  C26 RX3 d          31.415   7.117  23.183  0.00  0.00    -0.028 A 
ATOM     39  C28 RX3 d          30.465   7.845  22.478  0.00  0.00    -0.002 A 
ATOM     40  C30 RX3 d          29.786   7.553  21.282  0.00  0.00     0.014 A 
ATOM     41  C29 RX3 d          30.231   9.038  23.177  0.00  0.00     0.042 A 
ATOM     42  C32 RX3 d          28.862   8.481  20.786  0.00  0.00     0.001 A 
ATOM     43  C33 RX3 d          28.619   9.681  21.470  0.00  0.00     0.002 A 
ATOM     44  C31 RX3 d          29.296   9.967  22.668  0.00  0.00     0.030 A 
ATOM     45  N3  RX3 d          31.024   9.034  24.280  0.00  0.00    -0.365 N 
ATOM     46  C27 RX3 d          31.743   7.882  24.299  0.00  0.00     0.096 A 
ATOM     47  H8  RX3 d          31.072   9.782  24.986  0.00  0.00     0.165 HD
ENDBRANCH  37  38
ENDBRANCH  33  37
ENDBRANCH  30  33
ENDBRANCH   1  29
TORSDOF 12
