REMARK  6 active torsions:
REMARK  status: ('A' for Active; 'I' for Inactive)
REMARK    1  A    between atoms: N1_2  and  C1_1 
REMARK    2  A    between atoms: C2_3  and  O2_5 
REMARK    3  A    between atoms: C9_17  and  N3_8 
REMARK    4  A    between atoms: C4_9  and  O4_10 
REMARK    5  A    between atoms: C5_11  and  C6_13 
REMARK    6  A    between atoms: C6_13  and  O6_14 
ROOT
ATOM      1  C1  DKZ d          33.524  23.075  27.944  0.00  0.00     0.264 C 
ATOM      2  C2  DKZ d          33.920  23.254  26.466  0.00  0.00     0.204 C 
ATOM      3  C3  DKZ d          32.903  22.518  25.564  0.00  0.00     0.234 C 
ATOM      4  F3  DKZ d          33.366  22.466  24.270  0.00  0.00    -0.244 F 
ATOM      5  C4  DKZ d          32.627  21.076  26.055  0.00  0.00     0.185 C 
ATOM      6  C5  DKZ d          32.437  20.964  27.587  0.00  0.00     0.179 C 
ATOM      7  O5  DKZ d          33.508  21.649  28.284  0.00  0.00    -0.353 OA
ENDROOT
BRANCH   1   8
ATOM      8  N1  DKZ d          34.443  23.619  28.970  0.00  0.00    -0.278 N 
ATOM      9  C7  DKZ d          35.848  23.510  28.848  0.00  0.00     0.102 A 
ATOM     10  C8  DKZ d          36.658  24.025  29.860  0.00  0.00     0.067 A 
ATOM     11  C9  DKZ d          36.032  24.614  30.969  0.00  0.00     0.128 A 
ATOM     12  N2  DKZ d          34.685  24.695  31.067  0.00  0.00    -0.177 NA
ATOM     13  C10 DKZ d          33.878  24.203  30.105  0.00  0.00     0.352 A 
ATOM     14  O10 DKZ d          32.645  24.280  30.202  0.00  0.00    -0.244 OA
BRANCH  11  15
ATOM     15  N3  DKZ d          36.769  25.102  31.963  0.00  0.00    -0.384 N 
ATOM     16  H3  DKZ d          37.797  25.053  31.914  0.00  0.00     0.157 HD
ATOM     17  H6  DKZ d          36.312  25.529  32.782  0.00  0.00     0.157 HD
ENDBRANCH  11  15
ENDBRANCH   1   8
BRANCH   2  18
ATOM     18  O2  DKZ d          34.022  24.658  26.123  0.00  0.00    -0.388 OA
ATOM     19  H4  DKZ d          34.267  24.743  25.209  0.00  0.00     0.210 HD
ENDBRANCH   2  18
BRANCH   6  20
ATOM     20  C6  DKZ d          32.440  19.497  28.060  0.00  0.00     0.198 C 
BRANCH  20  21
ATOM     21  O6  DKZ d          33.558  18.817  27.471  0.00  0.00    -0.398 OA
ATOM     22  H12 DKZ d          33.565  17.912  27.759  0.00  0.00     0.209 HD
ENDBRANCH  20  21
ENDBRANCH   6  20
BRANCH   5  23
ATOM     23  O4  DKZ d          31.453  20.598  25.407  0.00  0.00    -0.390 OA
ATOM     24  H8  DKZ d          31.270  19.712  25.698  0.00  0.00     0.210 HD
ENDBRANCH   5  23
TORSDOF 6
