REMARK  10 active torsions:
REMARK  status: ('A' for Active; 'I' for Inactive)
REMARK    1  A    between atoms: N10_10  and  C1_1 
REMARK    2  A    between atoms: C2_2  and  O3_3 
REMARK    3  A    between atoms: C4_4  and  O5_5 
REMARK    4  A    between atoms: C6_6  and  C14_14 
REMARK    5  A    between atoms: C15_15  and  C16_16 
REMARK    6  A    between atoms: C16_16  and  N17_17 
REMARK       I    between atoms: N17_17  and  C18_18 
REMARK    7  A    between atoms: C18_18  and  C20_20 
REMARK    8  A    between atoms: C22_22  and  C24_24 
REMARK    9  A    between atoms: C31_31  and  O32_32 
REMARK   10  A    between atoms: C33_33  and  O34_34 
ROOT
ATOM      1  C16 MOL d          -2.896  16.262  13.559  0.00  0.00     0.150 C 
ENDROOT
BRANCH   1   2
ATOM      2  C15 MOL d          -2.571  17.695  13.734  0.00  0.00    -0.009 C 
ATOM      3  C14 MOL d          -3.260  18.453  14.548  0.00  0.00     0.005 C 
BRANCH   3   4
ATOM      4  C6  MOL d          -2.910  19.912  14.636  0.00  0.00     0.178 C 
ATOM      5  C4  MOL d          -3.608  20.467  15.868  0.00  0.00     0.183 C 
ATOM      6  C2  MOL d          -4.964  20.793  15.238  0.00  0.00     0.199 C 
ATOM      7  C1  MOL d          -4.552  21.358  13.870  0.00  0.00     0.262 C 
ATOM      8  O13 MOL d          -3.399  20.623  13.449  0.00  0.00    -0.352 OA
BRANCH   5   9
ATOM      9  O5  MOL d          -2.875  21.638  16.256  0.00  0.00    -0.390 OA
ATOM     10  H5  MOL d          -3.380  22.129  16.893  0.00  0.00     0.210 HD
ENDBRANCH   5   9
BRANCH   6  11
ATOM     11  O3  MOL d          -5.694  21.802  15.952  0.00  0.00    -0.388 OA
ATOM     12  H3  MOL d          -5.142  22.566  16.071  0.00  0.00     0.210 HD
ENDBRANCH   6  11
BRANCH   7  13
ATOM     13  N10 MOL d          -5.617  21.197  12.862  0.00  0.00    -0.294 N 
ATOM     14  C9  MOL d          -6.249  19.983  12.492  0.00  0.00     0.214 A 
ATOM     15  N8  MOL d          -7.070  20.157  11.508  0.00  0.00    -0.238 NA
ATOM     16  C12 MOL d          -6.988  21.464  11.167  0.00  0.00     0.128 A 
ATOM     17  C11 MOL d          -6.120  22.150  11.997  0.00  0.00     0.165 A 
ATOM     18  C35 MOL d          -7.678  22.213  10.196  0.00  0.00     0.064 A 
ATOM     19  N40 MOL d          -5.810  23.456  11.905  0.00  0.00    -0.222 NA
ATOM     20  C39 MOL d          -6.484  24.112  10.960  0.00  0.00     0.235 A 
ATOM     21  N38 MOL d          -7.392  23.520  10.117  0.00  0.00    -0.244 NA
ATOM     22  C7  MOL d          -8.735  21.630   9.280  0.00  0.00     0.073 C 
ENDBRANCH   7  13
ENDBRANCH   3   4
ENDBRANCH   1   2
BRANCH   1  23
ATOM     23  N17 MOL d          -1.576  15.645  13.680  0.00  0.00    -0.353 N 
ATOM     24  C18 MOL d          -1.605  14.383  14.203  0.00  0.00     0.254 C 
ATOM     25  O19 MOL d          -2.665  13.892  14.602  0.00  0.00    -0.268 OA
ATOM     26  H15 MOL d          -0.731  16.104  13.406  0.00  0.00     0.163 HD
BRANCH  24  27
ATOM     27  C20 MOL d          -0.316  13.730  14.441  0.00  0.00     0.068 A 
ATOM     28  C21 MOL d          -0.328  12.535  15.186  0.00  0.00     0.032 A 
ATOM     29  C22 MOL d           0.853  11.832  15.424  0.00  0.00    -0.022 A 
ATOM     30  C23 MOL d           2.097  12.292  14.948  0.00  0.00     0.051 A 
ATOM     31  C33 MOL d           2.078  13.483  14.213  0.00  0.00     0.100 A 
ATOM     32  C31 MOL d           0.898  14.165  13.915  0.00  0.00     0.114 A 
BRANCH  29  33
ATOM     33  C24 MOL d           0.763  10.578  16.232  0.00  0.00    -0.026 A 
ATOM     34  C25 MOL d          -0.140  10.537  17.275  0.00  0.00     0.015 A 
ATOM     35  C26 MOL d          -0.185   9.364  18.023  0.00  0.00     0.043 A 
ATOM     36  C29 MOL d           0.669   8.332  17.638  0.00  0.00     0.116 A 
ATOM     37  C28 MOL d           1.596   8.367  16.628  0.00  0.00     0.043 A 
ATOM     38  F30 MOL d           0.710   7.128  18.345  0.00  0.00    -0.206 F 
ATOM     39  C27 MOL d           1.605   9.548  15.874  0.00  0.00     0.015 A 
ENDBRANCH  29  33
BRANCH  31  40
ATOM     40  O34 MOL d           3.302  13.958  13.730  0.00  0.00    -0.358 OA
ATOM     41  H23 MOL d           4.000  13.383  14.021  0.00  0.00     0.217 HD
ENDBRANCH  31  40
BRANCH  32  42
ATOM     42  O32 MOL d           1.020  15.321  13.211  0.00  0.00    -0.357 OA
ATOM     43  H22 MOL d           1.925  15.433  12.943  0.00  0.00     0.217 HD
ENDBRANCH  32  42
ENDBRANCH  24  27
ENDBRANCH   1  23
TORSDOF 10
