REMARK  6 active torsions:
REMARK  status: ('A' for Active; 'I' for Inactive)
REMARK    1  A    between atoms: P_1  and  O5'_6 
REMARK    2  A    between atoms: O5'_6  and  C5'_7 
REMARK    3  A    between atoms: C5'_7  and  C4'_8 
REMARK    4  A    between atoms: C3'_10  and  O3'_11 
REMARK    5  A    between atoms: C2'_12  and  O2'_13 
REMARK    6  A    between atoms: C1'_14  and  C9_15 
ROOT
ATOM      1  C4' IMU d          10.030  85.606  42.298  0.00  0.00     0.242 C 
ATOM      2  N4' IMU d           8.802  84.889  42.226  0.00  0.00    -0.055 N 
ATOM      3  C3' IMU d           9.897  86.741  43.248  0.00  0.00     0.182 C 
ATOM      4  C2' IMU d           8.599  86.446  43.942  0.00  0.00     0.184 C 
ATOM      5  C1' IMU d           7.872  85.267  43.233  0.00  0.00     0.254 C 
ATOM      6  H4  IMU d           8.999  83.906  42.325  0.00  0.00     0.278 HD
ATOM      7  H5  IMU d           8.384  85.059  41.324  0.00  0.00     0.278 HD
ENDROOT
BRANCH   5   8
ATOM      8  C9  IMU d           7.763  84.095  44.218  0.00  0.00     0.022 A 
ATOM      9  C8  IMU d           8.661  83.015  44.330  0.00  0.00     0.100 A 
ATOM     10  N7  IMU d           8.377  82.143  45.253  0.00  0.00    -0.359 N 
ATOM     11  C5  IMU d           7.211  82.635  45.840  0.00  0.00     0.131 A 
ATOM     12  H12 IMU d           8.895  81.286  45.495  0.00  0.00     0.165 HD
ATOM     13  C6  IMU d           6.441  82.094  46.926  0.00  0.00     0.288 A 
ATOM     14  C4  IMU d           6.807  83.829  45.217  0.00  0.00     0.118 A 
ATOM     15  O6  IMU d           6.676  81.069  47.558  0.00  0.00    -0.265 OA
ATOM     16  N1  IMU d           5.309  82.866  47.239  0.00  0.00    -0.153 N 
ATOM     17  C2  IMU d           4.950  84.060  46.572  0.00  0.00     0.701 A 
ATOM     18  H13 IMU d           4.719  82.550  47.982  0.00  0.00     0.187 HD
ATOM     19  N3  IMU d           5.689  84.585  45.544  0.00  0.00    -0.062 NA
ATOM     20  N2  IMU d           3.842  84.686  46.981  0.00  0.00    -0.233 N 
ATOM     21  H14 IMU d           3.545  85.559  46.522  0.00  0.00     0.174 HD
ATOM     22  H15 IMU d           3.286  84.296  47.755  0.00  0.00     0.174 HD
ENDBRANCH   5   8
BRANCH   4  23
ATOM     23  O2' IMU d           7.748  87.589  43.985  0.00  0.00    -0.390 OA
ATOM     24  H9  IMU d           7.555  87.872  43.099  0.00  0.00     0.210 HD
ENDBRANCH   4  23
BRANCH   1  25
ATOM     25  C5' IMU d          11.122  84.726  42.753  0.00  0.00     0.218 C 
BRANCH  25  26
ATOM     26  O5' IMU d          11.122  83.614  41.886  0.00  0.00    -0.281 OA
BRANCH  26  27
ATOM     27  P   IMU d          12.330  82.907  41.267  0.00  0.00     0.422 P 
ATOM     28  O1P IMU d          13.445  82.987  42.238  0.00  0.00    -0.617 OA
ATOM     29  O2P IMU d          12.642  83.475  39.951  0.00  0.00    -0.617 OA
ATOM     30  O3P IMU d          11.831  81.514  41.186  0.00  0.00    -0.617 OA
ENDBRANCH  26  27
ENDBRANCH  25  26
ENDBRANCH   1  25
BRANCH   3  31
ATOM     31  O3' IMU d           9.897  87.936  42.484  0.00  0.00    -0.391 OA
ATOM     32  H7  IMU d           9.813  88.682  43.066  0.00  0.00     0.210 HD
ENDBRANCH   3  31
TORSDOF 6
