REMARK  10 active torsions:
REMARK  status: ('A' for Active; 'I' for Inactive)
REMARK    1  A    between atoms: C1_1  and  O1_2 
REMARK    2  A    between atoms: O1_2  and  P1_13 
REMARK    3  A    between atoms: C2_3  and  O2_4 
REMARK    4  A    between atoms: C3_5  and  O3_6 
REMARK    5  A    between atoms: O3_6  and  P3_17 
REMARK    6  A    between atoms: C4_7  and  O4_8 
REMARK    7  A    between atoms: O4_8  and  P4_21 
REMARK    8  A    between atoms: C5_9  and  O5_10 
REMARK    9  A    between atoms: O5_10  and  P5_25 
REMARK   10  A    between atoms: C6_11  and  O6_12 
ROOT
ATOM      1  C1  ITS d          -1.979   4.550  38.731  0.00  0.00     0.198 C 
ATOM      2  C2  ITS d          -0.850   5.425  39.184  0.00  0.00     0.182 C 
ATOM      3  C3  ITS d           0.324   4.869  38.473  0.00  0.00     0.199 C 
ATOM      4  C4  ITS d           0.182   5.017  36.923  0.00  0.00     0.200 C 
ATOM      5  C5  ITS d          -0.905   4.136  36.476  0.00  0.00     0.199 C 
ATOM      6  C6  ITS d          -2.186   4.500  37.210  0.00  0.00     0.182 C 
ENDROOT
BRANCH   1   7
ATOM      7  O1  ITS d          -3.305   4.620  39.446  0.00  0.00    -0.272 OA
BRANCH   7   8
ATOM      8  P1  ITS d          -3.813   3.627  40.670  0.00  0.00     0.422 P 
ATOM      9  OP3 ITS d          -4.012   2.448  39.766  0.00  0.00    -0.617 OA
ATOM     10  OP2 ITS d          -2.698   3.460  41.639  0.00  0.00    -0.617 OA
ATOM     11  OP1 ITS d          -4.981   4.224  41.323  0.00  0.00    -0.617 OA
ENDBRANCH   7   8
ENDBRANCH   1   7
BRANCH   6  12
ATOM     12  O6  ITS d          -3.042   3.427  36.993  0.00  0.00    -0.390 OA
ATOM     13  H8  ITS d          -3.870   3.591  37.429  0.00  0.00     0.210 HD
ENDBRANCH   6  12
BRANCH   2  14
ATOM     14  O2  ITS d          -1.042   6.838  38.899  0.00  0.00    -0.390 OA
ATOM     15  H3  ITS d          -1.802   7.155  39.372  0.00  0.00     0.210 HD
ENDBRANCH   2  14
BRANCH   5  16
ATOM     16  O5  ITS d          -1.112   4.372  35.038  0.00  0.00    -0.272 OA
BRANCH  16  17
ATOM     17  P5  ITS d          -0.722   3.462  33.751  0.00  0.00     0.422 P 
ATOM     18  OP9 ITS d          -1.984   3.466  33.063  0.00  0.00    -0.617 OA
ATOM     19  OP8 ITS d          -0.356   2.159  34.235  0.00  0.00    -0.617 OA
ATOM     20  OP7 ITS d           0.314   4.297  33.141  0.00  0.00    -0.617 OA
ENDBRANCH  16  17
ENDBRANCH   5  16
BRANCH   3  21
ATOM     21  O3  ITS d           1.501   5.420  39.004  0.00  0.00    -0.272 OA
BRANCH  21  22
ATOM     22  P3  ITS d           2.605   4.551  39.638  0.00  0.00     0.422 P 
ATOM     23  O12 ITS d           3.090   3.748  38.560  0.00  0.00    -0.617 OA
ATOM     24  O11 ITS d           1.806   3.786  40.573  0.00  0.00    -0.617 OA
ATOM     25  O10 ITS d           3.463   5.573  40.073  0.00  0.00    -0.617 OA
ENDBRANCH  21  22
ENDBRANCH   3  21
BRANCH   4  26
ATOM     26  O4  ITS d           1.361   4.513  36.319  0.00  0.00    -0.272 OA
BRANCH  26  27
ATOM     27  P4  ITS d           2.381   5.322  35.553  0.00  0.00     0.422 P 
ATOM     28  OP6 ITS d           2.282   4.779  34.229  0.00  0.00    -0.617 OA
ATOM     29  OP5 ITS d           3.658   5.040  36.254  0.00  0.00    -0.617 OA
ATOM     30  OP4 ITS d           1.891   6.714  35.678  0.00  0.00    -0.617 OA
ENDBRANCH  26  27
ENDBRANCH   4  26
TORSDOF 10
