REMARK  4 active torsions:
REMARK  status: ('A' for Active; 'I' for Inactive)
REMARK    1  A    between atoms: S_2  and  N1_4 
REMARK    2  A    between atoms: S_2  and  C2_5 
REMARK    3  A    between atoms: C5_9  and  C6_11 
REMARK       I    between atoms: C6_11  and  N_13 
REMARK    4  A    between atoms: C13_17  and  O3_18 
ROOT
ATOM      1  C6  DF5 d          16.964   7.312  13.453  0.00  0.00     0.258 C 
ATOM      2  O   DF5 d          16.055   7.920  12.822  0.00  0.00    -0.267 OA
ATOM      3  N   DF5 d          18.288   7.853  13.292  0.00  0.00    -0.313 N 
ATOM      4  C10 DF5 d          18.532   8.750  12.205  0.00  0.00     0.044 A 
ATOM      5  C15 DF5 d          18.301   8.374  10.854  0.00  0.00     0.033 A 
ATOM      6  C14 DF5 d          18.546   9.247   9.784  0.00  0.00     0.039 A 
ATOM      7  C13 DF5 d          19.043  10.527  10.048  0.00  0.00     0.068 A 
ATOM      8  C12 DF5 d          19.285  10.936  11.372  0.00  0.00     0.046 A 
ATOM      9  C11 DF5 d          19.030  10.068  12.446  0.00  0.00    -0.028 A 
ATOM     10  C9  DF5 d          19.336  10.563  13.815  0.00  0.00     0.042 C 
ATOM     11  C8  DF5 d          19.355   9.536  14.907  0.00  0.00     0.025 C 
ATOM     12  C7  DF5 d          18.933   8.111  14.568  0.00  0.00     0.133 C 
ENDROOT
BRANCH   1  13
ATOM     13  C5  DF5 d          16.636   6.098  14.294  0.00  0.00     0.032 A 
ATOM     14  C4  DF5 d          15.332   6.030  14.783  0.00  0.00     0.018 A 
ATOM     15  C3  DF5 d          14.931   4.962  15.580  0.00  0.00     0.026 A 
ATOM     16  C2  DF5 d          15.810   3.904  15.911  0.00  0.00     0.079 A 
ATOM     17  C1  DF5 d          17.132   3.987  15.432  0.00  0.00     0.026 A 
ATOM     18  C   DF5 d          17.541   5.062  14.616  0.00  0.00     0.018 A 
BRANCH  16  19
ATOM     19  S   DF5 d          15.231   2.623  16.867  0.00  0.00     0.256 S 
ATOM     20  O2  DF5 d          13.833   2.725  16.794  0.00  0.00    -0.201 OA
ATOM     21  O1  DF5 d          15.771   2.747  18.182  0.00  0.00    -0.201 OA
BRANCH  19  22
ATOM     22  N1  DF5 d          15.615   1.287  16.093  0.00  0.00    -0.324 N 
ATOM     23  H1  DF5 d          15.273   1.130  15.166  0.00  0.00     0.169 HD
ATOM     24  H2  DF5 d          16.198   0.604  16.533  0.00  0.00     0.169 HD
ENDBRANCH  19  22
ENDBRANCH  16  19
ENDBRANCH   1  13
BRANCH   7  25
ATOM     25  O3  DF5 d          19.321  11.469   9.077  0.00  0.00    -0.356 OA
ATOM     26  C16 DF5 d          20.698  11.540   8.623  0.00  0.00     0.210 C 
ENDBRANCH   7  25
TORSDOF 4
