REMARK  9 active torsions:
REMARK  status: ('A' for Active; 'I' for Inactive)
REMARK    1  A    between atoms: PB_1  and  O3A_5 
REMARK    2  A    between atoms: O3A_5  and  PA_6 
REMARK    3  A    between atoms: PA_6  and  O5'_9 
REMARK    4  A    between atoms: O5'_9  and  C5'_10 
REMARK    5  A    between atoms: C5'_10  and  C4'_11 
REMARK    6  A    between atoms: C3'_13  and  O3'_14 
REMARK    7  A    between atoms: C2'_15  and  O2'_16 
REMARK    8  A    between atoms: C1'_17  and  N9_18 
REMARK    9  A    between atoms: C2_25  and  N2_26 
ROOT
ATOM      1  C4' GDP d          -7.643 -23.251  -4.338  0.00  0.00     0.180 C 
ATOM      2  O4' GDP d          -7.769 -22.170  -5.259  0.00  0.00    -0.353 OA
ATOM      3  C3' GDP d          -6.282 -23.120  -3.680  0.00  0.00     0.182 C 
ATOM      4  C2' GDP d          -5.722 -21.798  -4.157  0.00  0.00     0.198 C 
ATOM      5  C1' GDP d          -6.521 -21.495  -5.412  0.00  0.00     0.262 C 
ENDROOT
BRANCH   5   6
ATOM      6  N9  GDP d          -6.781 -20.045  -5.559  0.00  0.00    -0.295 N 
ATOM      7  C8  GDP d          -7.036 -19.163  -4.575  0.00  0.00     0.214 A 
ATOM      8  N7  GDP d          -7.244 -17.920  -5.084  0.00  0.00    -0.234 NA
ATOM      9  C5  GDP d          -7.135 -18.007  -6.424  0.00  0.00     0.171 A 
ATOM     10  C6  GDP d          -7.240 -17.081  -7.575  0.00  0.00     0.292 A 
ATOM     11  C4  GDP d          -6.836 -19.412  -6.727  0.00  0.00     0.161 A 
ATOM     12  O6  GDP d          -7.492 -15.869  -7.403  0.00  0.00    -0.265 OA
ATOM     13  N1  GDP d          -7.057 -17.582  -8.804  0.00  0.00    -0.154 N 
ATOM     14  C2  GDP d          -6.785 -18.883  -9.021  0.00  0.00     0.680 A 
ATOM     15  H10 GDP d          -7.125 -16.967  -9.589  0.00  0.00     0.187 HD
ATOM     16  N3  GDP d          -6.674 -19.786  -8.016  0.00  0.00    -0.174 N 
ATOM     17  H13 GDP d          -6.463 -20.770  -8.237  0.00  0.00     0.186 HD
BRANCH  14  18
ATOM     18  N2  GDP d          -6.614 -19.315 -10.294  0.00  0.00    -0.234 N 
ATOM     19  H11 GDP d          -6.405 -20.307 -10.478  0.00  0.00     0.174 HD
ATOM     20  H12 GDP d          -6.693 -18.651 -11.078  0.00  0.00     0.174 HD
ENDBRANCH  14  18
ENDBRANCH   5   6
BRANCH   4  21
ATOM     21  O2' GDP d          -4.329 -21.929  -4.445  0.00  0.00    -0.388 OA
ATOM     22  H7  GDP d          -4.207 -22.582  -5.124  0.00  0.00     0.210 HD
ENDBRANCH   4  21
BRANCH   1  23
ATOM     23  C5' GDP d          -8.741 -23.139  -3.296  0.00  0.00     0.216 C 
BRANCH  23  24
ATOM     24  O5' GDP d          -9.139 -24.443  -2.893  0.00  0.00    -0.287 OA
BRANCH  24  25
ATOM     25  PA  GDP d          -9.599 -24.700  -1.376  0.00  0.00     0.418 P 
ATOM     26  O1A GDP d          -9.741 -26.179  -1.104  0.00  0.00    -0.624 OA
ATOM     27  O2A GDP d          -8.614 -24.069  -0.422  0.00  0.00    -0.624 OA
BRANCH  25  28
ATOM     28  O3A GDP d         -11.017 -23.940  -1.300  0.00  0.00    -0.173 OA
BRANCH  28  29
ATOM     29  PB  GDP d         -12.365 -24.584  -1.899  0.00  0.00     0.431 P 
ATOM     30  O1B GDP d         -12.542 -25.994  -1.390  0.00  0.00    -0.616 OA
ATOM     31  O2B GDP d         -13.543 -23.738  -1.478  0.00  0.00    -0.616 OA
ATOM     32  O3B GDP d         -12.279 -24.595  -3.407  0.00  0.00    -0.616 OA
ENDBRANCH  28  29
ENDBRANCH  25  28
ENDBRANCH  24  25
ENDBRANCH  23  24
ENDBRANCH   1  23
BRANCH   3  33
ATOM     33  O3' GDP d          -5.441 -24.178  -4.140  0.00  0.00    -0.390 OA
ATOM     34  H5  GDP d          -4.587 -24.102  -3.732  0.00  0.00     0.210 HD
ENDBRANCH   3  33
TORSDOF 9
