REMARK  12 active torsions:
REMARK  status: ('A' for Active; 'I' for Inactive)
REMARK    1  A    between atoms: C2_2  and  C11_11 
REMARK    2  A    between atoms: C6_6  and  C21_21 
REMARK    3  A    between atoms: C8_8  and  C13_13 
REMARK       I    between atoms: C13_13  and  N14_14 
REMARK    4  A    between atoms: N14_14  and  C15_15 
REMARK    5  A    between atoms: C15_15  and  C17_17 
REMARK    6  A    between atoms: C17_17  and  C20_20 
REMARK    7  A    between atoms: C17_17  and  C18_18 
REMARK    8  A    between atoms: C18_18  and  O19_19 
REMARK    9  A    between atoms: C20_20  and  C28_28 
REMARK   10  A    between atoms: C21_21  and  N22_22 
REMARK   11  A    between atoms: C24_24  and  C29_29 
REMARK   12  A    between atoms: C29_29  and  N30_30 
ROOT
ATOM      1  C13 RPR d           5.273   4.535  22.531  0.00  0.00     0.252 C 
ATOM      2  N14 RPR d           5.485   5.874  22.293  0.00  0.00    -0.352 N 
ATOM      3  O33 RPR d           4.577   4.147  23.476  0.00  0.00    -0.268 OA
ATOM      4  H9  RPR d           6.057   6.133  21.515  0.00  0.00     0.163 HD
ENDROOT
BRANCH   2   5
ATOM      5  C15 RPR d           4.913   6.941  23.124  0.00  0.00     0.094 C 
ATOM      6  C16 RPR d           4.446   8.075  22.197  0.00  0.00     0.033 C 
BRANCH   5   7
ATOM      7  C17 RPR d           5.991   7.410  24.173  0.00  0.00     0.112 C 
BRANCH   7   8
ATOM      8  C20 RPR d           7.293   7.922  23.454  0.00  0.00     0.055 C 
BRANCH   8   9
ATOM      9  C28 RPR d           8.536   8.136  24.306  0.00  0.00    -0.056 A 
ATOM     10  C27 RPR d           9.458   9.141  23.914  0.00  0.00     0.007 A 
ATOM     11  C26 RPR d          10.626   9.384  24.663  0.00  0.00     0.002 A 
ATOM     12  C25 RPR d          10.893   8.626  25.819  0.00  0.00     0.015 A 
ATOM     13  C24 RPR d           9.987   7.613  26.234  0.00  0.00     0.007 A 
ATOM     14  C23 RPR d           8.814   7.376  25.475  0.00  0.00     0.022 A 
BRANCH  13  15
ATOM     15  C29 RPR d          10.269   6.828  27.441  0.00  0.00     0.102 C 
ATOM     16  N31 RPR d           9.264   6.276  28.136  0.00  0.00    -0.385 N 
ATOM     17  H28 RPR d           8.291   6.400  27.821  0.00  0.00     0.157 HD
ATOM     18  H29 RPR d           9.465   5.728  28.985  0.00  0.00     0.157 HD
BRANCH  15  19
ATOM     19  N30 RPR d          11.537   6.657  27.865  0.00  0.00    -0.385 N 
ATOM     20  H26 RPR d          11.726   6.104  28.713  0.00  0.00     0.157 HD
ATOM     21  H27 RPR d          12.317   7.079  27.341  0.00  0.00     0.157 HD
ENDBRANCH  15  19
ENDBRANCH  13  15
ENDBRANCH   8   9
ENDBRANCH   7   8
BRANCH   7  22
ATOM     22  C18 RPR d           5.371   8.530  25.053  0.00  0.00     0.265 C 
ATOM     23  O32 RPR d           5.833   9.628  25.193  0.00  0.00    -0.265 OA
BRANCH  22  24
ATOM     24  O19 RPR d           4.105   8.152  25.593  0.00  0.00    -0.326 OA
ATOM     25  C34 RPR d           3.321   9.116  26.312  0.00  0.00     0.213 C 
ENDBRANCH  22  24
ENDBRANCH   7  22
ENDBRANCH   5   7
ENDBRANCH   2   5
BRANCH   1  26
ATOM     26  C8  RPR d           5.942   3.598  21.586  0.00  0.00     0.032 A 
ATOM     27  C9  RPR d           5.412   2.294  21.334  0.00  0.00     0.018 A 
ATOM     28  C10 RPR d           6.062   1.408  20.432  0.00  0.00     0.013 A 
ATOM     29  C11 RPR d           7.249   1.784  19.755  0.00  0.00    -0.026 A 
ATOM     30  C12 RPR d           7.770   3.080  20.009  0.00  0.00     0.013 A 
ATOM     31  C7  RPR d           7.136   3.972  20.903  0.00  0.00     0.018 A 
BRANCH  29  32
ATOM     32  C2  RPR d           7.943   0.841  18.792  0.00  0.00    -0.025 A 
ATOM     33  C1  RPR d           7.226   0.187  17.759  0.00  0.00     0.021 A 
ATOM     34  C6  RPR d           7.880  -0.701  16.848  0.00  0.00    -0.032 A 
ATOM     35  C5  RPR d           9.275  -0.942  16.970  0.00  0.00     0.009 A 
ATOM     36  C4  RPR d           9.999  -0.293  17.998  0.00  0.00     0.001 A 
ATOM     37  C3  RPR d           9.333   0.583  18.892  0.00  0.00     0.012 A 
BRANCH  34  38
ATOM     38  C21 RPR d           7.091  -1.380  15.764  0.00  0.00     0.268 C 
BRANCH  38  39
ATOM     39  N22 RPR d           6.726  -0.438  14.700  0.00  0.00    -0.075 N 
ATOM     40  H19 RPR d           6.199  -0.921  13.989  0.00  0.00     0.274 HD
ATOM     41  H20 RPR d           7.563  -0.051  14.293  0.00  0.00     0.274 HD
ATOM     42  H21 RPR d           6.165   0.305  15.087  0.00  0.00     0.274 HD
ENDBRANCH  38  39
ENDBRANCH  34  38
ENDBRANCH  29  32
ENDBRANCH   1  26
TORSDOF 12
