REMARK  14 active torsions:
REMARK  status: ('A' for Active; 'I' for Inactive)
REMARK    1  A    between atoms: CG_9  and  CB_10 
REMARK    2  A    between atoms: CB_10  and  CA_11 
REMARK    3  A    between atoms: CA_11  and  C_12 
REMARK    4  A    between atoms: CA_11  and  N_15 
REMARK       I    between atoms: N_15  and  CBC_16 
REMARK    5  A    between atoms: CBC_16  and  CAV_18 
REMARK    6  A    between atoms: CAV_18  and  CAW_19 
REMARK    7  A    between atoms: CAW_19  and  CBM_20 
REMARK    8  A    between atoms: CBM_20  and  OAE_21 
REMARK    9  A    between atoms: CBM_20  and  OAF_22 
REMARK   10  A    between atoms: CBM_20  and  CBL_23 
REMARK   11  A    between atoms: CBL_23  and  CAX_24 
REMARK   12  A    between atoms: CBL_23  and  NBA_31 
REMARK   13  A    between atoms: CAX_24  and  CBF_25 
REMARK       I    between atoms: NBA_31  and  CBE_32 
REMARK   14  A    between atoms: CBE_32  and  CBG_34 
ROOT
ATOM      1  CBM KAW d          44.716  45.811  46.590  0.00  0.00     0.180 C 
ENDROOT
BRANCH   1   2
ATOM      2  CAW KAW d          45.068  47.231  46.139  0.00  0.00     0.079 C 
BRANCH   2   3
ATOM      3  CAV KAW d          44.639  47.465  44.678  0.00  0.00     0.108 C 
BRANCH   3   4
ATOM      4  CBC KAW d          45.872  47.292  43.797  0.00  0.00     0.218 C 
ATOM      5  N   KAW d          45.676  47.178  42.488  0.00  0.00    -0.346 N 
ATOM      6  H10 KAW d          44.747  47.202  42.119  0.00  0.00     0.163 HD
ATOM      7  OAA KAW d          46.996  47.277  44.298  0.00  0.00    -0.274 OA
BRANCH   5   8
ATOM      8  CA  KAW d          46.812  47.018  41.588  0.00  0.00     0.189 C 
BRANCH   8   9
ATOM      9  CB  KAW d          46.343  46.521  40.220  0.00  0.00     0.077 C 
BRANCH   9  10
ATOM     10  CG  KAW d          45.440  47.474  39.498  0.00  0.00    -0.028 A 
ATOM     11  CD2 KAW d          44.027  47.328  39.311  0.00  0.00    -0.002 A 
ATOM     12  CE3 KAW d          43.090  46.371  39.715  0.00  0.00     0.014 A 
ATOM     13  CE2 KAW d          43.593  48.427  38.542  0.00  0.00     0.042 A 
ATOM     14  CZ3 KAW d          41.769  46.542  39.344  0.00  0.00     0.001 A 
ATOM     15  CH2 KAW d          41.368  47.645  38.580  0.00  0.00     0.002 A 
ATOM     16  CZ2 KAW d          42.260  48.598  38.168  0.00  0.00     0.030 A 
ATOM     17  NE1 KAW d          44.690  49.204  38.282  0.00  0.00    -0.365 N 
ATOM     18  CD1 KAW d          45.796  48.627  38.860  0.00  0.00     0.096 A 
ATOM     19  H5  KAW d          44.687  50.080  37.740  0.00  0.00     0.165 HD
ENDBRANCH   9  10
ENDBRANCH   8   9
BRANCH   8  20
ATOM     20  C   KAW d          47.573  48.337  41.442  0.00  0.00     0.197 C 
ATOM     21  OXT KAW d          48.738  48.300  40.994  0.00  0.00    -0.646 OA
ATOM     22  O   KAW d          46.989  49.389  41.780  0.00  0.00    -0.646 OA
ENDBRANCH   8  20
ENDBRANCH   5   8
ENDBRANCH   3   4
ENDBRANCH   2   3
ENDBRANCH   1   2
BRANCH   1  23
ATOM     23  OAE KAW d          45.131  44.852  45.613  0.00  0.00    -0.364 OA
ATOM     24  H15 KAW d          44.708  45.043  44.784  0.00  0.00     0.213 HD
ENDBRANCH   1  23
BRANCH   1  25
ATOM     25  OAF KAW d          43.297  45.730  46.739  0.00  0.00    -0.364 OA
ATOM     26  H16 KAW d          43.059  44.855  47.024  0.00  0.00     0.213 HD
ENDBRANCH   1  25
BRANCH   1  27
ATOM     27  CBL KAW d          45.354  45.503  47.947  0.00  0.00     0.151 C 
BRANCH  27  28
ATOM     28  CAX KAW d          46.875  45.668  47.921  0.00  0.00     0.069 C 
BRANCH  28  29
ATOM     29  CBF KAW d          47.499  45.448  49.271  0.00  0.00    -0.056 A 
ATOM     30  CAO KAW d          47.708  46.510  50.136  0.00  0.00     0.007 A 
ATOM     31  CAI KAW d          48.266  46.309  51.385  0.00  0.00     0.001 A 
ATOM     32  CAG KAW d          48.622  45.035  51.787  0.00  0.00     0.000 A 
ATOM     33  CAJ KAW d          48.417  43.967  50.933  0.00  0.00     0.001 A 
ATOM     34  CAP KAW d          47.859  44.177  49.686  0.00  0.00     0.007 A 
ENDBRANCH  28  29
ENDBRANCH  27  28
BRANCH  27  35
ATOM     35  NBA KAW d          45.047  44.152  48.400  0.00  0.00    -0.347 N 
ATOM     36  CBE KAW d          44.013  43.912  49.198  0.00  0.00     0.252 C 
ATOM     37  OAC KAW d          43.221  44.782  49.560  0.00  0.00    -0.268 OA
ATOM     38  H25 KAW d          45.626  43.392  48.104  0.00  0.00     0.163 HD
BRANCH  36  39
ATOM     39  CBG KAW d          43.836  42.445  49.592  0.00  0.00     0.032 A 
ATOM     40  CAQ KAW d          43.061  42.103  50.687  0.00  0.00     0.017 A 
ATOM     41  CAK KAW d          42.897  40.772  51.023  0.00  0.00     0.001 A 
ATOM     42  CAH KAW d          43.504  39.785  50.269  0.00  0.00     0.000 A 
ATOM     43  CAL KAW d          44.279  40.128  49.177  0.00  0.00     0.001 A 
ATOM     44  CAR KAW d          44.447  41.458  48.839  0.00  0.00     0.017 A 
ENDBRANCH  36  39
ENDBRANCH  27  35
ENDBRANCH   1  27
TORSDOF 14
