REMARK  6 active torsions:
REMARK  status: ('A' for Active; 'I' for Inactive)
REMARK       I    between atoms: N1_1  and  C14_11 
REMARK    1  A    between atoms: C7_3  and  C12_15 
REMARK       I    between atoms: N23_16  and  C7_3 
REMARK    2  A    between atoms: C15_4  and  C1_9 
REMARK    3  A    between atoms: C15_4  and  N_10 
REMARK    4  A    between atoms: C14_11  and  C15_4 
REMARK    5  A    between atoms: C24_6  and  N23_16 
REMARK    6  A    between atoms: C25_17  and  C24_6 
ROOT
ATOM      1  N1  MOL d          18.112 -13.104  21.460  0.00  0.00    -0.337 N 
ATOM      2  C4  MOL d          19.417 -13.646  21.065  0.00  0.00     0.127 C 
ATOM      3  C14 MOL d          17.384 -13.671  22.460  0.00  0.00     0.251 C 
ATOM      4  O32 MOL d          16.375 -13.140  22.914  0.00  0.00    -0.271 OA
ATOM      5  C3  MOL d          19.993 -12.447  20.264  0.00  0.00     0.022 C 
ATOM      6  C2  MOL d          18.704 -11.801  19.680  0.00  0.00     0.037 C 
ATOM      7  C12 MOL d          17.782 -11.787  20.929  0.00  0.00     0.179 C 
ENDROOT
BRANCH   7   8
ATOM      8  C7  MOL d          16.329 -11.634  20.572  0.00  0.00     0.240 C 
ATOM      9  N23 MOL d          15.692 -10.455  20.800  0.00  0.00    -0.355 N 
ATOM     10  H21 MOL d          16.154  -9.690  21.248  0.00  0.00     0.162 HD
ATOM     11  O22 MOL d          15.731 -12.594  20.103  0.00  0.00    -0.271 OA
BRANCH   9  12
ATOM     12  C24 MOL d          14.302 -10.357  20.361  0.00  0.00     0.161 C 
BRANCH  12  13
ATOM     13  C25 MOL d          13.307 -10.353  21.524  0.00  0.00    -0.039 A 
ATOM     14  C26 MOL d          12.458 -11.456  21.675  0.00  0.00     0.009 A 
ATOM     15  C27 MOL d          11.531 -11.506  22.718  0.00  0.00     0.002 A 
ATOM     16  C28 MOL d          11.444 -10.445  23.626  0.00  0.00     0.024 A 
ATOM     17  C29 MOL d          12.286  -9.332  23.490  0.00  0.00     0.034 A 
ATOM     18  C30 MOL d          13.211  -9.295  22.438  0.00  0.00     0.032 A 
ATOM     19 CL21 MOL d          12.158  -8.008  24.645  0.00  0.00    -0.084 Cl
ENDBRANCH  12  13
ENDBRANCH   9  12
ENDBRANCH   7   8
BRANCH   3  20
ATOM     20  C15 MOL d          17.746 -15.006  23.098  0.00  0.00     0.274 C 
BRANCH  20  21
ATOM     21  C1  MOL d          18.383 -14.722  24.487  0.00  0.00     0.038 C 
ATOM     22  C17 MOL d          19.813 -14.181  24.295  0.00  0.00     0.007 C 
ENDBRANCH  20  21
BRANCH  20  23
ATOM     23  N   MOL d          16.537 -15.836  23.310  0.00  0.00    -0.067 N 
ATOM     24  H13 MOL d          16.105 -16.034  22.421  0.00  0.00     0.275 HD
ATOM     25  H14 MOL d          15.886 -15.338  23.896  0.00  0.00     0.275 HD
ATOM     26  H15 MOL d          16.797 -16.701  23.757  0.00  0.00     0.275 HD
ENDBRANCH  20  23
ENDBRANCH   3  20
TORSDOF 6
