REMARK  3 active torsions:
REMARK  status: ('A' for Active; 'I' for Inactive)
REMARK    1  A    between atoms: C_2  and  CG_4 
REMARK    2  A    between atoms: CG_4  and  CA_5 
REMARK    3  A    between atoms: CZ_8  and  OH_9 
ROOT
ATOM      1  CA  MOL d          62.418  83.899  14.492  0.00  0.00    -0.046 A 
ATOM      2  CD2 MOL d          63.636  84.495  14.305  0.00  0.00     0.010 A 
ATOM      3  CE2 MOL d          64.600  84.400  15.146  0.00  0.00     0.039 A 
ATOM      4  CZ  MOL d          64.504  83.612  16.399  0.00  0.00     0.087 A 
ATOM      5 CL   MOL d          62.756  82.023  17.991  0.00  0.00    -0.081 Cl
ATOM      6  CE1 MOL d          63.147  82.963  16.556  0.00  0.00     0.067 A 
ATOM      7  CD1 MOL d          62.183  83.149  15.616  0.00  0.00     0.034 A 
ENDROOT
BRANCH   1   8
ATOM      8  CG  MOL d          61.299  84.055  13.432  0.00  0.00     0.151 C 
BRANCH   8   9
ATOM      9  C   MOL d          61.487  83.268  12.148  0.00  0.00     0.176 C 
ATOM     10  O2  MOL d          60.533  83.366  11.313  0.00  0.00    -0.648 OA
ATOM     11  O1  MOL d          62.531  82.572  11.904  0.00  0.00    -0.648 OA
ENDBRANCH   8   9
ENDBRANCH   1   8
BRANCH   4  12
ATOM     12  OH  MOL d          65.526  83.478  17.361  0.00  0.00    -0.359 OA
ATOM     13  H5  MOL d          65.221  82.924  18.070  0.00  0.00     0.217 HD
ENDBRANCH   4  12
TORSDOF 3
