REMARK  4 active torsions:
REMARK  status: ('A' for Active; 'I' for Inactive)
REMARK    1  A    between atoms: N_1  and  CA_2 
REMARK    2  A    between atoms: CA_2  and  C_4 
REMARK       I    between atoms: C_4  and  N_6 
REMARK    3  A    between atoms: N_6  and  CA_7 
REMARK    4  A    between atoms: CA_7  and  C_9 
ROOT
ATOM      1  C   DAL d         -45.368   3.902 -31.868  0.00  0.00     0.248 C 
ATOM      2  O   DAL d         -44.460   3.428 -31.186  0.00  0.00    -0.271 OA
ATOM      3  N   DAL d         -46.003   4.988 -31.512  0.00  0.00    -0.345 N 
ATOM      4  H   DAL d         -46.904   5.224 -31.875  0.00  0.00     0.163 HD
ENDROOT
BRANCH   1   5
ATOM      5  CA  DAL d         -46.053   3.063 -32.938  0.00  0.00     0.270 C 
ATOM      6  CB  DAL d         -45.475   3.372 -34.310  0.00  0.00     0.050 C 
BRANCH   5   7
ATOM      7  N   DAL d         -45.915   1.644 -32.635  0.00  0.00    -0.067 N 
ATOM      8  H   DAL d         -46.373   1.102 -33.351  0.00  0.00     0.275 HD
ATOM      9  H   DAL d         -46.340   1.448 -31.742  0.00  0.00     0.275 HD
ATOM     10  H   DAL d         -44.937   1.401 -32.603  0.00  0.00     0.275 HD
ENDBRANCH   5   7
ENDBRANCH   1   5
BRANCH   3  11
ATOM     11  CA  DAL d         -45.302   5.833 -30.546  0.00  0.00     0.181 C 
ATOM     12  CB  DAL d         -46.296   6.931 -30.206  0.00  0.00     0.043 C 
BRANCH  11  13
ATOM     13  C   DAL d         -43.999   6.431 -31.064  0.00  0.00     0.196 C 
ATOM     14  O   DAL d         -43.821   6.618 -32.269  0.00  0.00    -0.646 OA
ATOM     15  OXT DAL d         -43.096   6.743 -30.290  0.00  0.00    -0.646 OA
ENDBRANCH  11  13
ENDBRANCH   3  11
TORSDOF 4
