REMARK  7 active torsions:
REMARK  status: ('A' for Active; 'I' for Inactive)
REMARK    1  A    between atoms: N6_6  and  C24_24 
REMARK    2  A    between atoms: C7_7  and  C8_8 
REMARK    3  A    between atoms: N9_9  and  C28_28 
REMARK    4  A    between atoms: C16_16  and  C17_17 
REMARK    5  A    between atoms: C22_22  and  C21_21 
REMARK    6  A    between atoms: C25_25  and  O33_33 
REMARK    7  A    between atoms: C26_26  and  N31_31 
ROOT
ATOM      1  C24 STO d           6.261  24.255  29.976  0.00  0.00     0.168 C 
ATOM      2  C25 STO d           5.948  24.296  28.455  0.00  0.00     0.207 C 
ATOM      3  C26 STO d           5.378  25.634  27.995  0.00  0.00     0.223 C 
ATOM      4  C27 STO d           6.220  26.809  28.476  0.00  0.00     0.090 C 
ATOM      5  C28 STO d           6.603  26.722  29.955  0.00  0.00     0.233 C 
ATOM      6  O29 STO d           6.071  25.549  30.582  0.00  0.00    -0.333 OA
ATOM      7  C35 STO d           5.095  23.536  30.664  0.00  0.00     0.074 C 
ENDROOT
BRANCH   3   8
ATOM      8  N31 STO d           5.023  25.603  26.580  0.00  0.00    -0.072 N 
ATOM      9  C32 STO d           3.609  25.339  26.351  0.00  0.00     0.267 C 
ATOM     10  H17 STO d           5.561  24.879  26.130  0.00  0.00     0.277 HD
ATOM     11  H18 STO d           5.253  26.496  26.172  0.00  0.00     0.277 HD
ENDBRANCH   3   8
BRANCH   2  12
ATOM     12  O33 STO d           7.263  24.167  27.866  0.00  0.00    -0.384 OA
ATOM     13  C34 STO d           7.429  23.486  26.622  0.00  0.00     0.202 C 
ENDBRANCH   2  12
BRANCH   5  14
ATOM     14  N9  STO d           8.048  26.859  30.221  0.00  0.00    -0.316 N 
ATOM     15  C8  STO d           8.958  25.832  30.424  0.00  0.00     0.077 A 
ATOM     16  C16 STO d          10.279  26.356  30.488  0.00  0.00     0.022 A 
ATOM     17  C15 STO d          10.155  27.778  30.297  0.00  0.00     0.004 A 
ATOM     18  C10 STO d           8.770  28.060  30.143  0.00  0.00     0.048 A 
ATOM     19  C14 STO d          11.095  28.844  30.166  0.00  0.00     0.014 A 
ATOM     20  C11 STO d           8.321  29.361  29.844  0.00  0.00     0.030 A 
ATOM     21  C12 STO d           9.283  30.389  29.710  0.00  0.00     0.002 A 
ATOM     22  C13 STO d          10.647  30.126  29.875  0.00  0.00     0.001 A 
BRANCH  15  23
ATOM     23  C7  STO d           8.739  24.423  30.515  0.00  0.00     0.077 A 
ATOM     24  N6  STO d           7.583  23.668  30.355  0.00  0.00    -0.308 N 
ATOM     25  C5  STO d           7.938  22.300  30.441  0.00  0.00     0.049 A 
ATOM     26  C4  STO d           7.189  21.100  30.270  0.00  0.00     0.030 A 
ATOM     27  C23 STO d           9.338  22.214  30.664  0.00  0.00     0.004 A 
ATOM     28  C3  STO d           7.853  19.876  30.290  0.00  0.00     0.002 A 
ATOM     29  C2  STO d           9.237  19.805  30.502  0.00  0.00     0.001 A 
ATOM     30  C1  STO d           9.988  20.953  30.691  0.00  0.00     0.014 A 
ATOM     31  C22 STO d           9.849  23.551  30.682  0.00  0.00     0.015 A 
BRANCH  31  32
ATOM     32  C21 STO d          11.161  24.081  30.736  0.00  0.00    -0.010 A 
ATOM     33  C17 STO d          11.382  25.444  30.618  0.00  0.00     0.054 A 
ATOM     34  C18 STO d          12.832  25.666  30.838  0.00  0.00     0.253 A 
ATOM     35  O30 STO d          13.445  26.705  30.861  0.00  0.00    -0.268 OA
ATOM     36  N19 STO d          13.376  24.478  31.108  0.00  0.00    -0.353 N 
ATOM     37  C20 STO d          12.449  23.372  31.080  0.00  0.00     0.163 A 
ATOM     38  H9  STO d          14.348  24.363  31.313  0.00  0.00     0.163 HD
ENDBRANCH  31  32
ENDBRANCH  15  23
ENDBRANCH   5  14
TORSDOF 7
