REMARK  20 active torsions:
REMARK  status: ('A' for Active; 'I' for Inactive)
REMARK       I    between atoms: N1_29  and  C2_2 
REMARK    1  A    between atoms: C3_3  and  C4_4 
REMARK    2  A    between atoms: C11_11  and  C3_3 
REMARK    3  A    between atoms: C3_3  and  N1_29 
REMARK    4  A    between atoms: C4_4  and  C5_5 
REMARK    5  A    between atoms: C12_12  and  C11_11 
REMARK    6  A    between atoms: C11_11  and  O2_38 
REMARK    7  A    between atoms: C13_13  and  C12_12 
REMARK    8  A    between atoms: C13_13  and  C14_14 
REMARK    9  A    between atoms: C17_17  and  C13_13 
REMARK       I    between atoms: N2_30  and  C17_17 
REMARK   10  A    between atoms: C18_18  and  C19_19 
REMARK   11  A    between atoms: C22_22  and  C18_18 
REMARK   12  A    between atoms: C18_18  and  N2_30 
REMARK   13  A    between atoms: C19_19  and  C20_20 
REMARK   14  A    between atoms: C20_20  and  C21_21 
REMARK       I    between atoms: C21_21  and  N3_31 
REMARK       I    between atoms: N4_32  and  C22_22 
REMARK   15  A    between atoms: C23_23  and  C24_24 
REMARK   16  A    between atoms: C25_25  and  C23_23 
REMARK   17  A    between atoms: C23_23  and  N4_32 
REMARK       I    between atoms: C24_24  and  N5_33 
REMARK   18  A    between atoms: C26_26  and  C25_25 
REMARK   19  A    between atoms: C27_27  and  C26_26 
REMARK   20  A    between atoms: N6_34  and  C27_27 
REMARK       I    between atoms: C28_28  and  N7_35 
REMARK       I    between atoms: N6_34  and  C28_28 
ROOT
ATOM      1  C18 U0E d          -7.632  17.013  23.349  0.00  0.00     0.177 C 
ENDROOT
BRANCH   1   2
ATOM      2  C19 U0E d          -8.980  16.758  22.677  0.00  0.00     0.044 C 
BRANCH   2   3
ATOM      3  C20 U0E d          -8.879  15.807  21.487  0.00  0.00     0.105 C 
BRANCH   3   4
ATOM      4  C21 U0E d          -8.698  16.547  20.165  0.00  0.00     0.215 C 
ATOM      5  N3  U0E d          -8.050  15.973  19.169  0.00  0.00    -0.370 N 
ATOM      6  H43 U0E d          -7.932  16.459  18.303  0.00  0.00     0.159 HD
ATOM      7  H44 U0E d          -7.677  15.052  19.280  0.00  0.00     0.159 HD
ATOM      8  O4  U0E d          -9.156  17.681  20.031  0.00  0.00    -0.274 OA
ENDBRANCH   3   4
ENDBRANCH   2   3
ENDBRANCH   1   2
BRANCH   1   9
ATOM      9  C22 U0E d          -6.690  17.747  22.396  0.00  0.00     0.241 C 
ATOM     10  N4  U0E d          -5.610  17.054  22.087  0.00  0.00    -0.346 N 
ATOM     11  H45 U0E d          -5.507  16.138  22.476  0.00  0.00     0.163 HD
ATOM     12  O5  U0E d          -6.960  18.886  21.985  0.00  0.00    -0.271 OA
BRANCH  10  13
ATOM     13  C23 U0E d          -4.551  17.557  21.202  0.00  0.00     0.176 C 
BRANCH  13  14
ATOM     14  C24 U0E d          -4.489  16.713  19.926  0.00  0.00     0.238 C 
ATOM     15  N5  U0E d          -4.114  17.252  18.758  0.00  0.00    -0.368 N 
ATOM     16  H46 U0E d          -4.079  16.686  17.934  0.00  0.00     0.159 HD
ATOM     17  H47 U0E d          -3.869  18.220  18.710  0.00  0.00     0.159 HD
ATOM     18  O6  U0E d          -4.783  15.508  19.942  0.00  0.00    -0.271 OA
ENDBRANCH  13  14
BRANCH  13  19
ATOM     19  C25 U0E d          -3.198  17.475  21.915  0.00  0.00     0.036 C 
BRANCH  19  20
ATOM     20  C26 U0E d          -2.258  18.629  21.557  0.00  0.00     0.023 C 
BRANCH  20  21
ATOM     21  C27 U0E d          -1.763  19.402  22.784  0.00  0.00     0.138 C 
BRANCH  21  22
ATOM     22  N6  U0E d          -0.372  19.088  23.142  0.00  0.00    -0.227 N 
ATOM     23  C28 U0E d           0.481  19.967  23.690  0.00  0.00     0.665 C 
ATOM     24  N8  U0E d           1.774  19.709  23.929  0.00  0.00    -0.235 N 
ATOM     25  N7  U0E d           0.075  21.195  24.040  0.00  0.00    -0.235 N 
ATOM     26  H51 U0E d           2.373  20.431  24.353  0.00  0.00     0.174 HD
ATOM     27  H52 U0E d           2.168  18.788  23.689  0.00  0.00     0.174 HD
ATOM     28  H49 U0E d           0.742  21.858  24.460  0.00  0.00     0.174 HD
ATOM     29  H50 U0E d          -0.904  21.476  23.890  0.00  0.00     0.174 HD
ATOM     30  H48 U0E d          -0.031  18.133  22.961  0.00  0.00     0.177 HD
ENDBRANCH  21  22
ENDBRANCH  20  21
ENDBRANCH  19  20
ENDBRANCH  13  19
ENDBRANCH  10  13
ENDBRANCH   1   9
BRANCH   1  31
ATOM     31  N2  U0E d          -7.824  17.813  24.560  0.00  0.00    -0.347 N 
ATOM     32  C17 U0E d          -7.590  17.331  25.757  0.00  0.00     0.223 C 
ATOM     33  O3  U0E d          -7.205  16.178  25.983  0.00  0.00    -0.273 OA
ATOM     34  H42 U0E d          -8.144  18.756  24.472  0.00  0.00     0.163 HD
BRANCH  32  35
ATOM     35  C13 U0E d          -7.842  18.308  26.894  0.00  0.00     0.083 C 
BRANCH  35  36
ATOM     36  C12 U0E d          -8.724  17.630  27.955  0.00  0.00     0.048 C 
BRANCH  36  37
ATOM     37  C11 U0E d         -10.184  17.257  27.646  0.00  0.00     0.141 C 
BRANCH  37  38
ATOM     38  C3  U0E d         -10.766  16.059  28.426  0.00  0.00     0.113 C 
BRANCH  38  39
ATOM     39  C4  U0E d         -12.286  16.011  28.115  0.00  0.00     0.032 C 
BRANCH  39  40
ATOM     40  C5  U0E d         -12.924  14.780  28.796  0.00  0.00    -0.013 C 
ATOM     41  C6  U0E d         -14.424  15.032  28.964  0.00  0.00     0.005 C 
ATOM     42  C7  U0E d         -15.072  13.848  29.680  0.00  0.00     0.000 C 
ATOM     43  C8  U0E d         -14.853  12.551  28.896  0.00  0.00     0.000 C 
ATOM     44  C9  U0E d         -13.357  12.285  28.692  0.00  0.00     0.000 C 
ATOM     45  C10 U0E d         -12.684  13.480  28.003  0.00  0.00     0.005 C 
ENDBRANCH  39  40
ENDBRANCH  38  39
BRANCH  38  46
ATOM     46  N1  U0E d         -10.602  16.196  29.888  0.00  0.00    -0.354 N 
ATOM     47  C2  U0E d          -9.967  15.325  30.662  0.00  0.00     0.214 C 
ATOM     48  C1  U0E d         -10.070  15.673  32.147  0.00  0.00     0.117 C 
ATOM     49  O1  U0E d          -9.309  14.333  30.301  0.00  0.00    -0.274 OA
ATOM     50  H41 U0E d         -10.998  17.003  30.326  0.00  0.00     0.162 HD
ENDBRANCH  38  46
ENDBRANCH  37  38
BRANCH  37  51
ATOM     51  O2  U0E d         -10.945  18.419  27.897  0.00  0.00    -0.393 OA
ATOM     52  H53 U0E d         -11.861  18.241  27.720  0.00  0.00     0.210 HD
ENDBRANCH  37  51
ENDBRANCH  36  37
ENDBRANCH  35  36
BRANCH  35  53
ATOM     53  C14 U0E d          -6.485  18.729  27.467  0.00  0.00    -0.010 C 
ATOM     54  C15 U0E d          -5.468  17.585  27.492  0.00  0.00     0.010 C 
ATOM     55  C16 U0E d          -5.816  19.849  26.659  0.00  0.00     0.010 C 
ENDBRANCH  35  53
ENDBRANCH  32  35
ENDBRANCH   1  31
TORSDOF 20
