REMARK  12 active torsions:
REMARK  status: ('A' for Active; 'I' for Inactive)
REMARK    1  A    between atoms: C1_1  and  C2_4 
REMARK    2  A    between atoms: C2_4  and  C3_5 
REMARK    3  A    between atoms: C3_5  and  C4_6 
REMARK    4  A    between atoms: C4_6  and  C5_7 
REMARK    5  A    between atoms: C5_7  and  C6_8 
REMARK    6  A    between atoms: C6_8  and  C7_9 
REMARK    7  A    between atoms: C7_9  and  C8_10 
REMARK    8  A    between atoms: C8_10  and  C9_11 
REMARK    9  A    between atoms: C9_11  and  C10_12 
REMARK   10  A    between atoms: C10_12  and  C11_13 
REMARK   11  A    between atoms: C11_13  and  C12_14 
REMARK   12  A    between atoms: C12_14  and  C13_15 
ROOT
ATOM      1  C6  MYR d         -34.929 -22.359 -43.179  0.00  0.00     0.000 C 
ENDROOT
BRANCH   1   2
ATOM      2  C5  MYR d         -36.241 -21.860 -42.584  0.00  0.00     0.000 C 
BRANCH   2   3
ATOM      3  C4  MYR d         -36.399 -20.335 -42.665  0.00  0.00     0.001 C 
BRANCH   3   4
ATOM      4  C3  MYR d         -36.004 -19.616 -41.362  0.00  0.00     0.010 C 
BRANCH   4   5
ATOM      5  C2  MYR d         -35.780 -18.099 -41.496  0.00  0.00     0.113 C 
BRANCH   5   6
ATOM      6  C1  MYR d         -34.388 -17.626 -41.077  0.00  0.00     0.172 C 
ATOM      7  O1  MYR d         -33.760 -18.154 -40.131  0.00  0.00    -0.648 OA
ATOM      8  O2  MYR d         -33.831 -16.669 -41.664  0.00  0.00    -0.648 OA
ENDBRANCH   5   6
ENDBRANCH   4   5
ENDBRANCH   3   4
ENDBRANCH   2   3
ENDBRANCH   1   2
BRANCH   1   9
ATOM      9  C7  MYR d         -33.704 -21.871 -42.393  0.00  0.00     0.000 C 
BRANCH   9  10
ATOM     10  C8  MYR d         -32.991 -22.987 -41.619  0.00  0.00     0.000 C 
BRANCH  10  11
ATOM     11  C9  MYR d         -33.483 -23.075 -40.178  0.00  0.00     0.000 C 
BRANCH  11  12
ATOM     12  C10 MYR d         -33.554 -24.529 -39.706  0.00  0.00     0.000 C 
BRANCH  12  13
ATOM     13  C11 MYR d         -34.986 -24.965 -39.394  0.00  0.00     0.000 C 
BRANCH  13  14
ATOM     14  C12 MYR d         -35.051 -26.400 -38.876  0.00  0.00    -0.000 C 
BRANCH  14  15
ATOM     15  C13 MYR d         -36.125 -27.207 -39.617  0.00  0.00    -0.005 C 
ATOM     16  C14 MYR d         -37.366 -27.476 -38.770  0.00  0.00     0.005 C 
ENDBRANCH  14  15
ENDBRANCH  13  14
ENDBRANCH  12  13
ENDBRANCH  11  12
ENDBRANCH  10  11
ENDBRANCH   9  10
ENDBRANCH   1   9
TORSDOF 12
