REMARK  2 active torsions:
REMARK  status: ('A' for Active; 'I' for Inactive)
REMARK    1  A    between atoms: N_1  and  CA_2 
REMARK    2  A    between atoms: CA_2  and  C_3 
ROOT
ATOM      1  N   BET d          19.919 -18.996  -9.649  0.00  0.00    -0.069 N 
ATOM      2  C1  BET d          19.764 -20.160  -8.775  0.00  0.00     0.272 C 
ATOM      3  C2  BET d          18.759 -18.122  -9.454  0.00  0.00     0.272 C 
ATOM      4  C3  BET d          21.106 -18.227  -9.269  0.00  0.00     0.272 C 
ENDROOT
BRANCH   1   5
ATOM      5  CA  BET d          20.063 -19.429 -11.056  0.00  0.00     0.348 C 
BRANCH   5   6
ATOM      6  C   BET d          18.840 -20.121 -11.624  0.00  0.00     0.199 C 
ATOM      7  O1  BET d          18.775 -21.386 -11.658  0.00  0.00    -0.647 OA
ATOM      8  O2  BET d          17.937 -19.387 -12.067  0.00  0.00    -0.647 OA
ENDBRANCH   5   6
ENDBRANCH   1   5
TORSDOF 2
