REMARK  7 active torsions:
REMARK  status: ('A' for Active; 'I' for Inactive)
REMARK    1  A    between atoms: C2_3  and  N1_2 
REMARK    2  A    between atoms: C2_3  and  P3_4 
REMARK    3  A    between atoms: P3_4  and  C4_5 
REMARK    4  A    between atoms: C4_5  and  C5_6 
REMARK    5  A    between atoms: C5_6  and  C6_7 
REMARK    6  A    between atoms: C5_6  and  C7_8 
REMARK    7  A    between atoms: C7_8  and  C8_9 
ROOT
ATOM      1  P3  P8D d         -25.661  29.448 -14.741  0.00  0.00     0.137 P 
ATOM      2  O31 P8D d         -25.096  28.073 -14.713  0.00  0.00    -0.666 OA
ATOM      3  O32 P8D d         -26.874  29.518 -15.773  0.00  0.00    -0.666 OA
ENDROOT
BRANCH   1   4
ATOM      4  C2  P8D d         -24.401  30.687 -15.216  0.00  0.00     0.270 C 
ATOM      5  C1  P8D d         -24.977  32.089 -15.485  0.00  0.00     0.051 C 
BRANCH   4   6
ATOM      6  N1  P8D d         -23.779  30.172 -16.446  0.00  0.00    -0.066 N 
ATOM      7  H4  P8D d         -23.070  30.817 -16.759  0.00  0.00     0.275 HD
ATOM      8  H5  P8D d         -24.482  30.072 -17.161  0.00  0.00     0.275 HD
ATOM      9  H6  P8D d         -23.359  29.275 -16.260  0.00  0.00     0.275 HD
ENDBRANCH   4   6
ENDBRANCH   1   4
BRANCH   1  10
ATOM     10  C4  P8D d         -26.257  29.851 -13.078  0.00  0.00     0.121 C 
BRANCH  10  11
ATOM     11  C5  P8D d         -27.788  30.040 -12.856  0.00  0.00     0.106 C 
BRANCH  11  12
ATOM     12  C6  P8D d         -28.601  28.824 -13.364  0.00  0.00     0.178 C 
ATOM     13  O61 P8D d         -29.829  28.936 -13.405  0.00  0.00    -0.648 OA
ATOM     14  O62 P8D d         -27.986  27.799 -13.732  0.00  0.00    -0.648 OA
ENDBRANCH  11  12
BRANCH  11  15
ATOM     15  C7  P8D d         -28.039  30.463 -11.393  0.00  0.00     0.129 C 
BRANCH  15  16
ATOM     16  C8  P8D d         -27.610  31.857 -10.916  0.00  0.00     0.173 C 
ATOM     17  O81 P8D d         -27.884  32.836 -11.636  0.00  0.00    -0.648 OA
ATOM     18  O82 P8D d         -27.008  31.901  -9.827  0.00  0.00    -0.648 OA
ENDBRANCH  15  16
ENDBRANCH  11  15
ENDBRANCH  10  11
ENDBRANCH   1  10
TORSDOF 7
