REMARK  5 active torsions:
REMARK  status: ('A' for Active; 'I' for Inactive)
REMARK    1  A    between atoms: C5'_2  and  O5'_1 
REMARK    2  A    between atoms: C5'_2  and  C4'_3 
REMARK    3  A    between atoms: C3'_5  and  O3'_6 
REMARK    4  A    between atoms: C2'_7  and  O2'_8 
REMARK    5  A    between atoms: C1'_9  and  C9_10 
ROOT
ATOM      1  C4' IMH d          56.332  15.904  44.222  0.00  0.00     0.241 C 
ATOM      2  N4' IMH d          57.143  15.850  43.057  0.00  0.00    -0.055 N 
ATOM      3  C3' IMH d          56.146  17.338  44.607  0.00  0.00     0.182 C 
ATOM      4  C2' IMH d          56.452  18.050  43.331  0.00  0.00     0.184 C 
ATOM      5  C1' IMH d          57.212  17.097  42.378  0.00  0.00     0.254 C 
ATOM      6  H5  IMH d          56.759  15.162  42.429  0.00  0.00     0.278 HD
ATOM      7  H6  IMH d          58.075  15.577  43.326  0.00  0.00     0.278 HD
ENDROOT
BRANCH   5   8
ATOM      8  C9  IMH d          56.449  16.861  41.064  0.00  0.00     0.022 A 
ATOM      9  C4  IMH d          55.377  17.581  40.446  0.00  0.00     0.100 A 
ATOM     10  C5  IMH d          55.082  16.897  39.260  0.00  0.00     0.130 A 
ATOM     11  N3  IMH d          54.727  18.739  40.903  0.00  0.00    -0.241 NA
ATOM     12  N7  IMH d          55.918  15.788  39.116  0.00  0.00    -0.359 N 
ATOM     13  C6  IMH d          54.031  17.380  38.394  0.00  0.00     0.275 A 
ATOM     14  C8  IMH d          56.688  15.806  40.179  0.00  0.00     0.100 A 
ATOM     15  H13 IMH d          55.928  15.105  38.345  0.00  0.00     0.165 HD
ATOM     16  N1  IMH d          53.400  18.542  38.876  0.00  0.00    -0.316 N 
ATOM     17  O6  IMH d          53.663  16.891  37.327  0.00  0.00    -0.266 OA
ATOM     18  C2  IMH d          53.734  19.190  40.077  0.00  0.00     0.210 A 
ATOM     19  H14 IMH d          52.663  18.934  38.325  0.00  0.00     0.170 HD
ENDBRANCH   5   8
BRANCH   4  20
ATOM     20  O2' IMH d          57.250  19.199  43.595  0.00  0.00    -0.390 OA
ATOM     21  H10 IMH d          58.066  18.930  44.001  0.00  0.00     0.210 HD
ENDBRANCH   4  20
BRANCH   1  22
ATOM     22  C5' IMH d          55.014  15.278  43.929  0.00  0.00     0.199 C 
BRANCH  22  23
ATOM     23  O5' IMH d          55.248  13.945  43.503  0.00  0.00    -0.399 OA
ATOM     24  H1  IMH d          54.418  13.525  43.310  0.00  0.00     0.209 HD
ENDBRANCH  22  23
ENDBRANCH   1  22
BRANCH   3  25
ATOM     25  O3' IMH d          57.073  17.627  45.657  0.00  0.00    -0.391 OA
ATOM     26  H8  IMH d          57.061  18.559  45.840  0.00  0.00     0.210 HD
ENDBRANCH   3  25
TORSDOF 5
