REMARK  6 active torsions:
REMARK  status: ('A' for Active; 'I' for Inactive)
REMARK       I    between atoms: C10_23  and  N1_1 
REMARK    1  A    between atoms: C5_2  and  C51_4 
REMARK    2  A    between atoms: C4_5  and  C41_7 
REMARK       I    between atoms: N10_25  and  C10_23 
REMARK    3  A    between atoms: C15_37  and  N12_28 
REMARK    4  A    between atoms: C16_31  and  C17_32 
REMARK    5  A    between atoms: C16_31  and  C15_37 
REMARK    6  A    between atoms: C17_32  and  S17_33 
ROOT
ATOM      1  N1  I29 d         -12.931  -8.611   2.640  0.00  0.00    -0.271 N 
ATOM      2  C5  I29 d         -12.037  -9.226   1.660  0.00  0.00     0.098 C 
ATOM      3  C57 I29 d         -10.971  -8.245   1.158  0.00  0.00     0.048 C 
ATOM      4  C4  I29 d         -11.407 -10.343   2.555  0.00  0.00     0.108 C 
ATOM      5  C47 I29 d         -10.091  -9.837   3.159  0.00  0.00     0.049 C 
ATOM      6  N3  I29 d         -12.401 -10.538   3.638  0.00  0.00    -0.259 NA
ATOM      7  C2  I29 d         -13.276  -9.609   3.595  0.00  0.00     0.103 C 
ATOM      8  C21 I29 d         -14.576  -9.571   4.348  0.00  0.00     0.091 C 
ATOM      9  C10 I29 d         -13.660  -7.395   2.351  0.00  0.00     0.327 C 
ATOM     10  O10 I29 d         -13.641  -6.913   1.201  0.00  0.00    -0.247 OA
ATOM     11  N10 I29 d         -14.370  -6.762   3.398  0.00  0.00    -0.331 N 
ATOM     12  C14 I29 d         -15.667  -6.157   3.119  0.00  0.00     0.155 C 
ATOM     13  C13 I29 d         -16.521  -6.186   4.367  0.00  0.00     0.254 C 
ATOM     14  N12 I29 d         -15.933  -5.321   5.398  0.00  0.00    -0.068 N 
ATOM     15  C12 I29 d         -14.472  -5.595   5.623  0.00  0.00     0.254 C 
ATOM     16  C11 I29 d         -13.943  -6.818   4.821  0.00  0.00     0.155 C 
ATOM     17  H22 I29 d         -16.008  -4.370   5.072  0.00  0.00     0.280 HD
ENDROOT
BRANCH   2  18
ATOM     18  C51 I29 d         -12.852  -9.812   0.504  0.00  0.00    -0.027 A 
ATOM     19  C56 I29 d         -14.228 -10.045   0.666  0.00  0.00     0.011 A 
ATOM     20  C55 I29 d         -14.960 -10.680  -0.334  0.00  0.00     0.024 A 
ATOM     21  C54 I29 d         -14.321 -11.094  -1.505  0.00  0.00     0.034 A 
ATOM     22 CL5  I29 d         -15.212 -12.049  -2.693  0.00  0.00    -0.084 Cl
ATOM     23  C53 I29 d         -12.972 -10.780  -1.720  0.00  0.00     0.024 A 
ATOM     24  C52 I29 d         -12.239 -10.141  -0.712  0.00  0.00     0.011 A 
ENDBRANCH   2  18
BRANCH   4  25
ATOM     25  C41 I29 d         -11.166 -11.631   1.816  0.00  0.00    -0.025 A 
ATOM     26  C42 I29 d          -9.915 -11.873   1.235  0.00  0.00     0.011 A 
ATOM     27  C43 I29 d          -9.687 -13.056   0.538  0.00  0.00     0.024 A 
ATOM     28  C44 I29 d         -10.717 -13.992   0.413  0.00  0.00     0.034 A 
ATOM     29 CL4  I29 d         -10.458 -15.441  -0.538  0.00  0.00    -0.084 Cl
ATOM     30  C45 I29 d         -11.955 -13.771   1.019  0.00  0.00     0.024 A 
ATOM     31  C46 I29 d         -12.175 -12.587   1.719  0.00  0.00     0.011 A 
ENDBRANCH   4  25
BRANCH  14  32
ATOM     32  C15 I29 d         -16.712  -5.425   6.655  0.00  0.00     0.236 C 
BRANCH  32  33
ATOM     33  C16 I29 d         -16.220  -4.404   7.685  0.00  0.00     0.042 C 
BRANCH  33  34
ATOM     34  C17 I29 d         -17.253  -4.238   8.807  0.00  0.00     0.141 C 
BRANCH  34  35
ATOM     35  S17 I29 d         -16.566  -4.710  10.383  0.00  0.00     0.140 S 
ATOM     36  C19 I29 d         -17.895  -4.514  11.552  0.00  0.00     0.161 C 
ATOM     37  O17 I29 d         -15.499  -3.774  10.729  0.00  0.00    -0.228 OA
ATOM     38  O18 I29 d         -16.199  -6.123  10.327  0.00  0.00    -0.228 OA
ENDBRANCH  34  35
ENDBRANCH  33  34
ENDBRANCH  32  33
ENDBRANCH  14  32
TORSDOF 6
