REMARK  6 active torsions:
REMARK  status: ('A' for Active; 'I' for Inactive)
REMARK    1  A    between atoms: C10_1  and  C12_2 
REMARK       I    between atoms: C10_1  and  N3_9 
REMARK    2  A    between atoms: C4_10  and  C6_11 
REMARK       I    between atoms: C6_11  and  N7_16 
REMARK    3  A    between atoms: N7_16  and  C9_17 
REMARK    4  A    between atoms: C9_17  and  C13_18 
REMARK    5  A    between atoms: C14_19  and  C20_20 
REMARK    6  A    between atoms: C20_20  and  N21_21 
ROOT
ATOM      1  C6  MOL d           5.695  21.239  51.573  0.00  0.00     0.240 C 
ATOM      2  O8  MOL d           6.295  20.229  51.924  0.00  0.00    -0.271 OA
ATOM      3  N7  MOL d           6.312  22.400  51.147  0.00  0.00    -0.355 N 
ATOM      4  H14 MOL d           5.770  23.146  50.761  0.00  0.00     0.162 HD
ENDROOT
BRANCH   1   5
ATOM      5  C4  MOL d           4.195  21.356  51.506  0.00  0.00     0.179 C 
ATOM      6  N3  MOL d           3.651  20.256  50.735  0.00  0.00    -0.333 N 
ATOM      7  C10 MOL d           4.220  19.817  49.552  0.00  0.00     0.271 C 
ATOM      8  C2  MOL d           2.485  19.683  51.379  0.00  0.00     0.127 C 
ATOM      9  O11 MOL d           5.336  20.147  49.181  0.00  0.00    -0.266 OA
ATOM     10  C1  MOL d           2.226  20.549  52.586  0.00  0.00     0.022 C 
ATOM     11  C5  MOL d           3.580  21.161  52.873  0.00  0.00     0.037 C 
BRANCH   7  12
ATOM     12  C12 MOL d           3.492  18.929  48.685  0.00  0.00     0.101 A 
ATOM     13  C22 MOL d           2.165  18.550  48.622  0.00  0.00     0.037 A 
ATOM     14  C23 MOL d           2.016  17.662  47.528  0.00  0.00     0.027 A 
ATOM     15  C24 MOL d           3.254  17.541  46.935  0.00  0.00     0.005 A 
ATOM     16  N25 MOL d           4.128  18.305  47.653  0.00  0.00    -0.356 N 
ATOM     17  C26 MOL d           3.712  16.767  45.777  0.00  0.00     0.068 C 
ATOM     18  H3  MOL d           5.132  18.398  47.444  0.00  0.00     0.166 HD
ENDBRANCH   7  12
ENDBRANCH   1   5
BRANCH   3  19
ATOM     19  C9  MOL d           7.743  22.527  51.263  0.00  0.00     0.161 C 
BRANCH  19  20
ATOM     20  C13 MOL d           8.498  22.528  49.972  0.00  0.00    -0.031 A 
ATOM     21  C14 MOL d           9.198  21.423  49.520  0.00  0.00    -0.025 A 
ATOM     22  C15 MOL d           9.924  21.461  48.348  0.00  0.00     0.011 A 
ATOM     23  C16 MOL d           9.972  22.634  47.608  0.00  0.00     0.024 A 
ATOM     24  C17 MOL d           9.250  23.727  48.040  0.00  0.00     0.034 A 
ATOM     25 CL   MOL d           9.271  25.170  47.054  0.00  0.00    -0.084 Cl
ATOM     26  C18 MOL d           8.529  23.690  49.216  0.00  0.00     0.033 A 
BRANCH  21  27
ATOM     27  C20 MOL d           9.206  20.130  50.278  0.00  0.00     0.268 C 
BRANCH  27  28
ATOM     28  N21 MOL d           8.208  19.180  49.709  0.00  0.00    -0.075 N 
ATOM     29  H19 MOL d           8.229  18.318  50.231  0.00  0.00     0.274 HD
ATOM     30  H20 MOL d           8.434  18.994  48.744  0.00  0.00     0.274 HD
ATOM     31  H21 MOL d           7.287  19.586  49.767  0.00  0.00     0.274 HD
ENDBRANCH  27  28
ENDBRANCH  21  27
ENDBRANCH  19  20
ENDBRANCH   3  19
TORSDOF 6
