REMARK  17 active torsions:
REMARK  status: ('A' for Active; 'I' for Inactive)
REMARK    1  A    between atoms: C23_23  and  C01_1 
REMARK    2  A    between atoms: C13_13  and  C07_7 
REMARK    3  A    between atoms: O14_14  and  C13_13 
REMARK    4  A    between atoms: C15_15  and  O14_14 
REMARK    5  A    between atoms: C16_16  and  C15_15 
REMARK    6  A    between atoms: C15_15  and  C26_26 
REMARK    7  A    between atoms: C17_17  and  C16_16 
REMARK    8  A    between atoms: C16_16  and  O25_25 
REMARK    9  A    between atoms: C18_18  and  C17_17 
REMARK   10  A    between atoms: C17_17  and  O24_24 
REMARK   11  A    between atoms: C18_18  and  C19_19 
REMARK   12  A    between atoms: O22_22  and  C18_18 
REMARK       I    between atoms: C19_19  and  N21_21 
REMARK   13  A    between atoms: N21_21  and  C39_39 
REMARK   14  A    between atoms: O22_22  and  C23_23 
REMARK       I    between atoms: C26_26  and  N28_28 
REMARK   15  A    between atoms: N28_28  and  C29_29 
REMARK   16  A    between atoms: C35_35  and  O36_36 
REMARK   17  A    between atoms: C45_45  and  O46_46 
ROOT
ATOM      1  C16 BE6 d          13.153  24.094   5.659  0.00  0.00     0.188 C 
ENDROOT
BRANCH   1   2
ATOM      2  C15 BE6 d          12.110  24.359   4.586  0.00  0.00     0.244 C 
BRANCH   2   3
ATOM      3  O14 BE6 d          12.085  23.288   3.508  0.00  0.00    -0.369 OA
BRANCH   3   4
ATOM      4  C13 BE6 d          11.526  23.626   2.210  0.00  0.00     0.210 C 
BRANCH   4   5
ATOM      5  C07 BE6 d          10.089  24.114   2.238  0.00  0.00     0.007 A 
ATOM      6  C08 BE6 d           8.964  23.269   2.639  0.00  0.00     0.124 A 
ATOM      7  C09 BE6 d           7.590  23.833   2.651  0.00  0.00     0.046 A 
ATOM      8  F52 BE6 d           9.155  22.127   2.962  0.00  0.00    -0.205 F 
ATOM      9  C10 BE6 d           7.377  25.248   2.256  0.00  0.00     0.045 A 
ATOM     10  C11 BE6 d           8.544  26.065   1.859  0.00  0.00     0.117 A 
ATOM     11  C12 BE6 d           9.853  25.494   1.858  0.00  0.00     0.054 A 
ATOM     12  F49 BE6 d           8.474  27.395   1.473  0.00  0.00    -0.206 F 
ENDBRANCH   4   5
ENDBRANCH   3   4
ENDBRANCH   2   3
BRANCH   2  13
ATOM     13  C26 BE6 d          10.881  24.450   5.430  0.00  0.00     0.250 C 
ATOM     14  O27 BE6 d          10.493  23.422   6.030  0.00  0.00    -0.271 OA
ATOM     15  N28 BE6 d          10.239  25.664   5.505  0.00  0.00    -0.348 N 
ATOM     16  H18 BE6 d          10.625  26.430   4.991  0.00  0.00     0.163 HD
BRANCH  15  17
ATOM     17  C29 BE6 d           9.038  25.904   6.281  0.00  0.00     0.147 C 
ATOM     18  C30 BE6 d           9.383  26.697   7.501  0.00  0.00    -0.027 A 
ATOM     19  C31 BE6 d           8.309  27.623   7.814  0.00  0.00    -0.047 A 
ATOM     20  C32 BE6 d          10.537  26.573   8.384  0.00  0.00     0.010 A 
ATOM     21  C37 BE6 d           8.351  28.448   9.014  0.00  0.00     0.008 A 
ATOM     22  C38 BE6 d           7.165  27.323   6.925  0.00  0.00     0.073 C 
ATOM     23  C34 BE6 d           9.505  28.325   9.898  0.00  0.00     0.001 A 
ATOM     24  C33 BE6 d          10.597  27.405   9.605  0.00  0.00     0.001 A 
ATOM     25  C35 BE6 d           7.928  26.815   5.669  0.00  0.00     0.149 C 
BRANCH  25  26
ATOM     26  O36 BE6 d           8.580  27.870   4.935  0.00  0.00    -0.393 OA
ATOM     27  H24 BE6 d           7.924  28.440   4.552  0.00  0.00     0.210 HD
ENDBRANCH  25  26
ENDBRANCH  15  17
ENDBRANCH   2  13
ENDBRANCH   1   2
BRANCH   1  28
ATOM     28  C17 BE6 d          14.461  23.765   5.046  0.00  0.00     0.188 C 
BRANCH  28  29
ATOM     29  C18 BE6 d          15.349  23.037   6.127  0.00  0.00     0.244 C 
BRANCH  29  30
ATOM     30  C19 BE6 d          15.405  21.537   5.942  0.00  0.00     0.250 C 
ATOM     31  O20 BE6 d          14.390  20.853   6.149  0.00  0.00    -0.271 OA
ATOM     32  N21 BE6 d          16.581  20.934   5.580  0.00  0.00    -0.348 N 
ATOM     33  H13 BE6 d          17.385  21.507   5.423  0.00  0.00     0.163 HD
BRANCH  32  34
ATOM     34  C39 BE6 d          16.706  19.505   5.416  0.00  0.00     0.147 C 
ATOM     35  C40 BE6 d          16.586  19.037   3.958  0.00  0.00    -0.027 A 
ATOM     36  C41 BE6 d          17.524  17.972   3.716  0.00  0.00    -0.047 A 
ATOM     37  C42 BE6 d          15.781  19.557   2.864  0.00  0.00     0.010 A 
ATOM     38  C47 BE6 d          17.705  17.380   2.391  0.00  0.00     0.008 A 
ATOM     39  C48 BE6 d          18.183  17.634   5.020  0.00  0.00     0.073 C 
ATOM     40  C44 BE6 d          16.903  17.905   1.304  0.00  0.00     0.001 A 
ATOM     41  C43 BE6 d          15.945  18.979   1.509  0.00  0.00     0.001 A 
ATOM     42  C45 BE6 d          18.102  18.956   5.794  0.00  0.00     0.149 C 
BRANCH  42  43
ATOM     43  O46 BE6 d          19.076  19.940   5.373  0.00  0.00    -0.393 OA
ATOM     44  H33 BE6 d          19.948  19.634   5.591  0.00  0.00     0.210 HD
ENDBRANCH  42  43
ENDBRANCH  32  34
ENDBRANCH  29  30
BRANCH  29  45
ATOM     45  O22 BE6 d          14.849  23.337   7.487  0.00  0.00    -0.369 OA
BRANCH  45  46
ATOM     46  C23 BE6 d          15.827  23.613   8.533  0.00  0.00     0.210 C 
BRANCH  46  47
ATOM     47  C01 BE6 d          16.747  22.415   8.849  0.00  0.00     0.007 A 
ATOM     48  C02 BE6 d          18.137  22.507   8.407  0.00  0.00     0.054 A 
ATOM     49  C03 BE6 d          19.093  21.452   8.627  0.00  0.00     0.117 A 
ATOM     50  C04 BE6 d          18.699  20.231   9.316  0.00  0.00     0.045 A 
ATOM     51  F50 BE6 d          20.291  21.576   8.220  0.00  0.00    -0.206 F 
ATOM     52  C05 BE6 d          17.312  20.096   9.775  0.00  0.00     0.046 A 
ATOM     53  C06 BE6 d          16.360  21.165   9.544  0.00  0.00     0.124 A 
ATOM     54  F51 BE6 d          14.905  21.054  10.000  0.00  0.00    -0.205 F 
ENDBRANCH  46  47
ENDBRANCH  45  46
ENDBRANCH  29  45
ENDBRANCH  28  29
BRANCH  28  55
ATOM     55  O24 BE6 d          15.061  25.014   4.613  0.00  0.00    -0.390 OA
ATOM     56  H16 BE6 d          15.159  25.593   5.360  0.00  0.00     0.210 HD
ENDBRANCH  28  55
ENDBRANCH   1  28
BRANCH   1  57
ATOM     57  O25 BE6 d          13.370  25.261   6.533  0.00  0.00    -0.390 OA
ATOM     58  H17 BE6 d          14.009  25.041   7.201  0.00  0.00     0.210 HD
ENDBRANCH   1  57
TORSDOF 17
