REMARK  10 active torsions:
REMARK  status: ('A' for Active; 'I' for Inactive)
REMARK    1  A    between atoms: O4_1  and  C4_2 
REMARK    2  A    between atoms: C3_3  and  O3_4 
REMARK    3  A    between atoms: C5_8  and  C6_9 
REMARK    4  A    between atoms: C6_9  and  O6_10 
REMARK    5  A    between atoms: O6_10  and  C1_11 
REMARK    6  A    between atoms: C2_12  and  O2_17 
REMARK    7  A    between atoms: C3_13  and  O3_18 
REMARK    8  A    between atoms: C4_14  and  O4_19 
REMARK    9  A    between atoms: C5_15  and  C6_16 
REMARK   10  A    between atoms: C6_16  and  O6_21 
ROOT
ATOM      1  C1  IFM d           4.561 -10.918   6.196  0.00  0.00     0.291 C 
ATOM      2  C2  IFM d           3.584 -10.246   5.229  0.00  0.00     0.204 C 
ATOM      3  C3  IFM d           2.671 -11.289   4.572  0.00  0.00     0.183 C 
ATOM      4  C4  IFM d           3.504 -12.410   3.953  0.00  0.00     0.180 C 
ATOM      5  C5  IFM d           4.551 -12.965   4.946  0.00  0.00     0.179 C 
ATOM      6  O5  IFM d           5.300 -11.907   5.538  0.00  0.00    -0.348 OA
ENDROOT
BRANCH   1   7
ATOM      7  O6  IFM d           3.729 -11.433   7.241  0.00  0.00    -0.358 OA
BRANCH   7   8
ATOM      8  C6  IFM d           4.414 -12.191   8.228  0.00  0.00     0.179 C 
BRANCH   8   9
ATOM      9  C5  IFM d           3.451 -12.603   9.290  0.00  0.00     0.066 C 
ATOM     10  C4  IFM d           2.200 -13.267   8.672  0.00  0.00     0.156 C 
ATOM     11  C3  IFM d           1.192 -13.712   9.746  0.00  0.00     0.172 C 
ATOM     12  C2  IFM d           1.462 -13.042  11.102  0.00  0.00     0.266 C 
ATOM     13  N   IFM d           1.891 -11.660  11.006  0.00  0.00    -0.072 N 
ATOM     14  C1  IFM d           3.044 -11.386  10.134  0.00  0.00     0.241 C 
ATOM     15  H7  IFM d           2.129 -11.349  11.935  0.00  0.00     0.277 HD
ATOM     16  H8  IFM d           1.112 -11.121  10.661  0.00  0.00     0.277 HD
BRANCH  10  17
ATOM     17  O4  IFM d           2.575 -14.346   7.846  0.00  0.00    -0.392 OA
ATOM     18  H1  IFM d           1.804 -14.695   7.413  0.00  0.00     0.210 HD
ENDBRANCH  10  17
BRANCH  11  19
ATOM     19  O3  IFM d          -0.171 -13.481   9.323  0.00  0.00    -0.391 OA
ATOM     20  H4  IFM d          -0.297 -12.554   9.158  0.00  0.00     0.210 HD
ENDBRANCH  11  19
ENDBRANCH   8   9
ENDBRANCH   7   8
ENDBRANCH   1   7
BRANCH   2  21
ATOM     21  O2  IFM d           4.307  -9.557   4.205  0.00  0.00    -0.388 OA
ATOM     22  H21 IFM d           4.830 -10.180   3.714  0.00  0.00     0.210 HD
ENDBRANCH   2  21
BRANCH   3  23
ATOM     23  O3  IFM d           1.740 -10.718   3.667  0.00  0.00    -0.390 OA
ATOM     24  H22 IFM d           2.206 -10.353   2.924  0.00  0.00     0.210 HD
ENDBRANCH   3  23
BRANCH   5  25
ATOM     25  C6  IFM d           5.496 -13.956   4.302  0.00  0.00     0.198 C 
BRANCH  25  26
ATOM     26  O6  IFM d           6.208 -13.390   3.249  0.00  0.00    -0.398 OA
ATOM     27  H24 IFM d           6.788 -14.042   2.873  0.00  0.00     0.209 HD
ENDBRANCH  25  26
ENDBRANCH   5  25
BRANCH   4  28
ATOM     28  O4  IFM d           2.718 -13.467   3.431  0.00  0.00    -0.390 OA
ATOM     29  H23 IFM d           2.269 -13.908   4.143  0.00  0.00     0.210 HD
ENDBRANCH   4  28
TORSDOF 10
