REMARK  11 active torsions:
REMARK  status: ('A' for Active; 'I' for Inactive)
REMARK    1  A    between atoms: O4_26  and  C1_1 
REMARK    2  A    between atoms: C2_3  and  N2_10 
REMARK    3  A    between atoms: C3_4  and  O3_11 
REMARK    4  A    between atoms: C4_5  and  O4_12 
REMARK    5  A    between atoms: C5_6  and  C6_7 
REMARK    6  A    between atoms: C6_7  and  O6_14 
REMARK    7  A    between atoms: N2_10  and  C7_8 
REMARK    8  A    between atoms: C3_17  and  O3_25 
REMARK    9  A    between atoms: C4_18  and  O4_26 
REMARK   10  A    between atoms: C5_19  and  C6_20 
REMARK   11  A    between atoms: C6_20  and  O6_28 
ROOT
ATOM      1  C1  SN5 d          28.114  73.557  -4.223  0.00  0.00     0.286 C 
ATOM      2  C2  SN5 d          28.370  74.342  -5.530  0.00  0.00     0.168 C 
ATOM      3  C3  SN5 d          28.292  73.382  -6.747  0.00  0.00     0.176 C 
ATOM      4  C4  SN5 d          29.139  72.123  -6.491  0.00  0.00     0.180 C 
ATOM      5  C5  SN5 d          28.902  71.469  -5.125  0.00  0.00     0.179 C 
ATOM      6  O5  SN5 d          29.028  72.444  -4.096  0.00  0.00    -0.349 OA
ENDROOT
BRANCH   1   7
ATOM      7  O4  SN5 d          28.597  74.148  -3.120  0.00  0.00    -0.348 OA
BRANCH   7   8
ATOM      8  C4  SN5 d          27.850  74.039  -1.892  0.00  0.00     0.186 C 
ATOM      9  C3  SN5 d          28.503  73.064  -0.847  0.00  0.00     0.178 C 
ATOM     10  C2  SN5 d          27.862  73.101   0.568  0.00  0.00     0.179 C 
ATOM     11  C1  SN5 d          27.858  74.607   0.884  0.00  0.00     0.216 C 
ATOM     12  N2  SN5 d          28.921  72.539   1.398  0.00  0.00    -0.276 NA
ATOM     13  S1  SN5 d          29.377  74.973   1.737  0.00  0.00    -0.081 SA
ATOM     14  O5  SN5 d          27.289  75.514  -0.089  0.00  0.00    -0.363 OA
ATOM     15  C7  SN5 d          29.715  73.352   1.980  0.00  0.00     0.064 C 
ATOM     16  C8  SN5 d          30.872  72.857   2.808  0.00  0.00     0.078 C 
ATOM     17  C5  SN5 d          27.818  75.469  -1.402  0.00  0.00     0.178 C 
BRANCH   9  18
ATOM     18  O3  SN5 d          28.534  71.743  -1.436  0.00  0.00    -0.391 OA
ATOM     19  H25 SN5 d          29.049  71.765  -2.234  0.00  0.00     0.210 HD
ENDBRANCH   9  18
BRANCH  17  20
ATOM     20  C6  SN5 d          27.086  76.474  -2.283  0.00  0.00     0.198 C 
BRANCH  20  21
ATOM     21  O6  SN5 d          25.712  76.400  -1.974  0.00  0.00    -0.398 OA
ATOM     22  H26 SN5 d          25.583  76.611  -1.057  0.00  0.00     0.209 HD
ENDBRANCH  20  21
ENDBRANCH  17  20
ENDBRANCH   7   8
ENDBRANCH   1   7
BRANCH   2  23
ATOM     23  N2  SN5 d          27.335  75.366  -5.622  0.00  0.00    -0.373 N 
ATOM     24  H11 SN5 d          26.378  75.077  -5.624  0.00  0.00     0.160 HD
BRANCH  23  25
ATOM     25  C7  SN5 d          27.613  76.702  -5.706  0.00  0.00     0.070 C 
ATOM     26  S7  SN5 d          29.208  77.273  -5.719  0.00  0.00    -0.066 SA
ATOM     27  C8  SN5 d          26.455  77.675  -5.825  0.00  0.00     0.081 C 
ENDBRANCH  23  25
ENDBRANCH   2  23
BRANCH   3  28
ATOM     28  O3  SN5 d          29.015  73.920  -7.842  0.00  0.00    -0.391 OA
ATOM     29  H12 SN5 d          29.015  73.295  -8.557  0.00  0.00     0.210 HD
ENDBRANCH   3  28
BRANCH   5  30
ATOM     30  C6  SN5 d          29.865  70.298  -4.873  0.00  0.00     0.198 C 
BRANCH  30  31
ATOM     31  O6  SN5 d          29.478  69.506  -3.738  0.00  0.00    -0.398 OA
ATOM     32  H14 SN5 d          29.469  70.052  -2.961  0.00  0.00     0.209 HD
ENDBRANCH  30  31
ENDBRANCH   5  30
BRANCH   4  33
ATOM     33  O4  SN5 d          28.756  71.222  -7.481  0.00  0.00    -0.390 OA
ATOM     34  H13 SN5 d          28.897  71.613  -8.335  0.00  0.00     0.210 HD
ENDBRANCH   4  33
TORSDOF 11
