REMARK  7 active torsions:
REMARK  status: ('A' for Active; 'I' for Inactive)
REMARK    1  A    between atoms: C02_2  and  C03_3 
REMARK    2  A    between atoms: C02_2  and  C10_10 
REMARK    3  A    between atoms: C04_4  and  C05_5 
REMARK    4  A    between atoms: C05_5  and  C07_7 
REMARK    5  A    between atoms: C10_10  and  C12_12 
REMARK    6  A    between atoms: C12_12  and  C13_13 
REMARK    7  A    between atoms: C13_13  and  C14_14 
ROOT
ATOM      1  C13 KEM d          11.886 -40.793   7.555  0.00  0.00     0.020 C 
ENDROOT
BRANCH   1   2
ATOM      2  C12 KEM d          12.353 -40.841   9.059  0.00  0.00     0.080 C 
BRANCH   2   3
ATOM      3  C10 KEM d          11.411 -41.427  10.172  0.00  0.00     0.134 C 
ATOM      4  O11 KEM d          11.795 -41.822  11.199  0.00  0.00    -0.297 OA
BRANCH   3   5
ATOM      5  C02 KEM d          10.002 -40.872  10.210  0.00  0.00     0.074 C 
ATOM      6  C01 KEM d           9.852 -39.536   9.471  0.00  0.00     0.022 C 
BRANCH   5   7
ATOM      7  C03 KEM d           9.317 -40.938  11.583  0.00  0.00    -0.011 C 
ATOM      8  C04 KEM d           9.358 -39.841  12.342  0.00  0.00     0.059 C 
BRANCH   8   9
ATOM      9  C05 KEM d           8.829 -39.780  13.777  0.00  0.00     0.247 C 
ATOM     10  O06 KEM d           8.771 -40.794  14.367  0.00  0.00    -0.281 OA
BRANCH   9  11
ATOM     11  C07 KEM d           8.436 -38.438  14.435  0.00  0.00     0.251 C 
ATOM     12  O08 KEM d           8.116 -37.291  13.720  0.00  0.00    -0.642 OA
ATOM     13  O09 KEM d           8.825 -38.185  15.508  0.00  0.00    -0.642 OA
ENDBRANCH   9  11
ENDBRANCH   8   9
ENDBRANCH   5   7
ENDBRANCH   3   5
ENDBRANCH   2   3
ENDBRANCH   1   2
BRANCH   1  14
ATOM     14  C14 KEM d          13.188 -40.760   6.671  0.00  0.00     0.061 C 
ATOM     15  C15 KEM d          13.178 -40.556   5.086  0.00  0.00     0.013 C 
ATOM     16  C16 KEM d          13.617 -39.135   4.685  0.00  0.00     0.014 C 
ATOM     17  C20 KEM d          14.269 -41.408   4.318  0.00  0.00     0.021 C 
ATOM     18  C17 KEM d          14.208 -39.217   3.268  0.00  0.00     0.079 C 
ATOM     19  C18 KEM d          14.877 -40.589   3.190  0.00  0.00     0.135 C 
ATOM     20  O19 KEM d          15.342 -41.098   2.226  0.00  0.00    -0.297 OA
ATOM     21  C21 KEM d          13.793 -42.762   3.723  0.00  0.00     0.024 C 
ATOM     22  C22 KEM d          15.383 -41.821   5.251  0.00  0.00     0.025 C 
ATOM     23  C23 KEM d          14.672 -42.843   6.111  0.00  0.00     0.080 C 
ATOM     24  C24 KEM d          13.843 -42.053   7.081  0.00  0.00     0.131 C 
ATOM     25  O25 KEM d          13.543 -42.540   8.088  0.00  0.00    -0.298 OA
ENDBRANCH   1  14
TORSDOF 7
