REMARK  7 active torsions:
REMARK  status: ('A' for Active; 'I' for Inactive)
REMARK    1  A    between atoms: C2_2  and  S21_21 
REMARK    2  A    between atoms: N7_7  and  C4_4 
REMARK    3  A    between atoms: C5_5  and  C18_18 
REMARK    4  A    between atoms: C23_23  and  N7_7 
REMARK    5  A    between atoms: C8_8  and  C23_23 
REMARK    6  A    between atoms: C11_11  and  S14_14 
REMARK    7  A    between atoms: S14_14  and  N17_17 
ROOT
ATOM      1  N7  JDR d          -4.523   6.279  12.908  0.00  0.00    -0.370 N 
ATOM      2  H1  JDR d          -5.272   5.766  12.422  0.00  0.00     0.161 HD
ENDROOT
BRANCH   1   3
ATOM      3  C4  JDR d          -4.341   7.676  12.617  0.00  0.00     0.143 A 
ATOM      4  N3  JDR d          -3.325   8.348  13.161  0.00  0.00    -0.204 NA
ATOM      5  C2  JDR d          -3.170   9.642  12.892  0.00  0.00     0.191 A 
ATOM      6  N1  JDR d          -3.992  10.307  12.091  0.00  0.00    -0.210 NA
ATOM      7  C6  JDR d          -5.016   9.686  11.523  0.00  0.00     0.146 A 
ATOM      8  C5  JDR d          -5.230   8.334  11.769  0.00  0.00     0.088 A 
ATOM      9 CL20 JDR d          -6.067  10.593  10.499  0.00  0.00    -0.061 Cl
BRANCH   5  10
ATOM     10  S21 JDR d          -1.824  10.471  13.659  0.00  0.00    -0.095 SA
ATOM     11  C22 JDR d          -1.103   9.460  14.994  0.00  0.00     0.099 C 
ENDBRANCH   5  10
BRANCH   8  12
ATOM     12  C18 JDR d          -6.372   7.633  11.140  0.00  0.00     0.277 C 
ATOM     13  O19 JDR d          -6.810   6.592  11.635  0.00  0.00    -0.301 OA
ENDBRANCH   8  12
ENDBRANCH   1   3
BRANCH   1  14
ATOM     14  C23 JDR d          -3.694   5.565  13.858  0.00  0.00     0.160 C 
BRANCH  14  15
ATOM     15  C8  JDR d          -4.393   4.464  14.585  0.00  0.00    -0.041 A 
ATOM     16  C9  JDR d          -5.758   4.446  14.879  0.00  0.00     0.010 A 
ATOM     17  C10 JDR d          -6.299   3.353  15.567  0.00  0.00     0.026 A 
ATOM     18  C11 JDR d          -5.455   2.300  15.946  0.00  0.00     0.079 A 
ATOM     19  C12 JDR d          -4.102   2.332  15.644  0.00  0.00     0.026 A 
ATOM     20  C13 JDR d          -3.571   3.419  14.965  0.00  0.00     0.010 A 
BRANCH  18  21
ATOM     21  S14 JDR d          -6.050   0.910  16.802  0.00  0.00     0.256 S 
ATOM     22  O15 JDR d          -5.529   0.982  18.215  0.00  0.00    -0.201 OA
ATOM     23  O16 JDR d          -7.563   0.898  16.634  0.00  0.00    -0.201 OA
BRANCH  21  24
ATOM     24  N17 JDR d          -5.395  -0.492  16.058  0.00  0.00    -0.324 N 
ATOM     25  H6  JDR d          -5.623  -1.399  16.412  0.00  0.00     0.169 HD
ATOM     26  H7  JDR d          -4.785  -0.402  15.271  0.00  0.00     0.169 HD
ENDBRANCH  21  24
ENDBRANCH  18  21
ENDBRANCH  14  15
ENDBRANCH   1  14
TORSDOF 7
