REMARK  9 active torsions:
REMARK  status: ('A' for Active; 'I' for Inactive)
REMARK    1  A    between atoms: C24_1  and  C26_3 
REMARK       I    between atoms: C24_1  and  N23_17 
REMARK    2  A    between atoms: C27_4  and  C28_5 
REMARK    3  A    between atoms: C33_10  and  N34_11 
REMARK    4  A    between atoms: N23_17  and  C8_18 
REMARK    5  A    between atoms: C8_18  and  C9_19 
REMARK    6  A    between atoms: C8_18  and  C7_21 
REMARK       I    between atoms: C9_19  and  N11_28 
REMARK    7  A    between atoms: C7_21  and  C4_22 
REMARK    8  A    between atoms: N11_28  and  C12_29 
REMARK    9  A    between atoms: C15_32  and  C18_35 
ROOT
ATOM      1  C8  OTM d         -51.173 -11.251 -24.616  0.00  0.00     0.181 C 
ENDROOT
BRANCH   1   2
ATOM      2  N23 OTM d         -50.457 -11.115 -23.347  0.00  0.00    -0.344 N 
ATOM      3  C24 OTM d         -49.648 -10.019 -23.183  0.00  0.00     0.241 C 
ATOM      4  O25 OTM d         -49.549  -9.153 -24.037  0.00  0.00    -0.269 OA
ATOM      5  H7  OTM d         -50.554 -11.798 -22.623  0.00  0.00     0.163 HD
BRANCH   3   6
ATOM      6  C26 OTM d         -48.837  -9.891 -21.937  0.00  0.00     0.075 C 
ATOM      7  C27 OTM d         -48.965 -10.723 -20.891  0.00  0.00     0.019 C 
BRANCH   7   8
ATOM      8  C28 OTM d         -48.104 -10.491 -19.711  0.00  0.00    -0.006 A 
ATOM      9  C29 OTM d         -46.724 -10.533 -19.831  0.00  0.00     0.037 A 
ATOM     10  C30 OTM d         -45.888 -10.321 -18.744  0.00  0.00     0.035 A 
ATOM     11  C31 OTM d         -46.433 -10.060 -17.500  0.00  0.00     0.026 A 
ATOM     12 CL   OTM d         -44.156 -10.384 -18.927  0.00  0.00    -0.084 Cl
ATOM     13  C32 OTM d         -47.802 -10.020 -17.355  0.00  0.00     0.034 A 
ATOM     14  C33 OTM d         -48.619 -10.232 -18.451  0.00  0.00     0.065 A 
BRANCH  14  15
ATOM     15  N34 OTM d         -50.005 -10.178 -18.241  0.00  0.00    -0.233 N 
ATOM     16  C35 OTM d         -50.752 -10.946 -17.402  0.00  0.00     0.249 A 
ATOM     17  N36 OTM d         -52.015 -10.606 -17.535  0.00  0.00    -0.156 NA
ATOM     18  N37 OTM d         -52.043  -9.612 -18.475  0.00  0.00     0.017 NA
ATOM     19  N38 OTM d         -50.817  -9.350 -18.909  0.00  0.00     0.002 NA
ENDBRANCH  14  15
ENDBRANCH   7   8
ENDBRANCH   3   6
ENDBRANCH   1   2
BRANCH   1  20
ATOM     20  C9  OTM d         -52.435 -10.413 -24.554  0.00  0.00     0.245 C 
ATOM     21  O10 OTM d         -53.268 -10.501 -23.658  0.00  0.00    -0.271 OA
ATOM     22  N11 OTM d         -52.527  -9.574 -25.650  0.00  0.00    -0.325 N 
ATOM     23  H16 OTM d         -51.801  -9.655 -26.333  0.00  0.00     0.169 HD
BRANCH  22  24
ATOM     24  C12 OTM d         -53.533  -8.613 -25.914  0.00  0.00     0.034 A 
ATOM     25  C13 OTM d         -53.456  -7.909 -27.093  0.00  0.00     0.030 A 
ATOM     26  C14 OTM d         -54.396  -6.953 -27.418  0.00  0.00     0.018 A 
ATOM     27  C15 OTM d         -55.437  -6.692 -26.547  0.00  0.00     0.015 A 
ATOM     28  C16 OTM d         -55.518  -7.400 -25.368  0.00  0.00     0.018 A 
ATOM     29  C17 OTM d         -54.582  -8.362 -25.049  0.00  0.00     0.030 A 
BRANCH  27  30
ATOM     30  C18 OTM d         -56.405  -5.662 -26.834  0.00  0.00     0.197 A 
ATOM     31  N19 OTM d         -56.693  -5.196 -28.082  0.00  0.00    -0.139 NA
ATOM     32  N20 OTM d         -57.621  -4.234 -28.001  0.00  0.00    -0.200 N 
ATOM     33  N21 OTM d         -57.884  -4.110 -26.706  0.00  0.00     0.022 NA
ATOM     34  H21 OTM d         -58.041  -3.704 -28.778  0.00  0.00     0.208 HD
ATOM     35  N22 OTM d         -57.139  -4.988 -25.973  0.00  0.00    -0.136 NA
ENDBRANCH  27  30
ENDBRANCH  22  24
ENDBRANCH   1  20
BRANCH   1  36
ATOM     36  C7  OTM d         -51.578 -12.700 -24.835  0.00  0.00     0.073 C 
BRANCH  36  37
ATOM     37  C4  OTM d         -52.155 -12.972 -26.191  0.00  0.00    -0.056 A 
ATOM     38  C3  OTM d         -53.222 -13.840 -26.298  0.00  0.00     0.007 A 
ATOM     39  C2  OTM d         -53.780 -14.127 -27.531  0.00  0.00     0.001 A 
ATOM     40  C1  OTM d         -53.267 -13.548 -28.673  0.00  0.00     0.000 A 
ATOM     41  C6  OTM d         -52.201 -12.676 -28.576  0.00  0.00     0.001 A 
ATOM     42  C5  OTM d         -51.652 -12.394 -27.341  0.00  0.00     0.007 A 
ENDBRANCH  36  37
ENDBRANCH   1  36
TORSDOF 9
