REMARK  0 active torsions:
REMARK  status: ('A' for Active; 'I' for Inactive)
ROOT
ATOM      1  C1  BNZ d         -32.969   6.196   2.877  0.00  0.00     0.000 A 
ATOM      2  C2  BNZ d         -32.945   7.046   3.973  0.00  0.00     0.000 A 
ATOM      3  C3  BNZ d         -33.719   6.798   5.113  0.00  0.00     0.000 A 
ATOM      4  C4  BNZ d         -34.540   5.680   5.143  0.00  0.00     0.000 A 
ATOM      5  C5  BNZ d         -34.545   4.825   4.044  0.00  0.00     0.000 A 
ATOM      6  C6  BNZ d         -33.787   5.069   2.915  0.00  0.00     0.000 A 
ENDROOT
TORSDOF 0
