REMARK  1 active torsions:
REMARK  status: ('A' for Active; 'I' for Inactive)
REMARK    1  A    between atoms: N1_8  and  O1_9 
ROOT
ATOM      1  S1  MOL d          14.901   0.229  17.004  0.00  0.00    -0.058 SA
ATOM      2  C1  MOL d          15.422   1.299  15.781  0.00  0.00     0.129 A 
ATOM      3  C2  MOL d          15.083   2.697  15.855  0.00  0.00     0.051 A 
ATOM      4  C3  MOL d          15.510   3.551  14.888  0.00  0.00    -0.058 A 
ATOM      5  C6  MOL d          15.132   4.971  14.942  0.00  0.00     0.048 C 
ATOM      6  C4  MOL d          16.308   3.066  13.809  0.00  0.00     0.026 A 
ATOM      7  C5  MOL d          16.651   1.741  13.753  0.00  0.00     0.125 A 
ATOM      8  N1  MOL d          16.197   0.841  14.764  0.00  0.00    -0.225 N 
ENDROOT
BRANCH   8   9
ATOM      9  O1  MOL d          16.568  -0.434  14.735  0.00  0.00    -0.282 OA
ATOM     10  H7  MOL d          17.515  -0.488  14.787  0.00  0.00     0.245 HD
ENDBRANCH   8   9
TORSDOF 1
