REMARK  3 active torsions:
REMARK  status: ('A' for Active; 'I' for Inactive)
REMARK    1  A    between atoms: C4_1  and  C5_2 
REMARK    2  A    between atoms: C4_1  and  O6_6 
REMARK    3  A    between atoms: C5_2  and  N1_7 
ROOT
ATOM      1  C5  CHT d          26.838  20.291  14.785  0.00  0.00     0.262 C 
ENDROOT
BRANCH   1   2
ATOM      2  C4  CHT d          25.515  20.811  14.204  0.00  0.00     0.192 C 
BRANCH   2   3
ATOM      3  O6  CHT d          24.953  19.892  13.263  0.00  0.00    -0.399 OA
ATOM      4  H14 CHT d          24.138  20.245  12.925  0.00  0.00     0.209 HD
ENDBRANCH   2   3
ENDBRANCH   1   2
BRANCH   1   5
ATOM      5  N1  CHT d          26.745  18.915  15.303  0.00  0.00    -0.077 N 
ATOM      6  C6  CHT d          26.979  17.948  14.225  0.00  0.00     0.271 C 
ATOM      7  C7  CHT d          27.770  18.731  16.332  0.00  0.00     0.271 C 
ATOM      8  C8  CHT d          25.451  18.649  15.933  0.00  0.00     0.271 C 
ENDBRANCH   1   5
TORSDOF 3
