REMARK  28 active torsions:
REMARK  status: ('A' for Active; 'I' for Inactive)
REMARK    1  A    between atoms: N_1  and  CA_2 
REMARK    2  A    between atoms: CA_2  and  C_3 
REMARK    3  A    between atoms: CA_2  and  CB_5 
REMARK       I    between atoms: C_3  and  N_10 
REMARK    4  A    between atoms: CB_5  and  CG_6 
REMARK    5  A    between atoms: CG_6  and  CD_7 
REMARK    6  A    between atoms: CA_11  and  C_12 
REMARK       I    between atoms: C_12  and  N_17 
REMARK    7  A    between atoms: N_17  and  CA_18 
REMARK    8  A    between atoms: CA_18  and  C_19 
REMARK    9  A    between atoms: CA_18  and  CB_21 
REMARK       I    between atoms: C_19  and  N_26 
REMARK   10  A    between atoms: CB_21  and  CG_22 
REMARK   11  A    between atoms: CG_22  and  CD_23 
REMARK       I    between atoms: CD_23  and  NE2_25 
REMARK   12  A    between atoms: N_26  and  CA_27 
REMARK   13  A    between atoms: CA_27  and  C_28 
REMARK       I    between atoms: C_28  and  N_31 
REMARK   14  A    between atoms: CA_32  and  C_33 
REMARK       I    between atoms: C_33  and  N_38 
REMARK   15  A    between atoms: N_38  and  CA_39 
REMARK   16  A    between atoms: CA_39  and  C_40 
REMARK   17  A    between atoms: CA_39  and  CB_42 
REMARK       I    between atoms: C_40  and  N_52 
REMARK   18  A    between atoms: CB_42  and  CG_43 
REMARK   19  A    between atoms: N_52  and  CA_53 
REMARK   20  A    between atoms: CA_53  and  C_54 
REMARK   21  A    between atoms: CA_53  and  CB_56 
REMARK       I    between atoms: C_54  and  N_60 
REMARK   22  A    between atoms: CB_56  and  CG_57 
REMARK   23  A    between atoms: CG_57  and  SD_58 
REMARK   24  A    between atoms: N_60  and  CA_61 
REMARK   25  A    between atoms: CA_61  and  C_62 
REMARK   26  A    between atoms: CA_61  and  CB_64 
REMARK   27  A    between atoms: CB_64  and  CG_65 
REMARK   28  A    between atoms: CG_65  and  CD_66 
ROOT
ATOM      1  C   GLU d          29.198 -14.379  33.709  0.00  0.00     0.243 C 
ATOM      2  O   GLU d          28.968 -13.839  34.794  0.00  0.00    -0.271 OA
ATOM      3  N   GLU d          30.441 -14.718  33.314  0.00  0.00    -0.337 N 
ATOM      4  CA  GLU d          31.667 -14.603  34.116  0.00  0.00     0.179 C 
ATOM      5  CB  GLU d          32.769 -14.929  33.103  0.00  0.00     0.037 C 
ATOM      6  CG  GLU d          32.096 -15.922  32.167  0.00  0.00     0.022 C 
ATOM      7  CD  GLU d          30.711 -15.326  32.001  0.00  0.00     0.127 C 
ENDROOT
BRANCH   4   8
ATOM      8  C   GLU d          31.889 -13.221  34.718  0.00  0.00     0.241 C 
ATOM      9  O   GLU d          32.206 -13.120  35.902  0.00  0.00    -0.271 OA
ATOM     10  N   GLU d          31.721 -12.175  33.917  0.00  0.00    -0.346 N 
ATOM     11  H36 GLU d          31.403 -12.319  32.980  0.00  0.00     0.163 HD
BRANCH  10  12
ATOM     12  CA  GLU d          31.993 -10.820  34.383  0.00  0.00     0.181 C 
BRANCH  12  13
ATOM     13  C   GLU d          31.108 -10.482  35.590  0.00  0.00     0.241 C 
ATOM     14  O   GLU d          31.456  -9.636  36.414  0.00  0.00    -0.271 OA
ATOM     15  N   GLU d          29.969 -11.157  35.702  0.00  0.00    -0.346 N 
ATOM     16  H46 GLU d          29.675 -11.758  34.958  0.00  0.00     0.163 HD
BRANCH  15  17
ATOM     17  CA  GLU d          29.140 -11.032  36.899  0.00  0.00     0.177 C 
BRANCH  17  18
ATOM     18  C   GLU d          29.825 -11.730  38.078  0.00  0.00     0.241 C 
ATOM     19  O   GLU d          29.178 -12.110  39.057  0.00  0.00    -0.271 OA
ATOM     20  N   GLU d          31.144 -11.887  37.965  0.00  0.00    -0.345 N 
ATOM     21  H55 GLU d          31.581 -11.616  37.107  0.00  0.00     0.163 HD
BRANCH  20  22
ATOM     22  CA  GLU d          31.984 -12.432  39.023  0.00  0.00     0.186 C 
BRANCH  22  23
ATOM     23  C   GLU d          33.408 -11.902  38.855  0.00  0.00     0.196 C 
ATOM     24  O   GLU d          33.736 -11.243  37.832  0.00  0.00    -0.646 OA
ATOM     25  O   GLU d          34.265 -12.127  39.751  0.00  0.00    -0.646 OA
ENDBRANCH  22  23
BRANCH  22  26
ATOM     26  CB  GLU d          31.993 -13.961  38.969  0.00  0.00     0.046 C 
BRANCH  26  27
ATOM     27  CG  GLU d          30.598 -14.593  39.022  0.00  0.00     0.116 C 
BRANCH  27  28
ATOM     28  CD  GLU d          30.539 -15.970  38.391  0.00  0.00     0.172 C 
ATOM     29  OE1 GLU d          31.582 -16.457  37.906  0.00  0.00    -0.648 OA
ATOM     30  OE2 GLU d          29.437 -16.561  38.372  0.00  0.00    -0.648 OA
ENDBRANCH  27  28
ENDBRANCH  26  27
ENDBRANCH  22  26
ENDBRANCH  20  22
ENDBRANCH  17  18
BRANCH  17  31
ATOM     31  CB  GLU d          27.728 -11.582  36.647  0.00  0.00     0.045 C 
BRANCH  31  32
ATOM     32  CG  GLU d          26.975 -10.814  35.549  0.00  0.00     0.076 C 
BRANCH  32  33
ATOM     33  SD  GLU d          25.263 -11.322  35.271  0.00  0.00    -0.173 SA
ATOM     34  CE  GLU d          24.421 -10.547  36.650  0.00  0.00     0.089 C 
ENDBRANCH  32  33
ENDBRANCH  31  32
ENDBRANCH  17  31
ENDBRANCH  15  17
ENDBRANCH  12  13
BRANCH  12  35
ATOM     35  CB  GLU d          31.771  -9.810  33.257  0.00  0.00     0.075 C 
BRANCH  35  36
ATOM     36  CG  GLU d          30.333  -9.603  32.945  0.00  0.00    -0.028 A 
ATOM     37  CD1 GLU d          29.509  -8.651  33.470  0.00  0.00     0.096 A 
ATOM     38  NE1 GLU d          28.245  -8.781  32.952  0.00  0.00    -0.365 N 
ATOM     39  CE2 GLU d          28.233  -9.830  32.071  0.00  0.00     0.042 A 
ATOM     40  H41 GLU d          27.437  -8.187  33.187  0.00  0.00     0.165 HD
ATOM     41  CD2 GLU d          29.533 -10.373  32.042  0.00  0.00    -0.002 A 
ATOM     42  CZ2 GLU d          27.193 -10.343  31.302  0.00  0.00     0.030 A 
ATOM     43  CE3 GLU d          29.790 -11.469  31.210  0.00  0.00     0.014 A 
ATOM     44  CZ3 GLU d          28.752 -11.981  30.447  0.00  0.00     0.001 A 
ATOM     45  CH2 GLU d          27.469 -11.416  30.500  0.00  0.00     0.002 A 
ENDBRANCH  35  36
ENDBRANCH  12  35
ENDBRANCH  10  12
ENDBRANCH   4   8
BRANCH   1  46
ATOM     46  CA  GLU d          28.053 -14.745  32.751  0.00  0.00     0.172 C 
ATOM     47  CB  GLU d          26.779 -13.883  33.007  0.00  0.00     0.042 C 
BRANCH  46  48
ATOM     48  N   GLU d          27.767 -16.170  32.926  0.00  0.00    -0.346 N 
ATOM     49  C   GLU d          27.733 -17.026  31.903  0.00  0.00     0.241 C 
ATOM     50  O   GLU d          27.808 -16.679  30.726  0.00  0.00    -0.271 OA
ATOM     51  H24 GLU d          27.590 -16.515  33.848  0.00  0.00     0.163 HD
BRANCH  49  52
ATOM     52  CA  GLU d          27.585 -18.503  32.246  0.00  0.00     0.177 C 
BRANCH  52  53
ATOM     53  N   GLU d          28.584 -18.910  33.254  0.00  0.00    -0.346 N 
ATOM     54  C   GLU d          28.382 -18.877  34.576  0.00  0.00     0.241 C 
ATOM     55  O   GLU d          27.296 -18.632  35.101  0.00  0.00    -0.271 OA
ATOM     56  H16 GLU d          29.472 -19.232  32.926  0.00  0.00     0.163 HD
BRANCH  54  57
ATOM     57  CA  GLU d          29.602 -19.141  35.475  0.00  0.00     0.179 C 
ATOM     58  N   GLU d          30.167 -20.499  35.378  0.00  0.00    -0.337 N 
ATOM     59  C   GLU d          29.445 -21.637  35.341  0.00  0.00     0.251 C 
ATOM     60  CD  GLU d          31.574 -20.422  34.968  0.00  0.00     0.127 C 
ATOM     61  O   GLU d          28.223 -21.645  35.461  0.00  0.00    -0.271 OA
ATOM     62  CG  GLU d          31.575 -19.164  34.220  0.00  0.00     0.022 C 
ATOM     63  CB  GLU d          30.763 -18.266  34.973  0.00  0.00     0.037 C 
BRANCH  59  64
ATOM     64  CA  GLU d          30.183 -22.974  35.128  0.00  0.00     0.275 C 
BRANCH  64  65
ATOM     65  N   GLU d          31.619 -22.874  34.881  0.00  0.00    -0.066 N 
ATOM     66  H1  GLU d          32.004 -23.797  34.756  0.00  0.00     0.275 HD
ATOM     67  H2  GLU d          32.065 -22.428  35.667  0.00  0.00     0.275 HD
ATOM     68  H3  GLU d          31.780 -22.328  34.049  0.00  0.00     0.275 HD
ENDBRANCH  64  65
BRANCH  64  69
ATOM     69  CB  GLU d          29.935 -23.882  36.327  0.00  0.00     0.053 C 
BRANCH  69  70
ATOM     70  CG  GLU d          30.847 -25.094  36.343  0.00  0.00     0.115 C 
BRANCH  70  71
ATOM     71  CD  GLU d          30.531 -26.058  37.465  0.00  0.00     0.172 C 
ATOM     72  OE1 GLU d          29.850 -25.651  38.430  0.00  0.00    -0.648 OA
ATOM     73  OE2 GLU d          30.972 -27.223  37.381  0.00  0.00    -0.648 OA
ENDBRANCH  70  71
ENDBRANCH  69  70
ENDBRANCH  64  69
ENDBRANCH  59  64
ENDBRANCH  54  57
ENDBRANCH  52  53
BRANCH  52  74
ATOM     74  CB  GLU d          26.139 -18.818  32.664  0.00  0.00     0.044 C 
BRANCH  74  75
ATOM     75  CG  GLU d          25.862 -20.311  32.803  0.00  0.00     0.105 C 
BRANCH  75  76
ATOM     76  CD  GLU d          26.435 -21.102  31.646  0.00  0.00     0.215 C 
ATOM     77  OE1 GLU d          25.931 -21.035  30.523  0.00  0.00    -0.274 OA
ATOM     78  NE2 GLU d          27.500 -21.849  31.908  0.00  0.00    -0.370 N 
ATOM     79  H22 GLU d          27.920 -22.393  31.182  0.00  0.00     0.159 HD
ATOM     80  H23 GLU d          27.882 -21.868  32.832  0.00  0.00     0.159 HD
ENDBRANCH  75  76
ENDBRANCH  74  75
ENDBRANCH  52  74
ENDBRANCH  49  52
ENDBRANCH  46  48
ENDBRANCH   1  46
TORSDOF 28
