REMARK  4 active torsions:
REMARK  status: ('A' for Active; 'I' for Inactive)
REMARK    1  A    between atoms: N25_5  and  C5'_6 
REMARK    2  A    between atoms: C5'_6  and  C4'_7 
REMARK    3  A    between atoms: C3'_9  and  O3'_10 
REMARK    4  A    between atoms: C1'_12  and  N1_13 
ROOT
ATOM      1  C4' TXS d          39.059  -0.475  13.182  0.00  0.00     0.178 C 
ATOM      2  O4' TXS d          38.653  -1.403  12.145  0.00  0.00    -0.357 OA
ATOM      3  C3' TXS d          38.145   0.751  12.936  0.00  0.00     0.153 C 
ATOM      4  C2' TXS d          36.972   0.142  12.146  0.00  0.00     0.088 C 
ATOM      5  C1' TXS d          37.272  -1.306  12.522  0.00  0.00     0.235 C 
ENDROOT
BRANCH   5   6
ATOM      6  N1  TXS d          36.380  -2.479  12.341  0.00  0.00    -0.282 N 
ATOM      7  C6  TXS d          36.735  -3.575  13.139  0.00  0.00     0.110 A 
ATOM      8  C5  TXS d          35.984  -4.738  13.121  0.00  0.00     0.022 A 
ATOM      9  C5M TXS d          36.439  -5.896  13.999  0.00  0.00     0.056 C 
ATOM     10  C4  TXS d          34.851  -4.815  12.311  0.00  0.00     0.256 A 
ATOM     11  O4  TXS d          34.176  -5.842  12.285  0.00  0.00    -0.267 OA
ATOM     12  N3  TXS d          34.471  -3.717  11.515  0.00  0.00    -0.275 N 
ATOM     13  C2  TXS d          35.229  -2.529  11.526  0.00  0.00     0.331 A 
ATOM     14  H22 TXS d          33.657  -3.781  10.938  0.00  0.00     0.173 HD
ATOM     15  O2  TXS d          34.885  -1.578  10.830  0.00  0.00    -0.246 OA
ENDBRANCH   5   6
BRANCH   1  16
ATOM     16  C5' TXS d          40.549  -0.141  13.245  0.00  0.00     0.269 C 
BRANCH  16  17
ATOM     17  N25 TXS d          41.032  -0.604  14.552  0.00  0.00    -0.069 N 
ATOM     18  C21 TXS d          41.988   0.383  15.087  0.00  0.00     0.235 C 
ATOM     19  C22 TXS d          42.903  -0.417  16.033  0.00  0.00     0.029 C 
ATOM     20  C23 TXS d          42.680  -1.888  15.654  0.00  0.00     0.029 C 
ATOM     21  C24 TXS d          41.829  -1.833  14.385  0.00  0.00     0.235 C 
ATOM     22  H9  TXS d          40.259  -0.750  15.182  0.00  0.00     0.280 HD
ENDBRANCH  16  17
ENDBRANCH   1  16
BRANCH   3  23
ATOM     23  O3' TXS d          37.688   1.201  14.216  0.00  0.00    -0.393 OA
ATOM     24  H14 TXS d          37.122   1.956  14.102  0.00  0.00     0.210 HD
ENDBRANCH   3  23
TORSDOF 4
