REMARK  16 active torsions:
REMARK  status: ('A' for Active; 'I' for Inactive)
REMARK    1  A    between atoms: C2_2  and  N1_1 
REMARK    2  A    between atoms: S8_8  and  C5_5 
REMARK    3  A    between atoms: N11_11  and  S8_8 
REMARK    4  A    between atoms: N11_11  and  C12_12 
REMARK    5  A    between atoms: C16_16  and  N11_11 
REMARK    6  A    between atoms: C12_12  and  C13_13 
REMARK    7  A    between atoms: C13_13  and  C14_14 
REMARK    8  A    between atoms: C13_13  and  C15_15 
REMARK    9  A    between atoms: C17_17  and  C16_16 
REMARK   10  A    between atoms: C17_17  and  O18_19 
REMARK   11  A    between atoms: C19_20  and  C17_17 
REMARK   12  A    between atoms: C19_20  and  N20_22 
REMARK   13  A    between atoms: C32_34  and  C19_20 
REMARK       I    between atoms: N20_22  and  C21_23 
REMARK   14  A    between atoms: C21_23  and  O23_25 
REMARK   15  A    between atoms: O23_25  and  C24_26 
REMARK   16  A    between atoms: C38_40  and  C32_34 
ROOT
ATOM      1  C17 A60 d          19.847  29.385  15.684  0.00  0.00     0.160 C 
ENDROOT
BRANCH   1   2
ATOM      2  C16 A60 d          18.890  30.456  16.229  0.00  0.00     0.169 C 
BRANCH   2   3
ATOM      3  N11 A60 d          19.135  31.740  15.541  0.00  0.00    -0.304 N 
BRANCH   3   4
ATOM      4  S8  A60 d          17.922  32.351  14.664  0.00  0.00     0.260 S 
ATOM      5  O9  A60 d          18.551  33.251  13.727  0.00  0.00    -0.200 OA
ATOM      6  O10 A60 d          17.232  31.241  14.066  0.00  0.00    -0.200 OA
BRANCH   4   7
ATOM      7  C5  A60 d          16.881  33.175  15.610  0.00  0.00     0.079 A 
ATOM      8  C4  A60 d          17.001  34.549  15.904  0.00  0.00     0.027 A 
ATOM      9  C3  A60 d          16.079  35.194  16.760  0.00  0.00     0.030 A 
ATOM     10  C2  A60 d          15.045  34.440  17.334  0.00  0.00     0.025 A 
ATOM     11  C7  A60 d          14.912  33.097  17.046  0.00  0.00     0.030 A 
ATOM     12  C6  A60 d          15.816  32.482  16.186  0.00  0.00     0.027 A 
BRANCH  10  13
ATOM     13  N1  A60 d          14.122  34.996  18.177  0.00  0.00    -0.399 N 
ATOM     14  H1  A60 d          14.182  35.995  18.420  0.00  0.00     0.156 HD
ATOM     15  H2  A60 d          13.367  34.415  18.569  0.00  0.00     0.156 HD
ENDBRANCH  10  13
ENDBRANCH   4   7
ENDBRANCH   3   4
BRANCH   3  16
ATOM     16  C12 A60 d          19.837  32.750  16.372  0.00  0.00     0.140 C 
BRANCH  16  17
ATOM     17  C13 A60 d          21.346  32.539  16.401  0.00  0.00     0.003 C 
BRANCH  17  18
ATOM     18  C14 A60 d          21.963  32.650  15.004  0.00  0.00     0.002 C 
ATOM     19  C20 A60 d          23.417  32.232  14.896  0.00  0.00     0.005 C 
ENDBRANCH  17  18
BRANCH  17  20
ATOM     20  C15 A60 d          21.971  33.540  17.389  0.00  0.00     0.002 C 
ATOM     21  C18 A60 d          21.857  34.996  16.981  0.00  0.00     0.005 C 
ENDBRANCH  17  20
ENDBRANCH  16  17
ENDBRANCH   3  16
ENDBRANCH   2   3
ENDBRANCH   1   2
BRANCH   1  22
ATOM     22  O18 A60 d          19.809  28.211  16.540  0.00  0.00    -0.392 OA
ATOM     23  H20 A60 d          20.402  27.552  16.199  0.00  0.00     0.210 HD
ENDBRANCH   1  22
BRANCH   1  24
ATOM     24  C19 A60 d          19.531  28.963  14.250  0.00  0.00     0.121 C 
BRANCH  24  25
ATOM     25  N20 A60 d          20.636  28.157  13.780  0.00  0.00    -0.329 N 
ATOM     26  C21 A60 d          21.507  28.543  12.864  0.00  0.00     0.361 C 
ATOM     27  O22 A60 d          21.578  29.587  12.253  0.00  0.00    -0.238 OA
ATOM     28  H25 A60 d          20.749  27.245  14.175  0.00  0.00     0.165 HD
BRANCH  26  29
ATOM     29  O23 A60 d          22.461  27.514  12.615  0.00  0.00    -0.296 OA
BRANCH  29  30
ATOM     30  C24 A60 d          23.294  27.660  11.471  0.00  0.00     0.166 C 
ATOM     31  C25 A60 d          24.608  27.059  11.926  0.00  0.00     0.204 C 
ATOM     32  O26 A60 d          24.406  25.650  11.798  0.00  0.00    -0.358 OA
ATOM     33  C27 A60 d          23.523  25.388  10.712  0.00  0.00     0.266 C 
ATOM     34  O28 A60 d          22.543  24.465  11.144  0.00  0.00    -0.361 OA
ATOM     35  C31 A60 d          22.846  26.710  10.384  0.00  0.00     0.075 C 
ATOM     36  C29 A60 d          21.268  25.099  11.196  0.00  0.00     0.171 C 
ATOM     37  C30 A60 d          21.366  26.348  10.317  0.00  0.00     0.038 C 
ENDBRANCH  29  30
ENDBRANCH  26  29
ENDBRANCH  24  25
BRANCH  24  38
ATOM     38  C32 A60 d          18.230  28.173  14.101  0.00  0.00     0.066 C 
BRANCH  38  39
ATOM     39  C38 A60 d          17.989  27.738  12.666  0.00  0.00    -0.056 A 
ATOM     40  C33 A60 d          18.064  26.415  12.238  0.00  0.00     0.007 A 
ATOM     41  C34 A60 d          17.872  26.087  10.902  0.00  0.00     0.001 A 
ATOM     42  C35 A60 d          17.583  27.073   9.976  0.00  0.00     0.000 A 
ATOM     43  C36 A60 d          17.511  28.384  10.391  0.00  0.00     0.001 A 
ATOM     44  C37 A60 d          17.704  28.716  11.722  0.00  0.00     0.007 A 
ENDBRANCH  38  39
ENDBRANCH  24  38
ENDBRANCH   1  24
TORSDOF 16
