REMARK  1 active torsions:
REMARK  status: ('A' for Active; 'I' for Inactive)
REMARK    1  A    between atoms: C1_6  and  OH_7 
ROOT
ATOM      1  C4  MOL d          26.724   5.142   3.313  0.00  0.00     0.024 A 
ATOM      2  C5  MOL d          27.521   5.841   2.405  0.00  0.00     0.004 A 
ATOM      3  C3  MOL d          26.467   5.780   4.516  0.00  0.00     0.036 A 
ATOM      4  C6  MOL d          28.072   7.099   2.651  0.00  0.00     0.036 A 
ATOM      5  C2  MOL d          27.003   7.032   4.810  0.00  0.00     0.060 A 
ATOM      6  C1  MOL d          27.803   7.693   3.874  0.00  0.00     0.067 A 
ATOM      7 CL   MOL d          25.677   5.144   5.436  0.00  0.00    -0.084 Cl
ENDROOT
BRANCH   6   8
ATOM      8  OH  MOL d          28.373   8.912   4.123  0.00  0.00    -0.361 OA
ATOM      9  H5  MOL d          28.114   9.211   4.987  0.00  0.00     0.217 HD
ENDBRANCH   6   8
TORSDOF 1
