REMARK  14 active torsions:
REMARK  status: ('A' for Active; 'I' for Inactive)
REMARK    1  A    between atoms: N1_1  and  C31_39 
REMARK    2  A    between atoms: C2_3  and  C3_4 
REMARK       I    between atoms: C3_4  and  N2_6 
REMARK    3  A    between atoms: N2_6  and  C4_7 
REMARK    4  A    between atoms: N3_11  and  C10_14 
REMARK    5  A    between atoms: C10_14  and  C11_15 
REMARK    6  A    between atoms: C11_15  and  O2_16 
REMARK    7  A    between atoms: C11_15  and  C12_17 
REMARK    8  A    between atoms: C12_17  and  C13_18 
REMARK    9  A    between atoms: C13_18  and  C14_19 
REMARK   10  A    between atoms: C13_18  and  C21_26 
REMARK   11  A    between atoms: C14_19  and  C15_20 
REMARK       I    between atoms: C21_26  and  N4_28 
REMARK   12  A    between atoms: N4_28  and  C22_29 
REMARK   13  A    between atoms: C23_30  and  O4_31 
REMARK   14  A    between atoms: C31_39  and  C32_40 
ROOT
ATOM      1  C11 MK1 d          20.550  29.803  15.531  0.00  0.00     0.145 C 
ENDROOT
BRANCH   1   2
ATOM      2  C10 MK1 d          20.353  30.988  16.488  0.00  0.00     0.267 C 
BRANCH   2   3
ATOM      3  N3  MK1 d          21.037  32.162  15.892  0.00  0.00    -0.053 N 
ATOM      4  C2  MK1 d          20.208  33.398  16.207  0.00  0.00     0.305 C 
ATOM      5  C1  MK1 d          21.086  34.522  15.653  0.00  0.00     0.278 C 
ATOM      6  N1  MK1 d          22.490  34.649  16.276  0.00  0.00    -0.063 N 
ATOM      7  C9  MK1 d          23.120  33.441  15.983  0.00  0.00     0.263 C 
ATOM      8  H1  MK1 d          22.442  34.784  17.274  0.00  0.00     0.280 HD
ATOM      9  C8  MK1 d          22.396  32.217  16.438  0.00  0.00     0.263 C 
ATOM     10  H15 MK1 d          21.093  32.055  14.891  0.00  0.00     0.281 HD
BRANCH   4  11
ATOM     11  C3  MK1 d          18.893  33.429  15.505  0.00  0.00     0.251 C 
ATOM     12  O1  MK1 d          18.902  33.057  14.326  0.00  0.00    -0.271 OA
ATOM     13  N2  MK1 d          17.905  33.885  16.260  0.00  0.00    -0.351 N 
ATOM     14  H5  MK1 d          18.114  34.219  17.179  0.00  0.00     0.163 HD
BRANCH  13  15
ATOM     15  C4  MK1 d          16.534  33.916  15.801  0.00  0.00     0.022 C 
ATOM     16  C5  MK1 d          15.667  34.599  16.915  0.00  0.00     0.037 C 
ATOM     17  C6  MK1 d          16.065  32.601  15.675  0.00  0.00     0.037 C 
ATOM     18  C7  MK1 d          16.371  34.724  14.604  0.00  0.00     0.037 C 
ENDBRANCH  13  15
ENDBRANCH   4  11
BRANCH   6  19
ATOM     19  C31 MK1 d          23.130  35.806  15.650  0.00  0.00     0.275 C 
BRANCH  19  20
ATOM     20  C32 MK1 d          22.583  37.156  16.047  0.00  0.00    -0.015 A 
ATOM     21  C33 MK1 d          22.509  37.508  17.397  0.00  0.00     0.125 A 
ATOM     22  N5  MK1 d          21.964  38.748  17.781  0.00  0.00    -0.273 NA
ATOM     23  C34 MK1 d          21.526  39.552  16.737  0.00  0.00     0.116 A 
ATOM     24  C35 MK1 d          21.567  39.246  15.374  0.00  0.00     0.020 A 
ATOM     25  C36 MK1 d          22.118  38.010  15.061  0.00  0.00     0.012 A 
ENDBRANCH  19  20
ENDBRANCH   6  19
ENDBRANCH   2   3
ENDBRANCH   1   2
BRANCH   1  26
ATOM     26  O2  MK1 d          20.491  28.733  16.436  0.00  0.00    -0.394 OA
ATOM     27  H23 MK1 d          20.602  27.915  15.965  0.00  0.00     0.210 HD
ENDBRANCH   1  26
BRANCH   1  28
ATOM     28  C12 MK1 d          19.354  29.677  14.554  0.00  0.00     0.047 C 
BRANCH  28  29
ATOM     29  C13 MK1 d          19.451  28.476  13.586  0.00  0.00     0.084 C 
BRANCH  29  30
ATOM     30  C14 MK1 d          18.136  28.413  12.750  0.00  0.00     0.052 C 
BRANCH  30  31
ATOM     31  C15 MK1 d          18.138  27.376  11.694  0.00  0.00    -0.057 A 
ATOM     32  C16 MK1 d          18.296  26.028  12.050  0.00  0.00     0.007 A 
ATOM     33  C17 MK1 d          18.300  25.069  11.023  0.00  0.00     0.001 A 
ATOM     34  C18 MK1 d          18.134  25.498   9.716  0.00  0.00     0.000 A 
ATOM     35  C19 MK1 d          17.971  26.834   9.377  0.00  0.00     0.001 A 
ATOM     36  C20 MK1 d          17.986  27.790  10.381  0.00  0.00     0.007 A 
ENDBRANCH  30  31
ENDBRANCH  29  30
BRANCH  29  37
ATOM     37  C21 MK1 d          20.579  28.631  12.599  0.00  0.00     0.222 C 
ATOM     38  O3  MK1 d          20.884  29.685  11.985  0.00  0.00    -0.273 OA
ATOM     39  N4  MK1 d          21.206  27.516  12.344  0.00  0.00    -0.350 N 
ATOM     40  H34 MK1 d          20.981  26.708  12.889  0.00  0.00     0.163 HD
BRANCH  39  41
ATOM     41  C22 MK1 d          22.210  27.392  11.313  0.00  0.00     0.147 C 
ATOM     42  C23 MK1 d          22.136  26.041  10.625  0.00  0.00     0.149 C 
ATOM     43  C24 MK1 d          23.472  25.970   9.895  0.00  0.00     0.073 C 
ATOM     44  C25 MK1 d          24.505  26.670  10.754  0.00  0.00    -0.047 A 
ATOM     45  C26 MK1 d          25.852  26.685  10.931  0.00  0.00     0.008 A 
ATOM     46  C30 MK1 d          23.680  27.623  11.625  0.00  0.00    -0.027 A 
ATOM     47  C27 MK1 d          26.461  27.526  11.858  0.00  0.00     0.001 A 
ATOM     48  C28 MK1 d          25.730  28.401  12.650  0.00  0.00     0.001 A 
ATOM     49  C29 MK1 d          24.367  28.430  12.487  0.00  0.00     0.010 A 
BRANCH  42  50
ATOM     50  O4  MK1 d          22.014  24.916  11.544  0.00  0.00    -0.393 OA
ATOM     51  H37 MK1 d          21.973  24.107  11.048  0.00  0.00     0.210 HD
ENDBRANCH  42  50
ENDBRANCH  39  41
ENDBRANCH  29  37
ENDBRANCH  28  29
ENDBRANCH   1  28
TORSDOF 14
