REMARK  2 active torsions:
REMARK  status: ('A' for Active; 'I' for Inactive)
REMARK    1  A    between atoms: C3_3  and  C4_4 
REMARK    2  A    between atoms: C4_4  and  N5_5 
ROOT
ATOM      1 CL1  CMU d          -4.802   4.529  30.601  0.00  0.00    -0.076 Cl
ATOM      2  C2  CMU d          -3.589   3.293  30.616  0.00  0.00     0.126 A 
ATOM      3  C3  CMU d          -3.112   2.764  29.462  0.00  0.00     0.059 A 
ATOM      4  N11 CMU d          -2.149   1.793  29.571  0.00  0.00    -0.309 N 
ATOM      5  C12 CMU d          -1.673   1.349  30.755  0.00  0.00     0.327 A 
ATOM      6  O13 CMU d          -0.820   0.470  30.761  0.00  0.00    -0.247 OA
ATOM      7  N14 CMU d          -2.145   1.864  31.907  0.00  0.00    -0.274 N 
ATOM      8  C15 CMU d          -3.073   2.830  31.860  0.00  0.00     0.273 A 
ATOM      9  O16 CMU d          -3.474   3.313  32.893  0.00  0.00    -0.266 OA
ATOM     10  H10 CMU d          -1.781   1.393  28.732  0.00  0.00     0.170 HD
ATOM     11  H11 CMU d          -1.807   1.530  32.787  0.00  0.00     0.173 HD
ENDROOT
BRANCH   3  12
ATOM     12  C4  CMU d          -3.629   3.166  28.078  0.00  0.00     0.183 C 
BRANCH  12  13
ATOM     13  N5  CMU d          -4.265   1.945  27.496  0.00  0.00    -0.362 N 
ATOM     14  C6  CMU d          -5.294   1.131  28.179  0.00  0.00     0.128 C 
ATOM     15  C7  CMU d          -5.824   0.142  27.113  0.00  0.00     0.051 C 
ATOM     16  C8  CMU d          -4.792   0.145  25.944  0.00  0.00     0.022 C 
ATOM     17  C9  CMU d          -3.976   1.396  26.267  0.00  0.00     0.093 C 
ATOM     18  N10 CMU d          -3.116   1.927  25.450  0.00  0.00    -0.386 N 
ATOM     19  H8  CMU d          -2.929   1.484  24.539  0.00  0.00     0.157 HD
ATOM     20  H9  CMU d          -2.621   2.791  25.713  0.00  0.00     0.157 HD
ENDBRANCH  12  13
ENDBRANCH   3  12
TORSDOF 2
