REMARK  11 active torsions:
REMARK  status: ('A' for Active; 'I' for Inactive)
REMARK    1  A    between atoms: C1_2  and  CA1_4 
REMARK    2  A    between atoms: CA1_4  and  N1_5 
REMARK    3  A    between atoms: CA1_4  and  CB1_6 
REMARK    4  A    between atoms: CB1_6  and  CG1_7 
REMARK    5  A    between atoms: CG1_7  and  CD1_8 
REMARK    6  A    between atoms: N2_10  and  CA2_11 
REMARK    7  A    between atoms: CA2_11  and  CB2_12 
REMARK    8  A    between atoms: CA2_11  and  C2_14 
REMARK    9  A    between atoms: CB2_12  and  SG2_13 
REMARK   10  A    between atoms: N3_16  and  CA3_17 
REMARK   11  A    between atoms: CA3_17  and  C3_18 
ROOT
ATOM      1  CD1 GSW d           6.253  10.394  42.822  0.00  0.00     0.152 C 
ATOM      2  OE1 GSW d           6.064   9.126  43.398  0.00  0.00    -0.177 OA
ATOM      3  N2  GSW d           7.281  10.676  42.032  0.00  0.00    -0.359 N 
ATOM      4  H9  GSW d           7.464  11.639  41.833  0.00  0.00     0.162 HD
ENDROOT
BRANCH   3   5
ATOM      5  CA2 GSW d           8.155   9.689  41.438  0.00  0.00     0.170 C 
BRANCH   5   6
ATOM      6  CB2 GSW d           7.922   9.542  39.943  0.00  0.00     0.104 C 
BRANCH   6   7
ATOM      7  SG2 GSW d           6.242   8.989  39.571  0.00  0.00    -0.180 SA
ATOM      8  H13 GSW d           6.130   8.905  38.573  0.00  0.00     0.101 HD
ENDBRANCH   6   7
ENDBRANCH   5   6
BRANCH   5   9
ATOM      9  C2  GSW d           9.533  10.204  41.585  0.00  0.00     0.175 C 
ATOM     10  O2  GSW d           9.697  11.596  41.499  0.00  0.00    -0.175 OA
ATOM     11  N3  GSW d          10.500   9.311  41.780  0.00  0.00    -0.360 N 
ATOM     12  H14 GSW d          10.277   8.444  42.225  0.00  0.00     0.162 HD
BRANCH  11  13
ATOM     13  CA3 GSW d          11.871   9.559  41.366  0.00  0.00     0.234 C 
BRANCH  13  14
ATOM     14  C3  GSW d          12.654  10.125  42.521  0.00  0.00     0.191 C 
ATOM     15  O31 GSW d          13.786  10.626  42.361  0.00  0.00    -0.647 OA
ATOM     16  O32 GSW d          12.163  10.101  43.665  0.00  0.00    -0.647 OA
ENDBRANCH  13  14
ENDBRANCH  11  13
ENDBRANCH   5   9
ENDBRANCH   3   5
BRANCH   1  17
ATOM     17  CG1 GSW d           5.274  11.526  43.041  0.00  0.00     0.089 C 
BRANCH  17  18
ATOM     18  CB1 GSW d           4.496  11.388  44.338  0.00  0.00     0.052 C 
BRANCH  18  19
ATOM     19  CA1 GSW d           2.975  11.581  44.205  0.00  0.00     0.283 C 
BRANCH  19  20
ATOM     20  C1  GSW d           2.481  12.683  43.308  0.00  0.00     0.204 C 
ATOM     21  O12 GSW d           3.062  13.777  43.115  0.00  0.00    -0.646 OA
ATOM     22  O11 GSW d           1.395  12.447  42.732  0.00  0.00    -0.646 OA
ENDBRANCH  19  20
BRANCH  19  23
ATOM     23  N1  GSW d           2.308  11.748  45.491  0.00  0.00    -0.065 N 
ATOM     24  H2  GSW d           2.613  11.025  46.124  0.00  0.00     0.275 HD
ATOM     25  H3  GSW d           1.310  11.683  45.363  0.00  0.00     0.275 HD
ATOM     26  H4  GSW d           2.539  12.651  45.875  0.00  0.00     0.275 HD
ENDBRANCH  19  23
ENDBRANCH  18  19
ENDBRANCH  17  18
ENDBRANCH   1  17
TORSDOF 11
