REMARK  6 active torsions:
REMARK  status: ('A' for Active; 'I' for Inactive)
REMARK    1  A    between atoms: C6_6  and  O29_16 
REMARK    2  A    between atoms: C8_7  and  C17_10 
REMARK    3  A    between atoms: C19_12  and  O23_25 
REMARK    4  A    between atoms: C32_17  and  C34_18 
REMARK       I    between atoms: N7_29  and  C32_17 
REMARK    5  A    between atoms: O23_25  and  C22_26 
REMARK    6  A    between atoms: C22_26  and  C26_27 
ROOT
ATOM      1  C1  IX6 d          39.306   3.777 -19.020  0.00  0.00     0.039 A 
ATOM      2  C2  IX6 d          38.941   3.762 -17.685  0.00  0.00     0.005 A 
ATOM      3  C3  IX6 d          37.906   2.956 -17.253  0.00  0.00     0.032 A 
ATOM      4  C4  IX6 d          37.221   2.130 -18.164  0.00  0.00     0.068 A 
ATOM      5  C5  IX6 d          37.570   2.201 -19.517  0.00  0.00     0.093 A 
ATOM      6  C6  IX6 d          38.628   2.995 -19.938  0.00  0.00     0.094 A 
ATOM      7  C8  IX6 d          34.828   1.554 -18.416  0.00  0.00     0.176 C 
ATOM      8  C15 IX6 d          35.670  -0.029 -21.941  0.00  0.00     0.068 C 
ATOM      9  C24 IX6 d          33.526   0.856 -22.869  0.00  0.00     0.016 C 
ATOM     10  C32 IX6 d          36.317   0.521 -16.649  0.00  0.00     0.280 C 
ATOM     11  N7  IX6 d          36.106   1.347 -17.728  0.00  0.00    -0.296 N 
ATOM     12  O33 IX6 d          35.303   0.196 -16.050  0.00  0.00    -0.265 OA
ATOM     13  C9  IX6 d          34.808   0.746 -19.688  0.00  0.00     0.087 C 
ATOM     14  S12 IX6 d          33.408  -0.229 -19.818  0.00  0.00     0.176 S 
ATOM     15  O30 IX6 d          32.275   0.644 -19.774  0.00  0.00    -0.223 OA
ATOM     16  O31 IX6 d          33.378  -1.193 -18.742  0.00  0.00    -0.223 OA
ATOM     17  C13 IX6 d          33.510  -1.143 -21.365  0.00  0.00     0.154 C 
ATOM     18  C14 IX6 d          34.284  -0.406 -22.459  0.00  0.00    -0.029 C 
ATOM     19  C25 IX6 d          34.402  -1.362 -23.651  0.00  0.00     0.016 C 
ATOM     20  C10 IX6 d          35.779   0.740 -20.627  0.00  0.00     0.030 C 
ATOM     21  N11 IX6 d          36.976   1.423 -20.528  0.00  0.00    -0.354 N 
ATOM     22  H32 IX6 d          37.557   1.346 -21.375  0.00  0.00     0.166 HD
ENDROOT
BRANCH   7  23
ATOM     23  C17 IX6 d          34.581   3.056 -18.666  0.00  0.00     0.009 A 
ATOM     24  C16 IX6 d          34.435   3.633 -19.924  0.00  0.00     0.015 A 
ATOM     25  C18 IX6 d          34.213   4.991 -20.053  0.00  0.00     0.037 A 
ATOM     26  C19 IX6 d          34.160   5.814 -18.929  0.00  0.00     0.072 A 
ATOM     27  C20 IX6 d          34.315   5.242 -17.669  0.00  0.00     0.079 A 
ATOM     28  C21 IX6 d          34.521   3.884 -17.545  0.00  0.00     0.127 A 
ATOM     29  F41 IX6 d          34.678   3.349 -16.347  0.00  0.00    -0.205 F 
BRANCH  26  30
ATOM     30  O23 IX6 d          33.950   7.165 -19.012  0.00  0.00    -0.347 OA
BRANCH  30  31
ATOM     31  C22 IX6 d          33.755   7.860 -20.240  0.00  0.00     0.208 C 
BRANCH  31  32
ATOM     32  C26 IX6 d          32.396   7.559 -20.841  0.00  0.00    -0.069 C 
ATOM     33  C27 IX6 d          31.351   7.329 -20.028  0.00  0.00     0.016 C 
ATOM     34  C28 IX6 d          32.201   7.549 -22.344  0.00  0.00     0.044 C 
ENDBRANCH  31  32
ENDBRANCH  30  31
ENDBRANCH  26  30
ENDBRANCH   7  23
BRANCH  10  35
ATOM     35  C34 IX6 d          37.600  -0.021 -16.180  0.00  0.00     0.156 A 
ATOM     36  C35 IX6 d          38.552  -0.674 -16.917  0.00  0.00     0.085 A 
ATOM     37  C40 IX6 d          38.498  -0.983 -18.395  0.00  0.00     0.079 C 
ATOM     38  O36 IX6 d          39.467  -0.995 -16.171  0.00  0.00    -0.298 OA
ATOM     39  C37 IX6 d          39.213  -0.596 -15.030  0.00  0.00     0.142 A 
ATOM     40  C39 IX6 d          40.112  -0.799 -13.846  0.00  0.00     0.100 C 
ATOM     41  N38 IX6 d          38.036   0.036 -14.929  0.00  0.00    -0.221 NA
ENDBRANCH  10  35
BRANCH   6  42
ATOM     42  O29 IX6 d          38.960   3.002 -21.264  0.00  0.00    -0.358 OA
ATOM     43  H14 IX6 d          39.696   3.586 -21.402  0.00  0.00     0.217 HD
ENDBRANCH   6  42
TORSDOF 6
