REMARK  2 active torsions:
REMARK  status: ('A' for Active; 'I' for Inactive)
REMARK    1  A    between atoms: C2_2  and  N12_12 
REMARK    2  A    between atoms: N5_5  and  S8_8 
ROOT
ATOM      1  N12 MOL d         -13.906  28.654  -0.750  0.00  0.00    -0.329 N 
ATOM      2  C13 MOL d         -12.624  28.570  -0.245  0.00  0.00     0.211 A 
ATOM      3  N14 MOL d         -12.446  27.378   0.246  0.00  0.00    -0.240 NA
ATOM      4  C15 MOL d         -13.562  26.617   0.093  0.00  0.00     0.103 A 
ATOM      5  C16 MOL d         -14.511  27.427  -0.557  0.00  0.00     0.081 A 
ATOM      6  C17 MOL d         -15.769  26.857  -0.847  0.00  0.00     0.041 A 
ATOM      7  C18 MOL d         -17.007  27.346  -1.484  0.00  0.00     0.034 A 
ATOM      8  C19 MOL d         -17.856  26.322  -1.492  0.00  0.00     0.091 A 
ATOM      9  N20 MOL d         -17.267  25.228  -0.914  0.00  0.00    -0.350 N 
ATOM     10  C22 MOL d         -16.004  25.516  -0.499  0.00  0.00     0.139 A 
ATOM     11  N23 MOL d         -15.072  24.774   0.114  0.00  0.00    -0.240 NA
ATOM     12  C24 MOL d         -13.891  25.300   0.432  0.00  0.00     0.153 A 
ATOM     13  H18 MOL d         -17.721  24.309  -0.808  0.00  0.00     0.166 HD
ENDROOT
BRANCH   1  14
ATOM     14  C2  MOL d         -14.450  29.838  -1.463  0.00  0.00     0.038 C 
ATOM     15  C1  MOL d         -14.790  29.415  -2.937  0.00  0.00     0.039 C 
ATOM     16  C3  MOL d         -13.321  30.872  -1.494  0.00  0.00     0.051 C 
ATOM     17  C4  MOL d         -13.734  32.248  -2.037  0.00  0.00     0.137 C 
ATOM     18  N5  MOL d         -15.092  32.659  -1.654  0.00  0.00    -0.311 N 
ATOM     19  C6  MOL d         -16.170  31.677  -1.368  0.00  0.00     0.137 C 
ATOM     20  C7  MOL d         -15.669  30.374  -0.737  0.00  0.00     0.051 C 
BRANCH  18  21
ATOM     21  S8  MOL d         -15.458  34.261  -1.709  0.00  0.00     0.224 S 
ATOM     22  O9  MOL d         -16.458  34.508  -0.722  0.00  0.00    -0.206 OA
ATOM     23  O10 MOL d         -14.231  34.997  -1.631  0.00  0.00    -0.206 OA
ATOM     24  C11 MOL d         -16.152  34.519  -3.376  0.00  0.00     0.186 C 
ENDBRANCH  18  21
ENDBRANCH   1  14
TORSDOF 2
