REMARK  30 active torsions:
REMARK  status: ('A' for Active; 'I' for Inactive)
REMARK    1  A    between atoms: S4_22  and  C1_1 
REMARK    2  A    between atoms: C2_2  and  O2_7 
REMARK    3  A    between atoms: C3_3  and  O3_8 
REMARK    4  A    between atoms: C4_4  and  O4_9 
REMARK    5  A    between atoms: C5_5  and  C6_6 
REMARK    6  A    between atoms: C6_6  and  O6_11 
REMARK    7  A    between atoms: S4_33  and  C1_12 
REMARK    8  A    between atoms: C2_13  and  O2_14 
REMARK    9  A    between atoms: C3_15  and  O3_16 
REMARK   10  A    between atoms: C4_17  and  S4_22 
REMARK   11  A    between atoms: C5_18  and  C6_20 
REMARK   12  A    between atoms: C6_20  and  O6_21 
REMARK   13  A    between atoms: S4_44  and  C1_23 
REMARK   14  A    between atoms: C2_24  and  O2_25 
REMARK   15  A    between atoms: C3_26  and  O3_27 
REMARK   16  A    between atoms: C4_28  and  S4_33 
REMARK   17  A    between atoms: C5_29  and  C6_31 
REMARK   18  A    between atoms: C6_31  and  O6_32 
REMARK   19  A    between atoms: S4_55  and  C1_34 
REMARK   20  A    between atoms: C2_35  and  O2_36 
REMARK   21  A    between atoms: C3_37  and  O3_38 
REMARK   22  A    between atoms: C4_39  and  S4_44 
REMARK   23  A    between atoms: C5_40  and  C6_42 
REMARK   24  A    between atoms: C6_42  and  O6_43 
REMARK   25  A    between atoms: C1_45  and  O1_52 
REMARK   26  A    between atoms: C2_46  and  O2_53 
REMARK   27  A    between atoms: C3_47  and  O3_54 
REMARK   28  A    between atoms: S4_55  and  C4_48 
REMARK   29  A    between atoms: C5_49  and  C6_50 
REMARK   30  A    between atoms: C6_50  and  O6_57 
ROOT
ATOM      1  C1  MOL d           4.822  41.675   7.984  0.00  0.00     0.215 C 
ATOM      2  C2  MOL d           4.710  43.173   7.877  0.00  0.00     0.187 C 
ATOM      3  C3  MOL d           4.276  43.866   9.198  0.00  0.00     0.166 C 
ATOM      4  C4  MOL d           3.220  43.083   9.935  0.00  0.00     0.112 C 
ATOM      5  C5  MOL d           3.695  41.653  10.059  0.00  0.00     0.163 C 
ATOM      6  O5  MOL d           3.798  41.076   8.758  0.00  0.00    -0.364 OA
ENDROOT
BRANCH   1   7
ATOM      7  S4  MOL d           4.724  40.982   6.317  0.00  0.00    -0.124 SA
BRANCH   7   8
ATOM      8  C4  MOL d           5.630  39.429   6.495  0.00  0.00     0.112 C 
ATOM      9  C3  MOL d           4.764  38.306   5.925  0.00  0.00     0.166 C 
ATOM     10  C2  MOL d           5.547  37.014   5.900  0.00  0.00     0.187 C 
ATOM     11  C1  MOL d           6.873  37.176   5.157  0.00  0.00     0.215 C 
ATOM     12  O5  MOL d           7.579  38.206   5.877  0.00  0.00    -0.364 OA
ATOM     13  C5  MOL d           6.953  39.467   5.765  0.00  0.00     0.163 C 
BRANCH   9  14
ATOM     14  O3  MOL d           3.561  38.113   6.660  0.00  0.00    -0.392 OA
ATOM     15  H36 MOL d           3.042  37.434   6.244  0.00  0.00     0.210 HD
ENDBRANCH   9  14
BRANCH  10  16
ATOM     16  O2  MOL d           4.737  35.968   5.256  0.00  0.00    -0.390 OA
ATOM     17  H34 MOL d           3.915  35.873   5.723  0.00  0.00     0.210 HD
ENDBRANCH  10  16
BRANCH  11  18
ATOM     18  S4  MOL d           7.883  35.689   5.132  0.00  0.00    -0.124 SA
BRANCH  18  19
ATOM     19  C4  MOL d           9.098  36.103   3.858  0.00  0.00     0.112 C 
ATOM     20  C3  MOL d          10.378  36.660   4.510  0.00  0.00     0.168 C 
ATOM     21  C2  MOL d          11.447  36.862   3.416  0.00  0.00     0.203 C 
ATOM     22  C1  MOL d          11.631  35.544   2.634  0.00  0.00     0.290 C 
ATOM     23  O5  MOL d          10.424  35.146   2.000  0.00  0.00    -0.350 OA
ATOM     24  C5  MOL d           9.398  34.889   2.951  0.00  0.00     0.164 C 
BRANCH  20  25
ATOM     25  O3  MOL d          10.070  37.865   5.196  0.00  0.00    -0.392 OA
ATOM     26  H53 MOL d           9.421  37.689   5.867  0.00  0.00     0.210 HD
ENDBRANCH  20  25
BRANCH  21  27
ATOM     27  O2  MOL d          12.681  37.307   3.943  0.00  0.00    -0.388 OA
ATOM     28  H52 MOL d          13.011  36.665   4.561  0.00  0.00     0.210 HD
ENDBRANCH  21  27
BRANCH  22  29
ATOM     29  O1  MOL d          12.162  34.507   3.429  0.00  0.00    -0.363 OA
ATOM     30  C7  MOL d          12.568  33.401   2.651  0.00  0.00     0.204 C 
ENDBRANCH  22  29
BRANCH  24  31
ATOM     31  C6  MOL d           8.129  34.362   2.242  0.00  0.00     0.197 C 
BRANCH  31  32
ATOM     32  O6  MOL d           7.415  35.314   1.468  0.00  0.00    -0.398 OA
ATOM     33  H54 MOL d           6.657  34.897   1.075  0.00  0.00     0.209 HD
ENDBRANCH  31  32
ENDBRANCH  24  31
ENDBRANCH  18  19
ENDBRANCH  11  18
BRANCH  13  34
ATOM     34  C6  MOL d           7.893  40.483   6.268  0.00  0.00     0.197 C 
BRANCH  34  35
ATOM     35  O6  MOL d           8.153  40.303   7.649  0.00  0.00    -0.398 OA
ATOM     36  H41 MOL d           8.532  39.443   7.789  0.00  0.00     0.209 HD
ENDBRANCH  34  35
ENDBRANCH  13  34
ENDBRANCH   7   8
ENDBRANCH   1   7
BRANCH   2  37
ATOM     37  O2  MOL d           6.006  43.675   7.520  0.00  0.00    -0.390 OA
ATOM     38  H24 MOL d           5.968  44.621   7.444  0.00  0.00     0.210 HD
ENDBRANCH   2  37
BRANCH   3  39
ATOM     39  O3  MOL d           3.772  45.160   8.840  0.00  0.00    -0.392 OA
ATOM     40  H26 MOL d           3.494  45.619   9.624  0.00  0.00     0.210 HD
ENDBRANCH   3  39
BRANCH   5  41
ATOM     41  C6  MOL d           2.794  40.699  10.820  0.00  0.00     0.197 C 
BRANCH  41  42
ATOM     42  O6  MOL d           1.499  40.637  10.248  0.00  0.00    -0.398 OA
ATOM     43  H31 MOL d           1.565  40.336   9.350  0.00  0.00     0.209 HD
ENDBRANCH  41  42
ENDBRANCH   5  41
BRANCH   4  44
ATOM     44  S4  MOL d           2.888  43.963  11.503  0.00  0.00    -0.124 SA
BRANCH  44  45
ATOM     45  C1  MOL d           1.225  43.492  11.758  0.00  0.00     0.215 C 
ATOM     46  C2  MOL d           0.620  43.910  13.088  0.00  0.00     0.187 C 
ATOM     47  C3  MOL d          -0.732  43.184  13.243  0.00  0.00     0.166 C 
ATOM     48  C4  MOL d          -1.641  43.578  12.070  0.00  0.00     0.112 C 
ATOM     49  C5  MOL d          -0.926  43.415  10.726  0.00  0.00     0.163 C 
ATOM     50  O5  MOL d           0.351  44.073  10.750  0.00  0.00    -0.364 OA
BRANCH  46  51
ATOM     51  O2  MOL d           1.532  43.535  14.167  0.00  0.00    -0.390 OA
ATOM     52  H14 MOL d           1.158  43.794  15.001  0.00  0.00     0.210 HD
ENDBRANCH  46  51
BRANCH  47  53
ATOM     53  O3  MOL d          -1.335  43.531  14.484  0.00  0.00    -0.392 OA
ATOM     54  H16 MOL d          -0.760  43.276  15.196  0.00  0.00     0.210 HD
ENDBRANCH  47  53
BRANCH  48  55
ATOM     55  S4  MOL d          -3.107  42.489  12.095  0.00  0.00    -0.124 SA
BRANCH  55  56
ATOM     56  C1  MOL d          -4.427  43.728  11.973  0.00  0.00     0.215 C 
ATOM     57  C2  MOL d          -5.707  43.023  11.640  0.00  0.00     0.188 C 
ATOM     58  C3  MOL d          -6.888  43.975  11.759  0.00  0.00     0.181 C 
ATOM     59  C4  MOL d          -6.888  44.683  13.095  0.00  0.00     0.180 C 
ATOM     60  C5  MOL d          -5.519  45.358  13.275  0.00  0.00     0.178 C 
ATOM     61  O5  MOL d          -4.501  44.391  13.234  0.00  0.00    -0.363 OA
BRANCH  57  62
ATOM     62  O2  MOL d          -5.689  42.495  10.293  0.00  0.00    -0.389 OA
ATOM     63  H8  MOL d          -6.501  42.032  10.125  0.00  0.00     0.210 HD
ENDBRANCH  57  62
BRANCH  58  64
ATOM     64  O3  MOL d          -8.122  43.252  11.609  0.00  0.00    -0.390 OA
ATOM     65  H9  MOL d          -8.851  43.860  11.649  0.00  0.00     0.210 HD
ENDBRANCH  58  64
BRANCH  59  66
ATOM     66  O4  MOL d          -7.952  45.636  13.103  0.00  0.00    -0.390 OA
ATOM     67  H10 MOL d          -8.780  45.185  12.990  0.00  0.00     0.210 HD
ENDBRANCH  59  66
BRANCH  60  68
ATOM     68  C6  MOL d          -5.372  46.085  14.586  0.00  0.00     0.198 C 
BRANCH  68  69
ATOM     69  O6  MOL d          -5.557  45.247  15.689  0.00  0.00    -0.398 OA
ATOM     70  H11 MOL d          -4.912  44.550  15.668  0.00  0.00     0.209 HD
ENDBRANCH  68  69
ENDBRANCH  60  68
ENDBRANCH  55  56
ENDBRANCH  48  55
BRANCH  49  71
ATOM     71  C6  MOL d          -1.682  43.959   9.531  0.00  0.00     0.197 C 
BRANCH  71  72
ATOM     72  O6  MOL d          -2.055  45.312   9.720  0.00  0.00    -0.398 OA
ATOM     73  H21 MOL d          -1.275  45.840   9.847  0.00  0.00     0.209 HD
ENDBRANCH  71  72
ENDBRANCH  49  71
ENDBRANCH  44  45
ENDBRANCH   4  44
TORSDOF 30
