REMARK  2 active torsions:
REMARK  status: ('A' for Active; 'I' for Inactive)
REMARK    1  A    between atoms: C5_2  and  C10_5 
REMARK    2  A    between atoms: C8_4  and  C13_6 
REMARK       I    between atoms: C10_5  and  N11_14 
ROOT
ATOM      1  C4  78P d          26.540  65.623   9.392  0.00  0.00     0.101 A 
ATOM      2  C5  78P d          26.938  66.429  10.492  0.00  0.00     0.062 A 
ATOM      3  C6  78P d          28.292  66.356  10.936  0.00  0.00     0.020 A 
ATOM      4  C8  78P d          25.567  64.552   7.749  0.00  0.00     0.141 A 
ATOM      5  C1  78P d          29.227  65.493  10.290  0.00  0.00     0.003 A 
ATOM      6  C2  78P d          28.819  64.697   9.193  0.00  0.00     0.032 A 
ATOM      7  C3  78P d          27.499  64.753   8.741  0.00  0.00     0.063 A 
ATOM      8  N7  78P d          26.837  64.106   7.718  0.00  0.00    -0.340 N 
ATOM      9  N9  78P d          25.344  65.447   8.718  0.00  0.00    -0.230 NA
ATOM     10  H8  78P d          27.235  63.419   7.062  0.00  0.00     0.167 HD
ENDROOT
BRANCH   4  11
ATOM     11  C13 78P d          24.469  64.088   6.773  0.00  0.00     0.181 C 
ATOM     12  C17 78P d          24.272  62.577   6.863  0.00  0.00     0.048 C 
ATOM     13  C16 78P d          23.248  62.410   7.976  0.00  0.00     0.030 C 
ATOM     14  C15 78P d          22.394  63.670   7.891  0.00  0.00     0.233 C 
ATOM     15  N14 78P d          23.157  64.678   7.141  0.00  0.00    -0.059 N 
ATOM     16  H11 78P d          22.653  64.936   6.307  0.00  0.00     0.278 HD
ATOM     17  H12 78P d          23.299  65.495   7.715  0.00  0.00     0.278 HD
ATOM     18  C18 78P d          24.884  64.550   5.375  0.00  0.00     0.055 C 
ENDBRANCH   4  11
BRANCH   2  19
ATOM     19  C10 78P d          26.013  67.369  11.218  0.00  0.00     0.251 C 
ATOM     20  N11 78P d          24.708  67.304  10.913  0.00  0.00    -0.366 N 
ATOM     21  H9  78P d          24.057  67.910  11.370  0.00  0.00     0.159 HD
ATOM     22  H10 78P d          24.387  66.650  10.228  0.00  0.00     0.159 HD
ATOM     23  O12 78P d          26.394  68.187  12.046  0.00  0.00    -0.268 OA
ENDBRANCH   2  19
TORSDOF 2
