REMARK  11 active torsions:
REMARK  status: ('A' for Active; 'I' for Inactive)
REMARK    1  A    between atoms: C2_2  and  C4_4 
REMARK    2  A    between atoms: C4_4  and  C5_5 
REMARK    3  A    between atoms: C5_5  and  C7_6 
REMARK    4  A    between atoms: C5_5  and  C20_19 
REMARK    5  A    between atoms: C7_6  and  C8_7 
REMARK    6  A    between atoms: C9_8  and  C17_16 
REMARK    7  A    between atoms: C20_19  and  N21_20 
REMARK       I    between atoms: N21_20  and  C22_21 
REMARK    8  A    between atoms: C22_21  and  C24_23 
REMARK    9  A    between atoms: C24_23  and  C25_24 
REMARK   10  A    between atoms: C25_24  and  C26_25 
REMARK   11  A    between atoms: C26_25  and  N27_26 
ROOT
ATOM      1  C5  K1T d          70.258  51.182  -0.162  0.00  0.00     0.008 C 
ENDROOT
BRANCH   1   2
ATOM      2  C4  K1T d          70.514  50.165   0.941  0.00  0.00     0.010 C 
BRANCH   2   3
ATOM      3  C2  K1T d          69.361  49.216   1.234  0.00  0.00    -0.022 C 
ATOM      4  C1  K1T d          68.898  48.502  -0.016  0.00  0.00     0.009 C 
ATOM      5  C3  K1T d          69.832  48.198   2.257  0.00  0.00     0.009 C 
ENDBRANCH   2   3
ENDBRANCH   1   2
BRANCH   1   6
ATOM      6  C7  K1T d          69.069  52.045   0.197  0.00  0.00     0.046 C 
BRANCH   6   7
ATOM      7  C8  K1T d          68.620  53.010  -0.864  0.00  0.00    -0.038 A 
ATOM      8  C9  K1T d          68.390  54.362  -0.618  0.00  0.00     0.083 A 
ATOM      9  C10 K1T d          67.952  55.124  -1.677  0.00  0.00     0.122 A 
ATOM     10  C11 K1T d          67.735  54.601  -2.914  0.00  0.00     0.106 A 
ATOM     11  O16 K1T d          67.662  56.465  -1.641  0.00  0.00    -0.322 OA
ATOM     12  C12 K1T d          67.950  53.273  -3.173  0.00  0.00     0.040 A 
ATOM     13  O14 K1T d          67.285  55.527  -3.810  0.00  0.00    -0.323 OA
ATOM     14  C13 K1T d          68.389  52.489  -2.129  0.00  0.00     0.011 A 
ATOM     15  C15 K1T d          66.996  56.594  -2.905  0.00  0.00     0.352 C 
BRANCH   8  16
ATOM     16  C17 K1T d          68.590  55.049   0.688  0.00  0.00     0.212 C 
ATOM     17  O18 K1T d          67.655  55.789   1.111  0.00  0.00    -0.644 OA
ATOM     18  O19 K1T d          69.698  54.877   1.271  0.00  0.00    -0.644 OA
ENDBRANCH   8  16
ENDBRANCH   6   7
ENDBRANCH   1   6
BRANCH   1  19
ATOM     19  C20 K1T d          71.485  52.057  -0.306  0.00  0.00     0.127 C 
BRANCH  19  20
ATOM     20  N21 K1T d          71.713  52.856   0.875  0.00  0.00    -0.361 N 
ATOM     21  C22 K1T d          72.866  52.676   1.606  0.00  0.00     0.217 C 
ATOM     22  O23 K1T d          73.626  51.726   1.493  0.00  0.00    -0.274 OA
ATOM     23  H   K1T d          71.038  53.536   1.160  0.00  0.00     0.162 HD
BRANCH  21  24
ATOM     24  C24 K1T d          73.128  53.784   2.580  0.00  0.00     0.104 C 
BRANCH  24  25
ATOM     25  C25 K1T d          72.758  53.328   3.968  0.00  0.00     0.036 C 
BRANCH  25  26
ATOM     26  C26 K1T d          73.180  54.403   4.942  0.00  0.00     0.230 C 
BRANCH  26  27
ATOM     27  N27 K1T d          72.730  54.036   6.304  0.00  0.00    -0.079 N 
ATOM     28  H   K1T d          73.011  54.752   6.955  0.00  0.00     0.274 HD
ATOM     29  H   K1T d          73.147  53.158   6.570  0.00  0.00     0.274 HD
ATOM     30  H   K1T d          71.726  53.948   6.314  0.00  0.00     0.274 HD
ENDBRANCH  26  27
ENDBRANCH  25  26
ENDBRANCH  24  25
ENDBRANCH  21  24
ENDBRANCH  19  20
ENDBRANCH   1  19
TORSDOF 11
