REMARK  4 active torsions:
REMARK  status: ('A' for Active; 'I' for Inactive)
REMARK    1  A    between atoms: C11_2  and  C7_4 
REMARK    2  A    between atoms: C9_6  and  C10_7 
REMARK    3  A    between atoms: N_11  and  C6_12 
REMARK    4  A    between atoms: C6_12  and  C2_13 
ROOT
ATOM      1  C7  ZKW d         -21.921  17.961 -18.176  0.00  0.00     0.132 A 
ATOM      2  C8  ZKW d         -23.227  18.374 -18.301  0.00  0.00     0.079 A 
ATOM      3  C9  ZKW d         -23.445  18.534 -19.666  0.00  0.00     0.155 A 
ATOM      4  N1  ZKW d         -22.344  18.231 -20.379  0.00  0.00    -0.165 NA
ATOM      5  N   ZKW d         -21.415  17.881 -19.440  0.00  0.00    -0.258 N 
ENDROOT
BRANCH   5   6
ATOM      6  C6  ZKW d         -20.095  17.443 -19.903  0.00  0.00     0.192 C 
BRANCH   6   7
ATOM      7  C2  ZKW d         -20.009  15.966 -20.215  0.00  0.00    -0.017 A 
ATOM      8  C1  ZKW d         -21.143  15.150 -20.188  0.00  0.00     0.012 A 
ATOM      9  C   ZKW d         -21.073  13.800 -20.480  0.00  0.00     0.024 A 
ATOM     10  C5  ZKW d         -19.850  13.245 -20.778  0.00  0.00     0.035 A 
ATOM     11  C4  ZKW d         -18.699  14.008 -20.799  0.00  0.00     0.048 A 
ATOM     12 CL   ZKW d         -19.754  11.552 -21.182  0.00  0.00    -0.084 Cl
ATOM     13  C3  ZKW d         -18.802  15.357 -20.539  0.00  0.00     0.043 A 
ATOM     14 CL1  ZKW d         -17.363  16.314 -20.665  0.00  0.00    -0.084 Cl
ENDBRANCH   6   7
ENDBRANCH   5   6
BRANCH   1  15
ATOM     15  C11 ZKW d         -21.186  17.673 -16.865  0.00  0.00     0.228 C 
ATOM     16  O3  ZKW d         -21.846  17.866 -15.812  0.00  0.00    -0.643 OA
ATOM     17  O2  ZKW d         -20.003  17.247 -16.913  0.00  0.00    -0.643 OA
ENDBRANCH   1  15
BRANCH   3  18
ATOM     18  C10 ZKW d         -24.746  19.026 -20.323  0.00  0.00     0.230 C 
ATOM     19  O1  ZKW d         -24.932  18.724 -21.526  0.00  0.00    -0.643 OA
ATOM     20  O   ZKW d         -25.526  19.699 -19.607  0.00  0.00    -0.643 OA
ENDBRANCH   3  18
TORSDOF 4
