REMARK  5 active torsions:
REMARK  status: ('A' for Active; 'I' for Inactive)
REMARK    1  A    between atoms: C9_3  and  C10_4 
REMARK       I    between atoms: N_19  and  C9_3 
REMARK    2  A    between atoms: C13_14  and  S_15 
REMARK    3  A    between atoms: S_15  and  N1_16 
REMARK    4  A    between atoms: C17_21  and  O17_22 
REMARK    5  A    between atoms: C16_23  and  O16_24 
ROOT
ATOM      1  C3  MOL d          18.582  11.000  11.618  0.00  0.00     0.048 A 
ATOM      2  C4  MOL d          18.552   9.928  12.501  0.00  0.00    -0.031 A 
ATOM      3  C9  MOL d          16.465   7.192  13.155  0.00  0.00     0.254 C 
ATOM      4  C5  MOL d          17.908   8.710  11.978  0.00  0.00     0.165 C 
ATOM      5  C6  MOL d          18.724   7.597  13.996  0.00  0.00     0.131 C 
ATOM      6  C7  MOL d          19.043   8.886  14.699  0.00  0.00     0.059 C 
ATOM      7  C8  MOL d          19.101  10.025  13.778  0.00  0.00    -0.046 A 
ATOM      8  O   MOL d          15.482   7.468  12.421  0.00  0.00    -0.267 OA
ATOM      9  N   MOL d          17.681   7.750  13.061  0.00  0.00    -0.343 N 
ATOM     10  C18 MOL d          19.717  11.203  14.214  0.00  0.00     0.047 A 
ATOM     11  C17 MOL d          19.756  12.288  13.330  0.00  0.00     0.099 A 
ATOM     12  C16 MOL d          19.185  12.176  12.046  0.00  0.00     0.099 A 
ENDROOT
BRANCH   3  13
ATOM     13  C10 MOL d          16.201   6.065  14.093  0.00  0.00     0.032 A 
ATOM     14  C11 MOL d          17.060   4.970  14.196  0.00  0.00     0.018 A 
ATOM     15  C12 MOL d          16.723   3.907  15.047  0.00  0.00     0.026 A 
ATOM     16  C13 MOL d          15.552   3.892  15.795  0.00  0.00     0.079 A 
ATOM     17  C14 MOL d          14.731   5.023  15.645  0.00  0.00     0.026 A 
ATOM     18  C15 MOL d          15.069   6.084  14.838  0.00  0.00     0.018 A 
BRANCH  16  19
ATOM     19  S   MOL d          15.057   2.603  16.819  0.00  0.00     0.256 S 
ATOM     20  O1  MOL d          13.651   2.657  16.798  0.00  0.00    -0.201 OA
ATOM     21  O2  MOL d          15.653   2.841  18.090  0.00  0.00    -0.201 OA
BRANCH  19  22
ATOM     22  N1  MOL d          15.628   1.272  16.207  0.00  0.00    -0.324 N 
ATOM     23  H12 MOL d          15.450   0.398  16.658  0.00  0.00     0.169 HD
ATOM     24  H13 MOL d          16.169   1.300  15.367  0.00  0.00     0.169 HD
ENDBRANCH  19  22
ENDBRANCH  16  19
ENDBRANCH   3  13
BRANCH  12  25
ATOM     25  O16 MOL d          19.226  13.263  11.176  0.00  0.00    -0.358 OA
ATOM     26  H16 MOL d          18.802  13.029  10.358  0.00  0.00     0.217 HD
ENDBRANCH  12  25
BRANCH  11  27
ATOM     27  O17 MOL d          20.385  13.426  13.825  0.00  0.00    -0.358 OA
ATOM     28  H15 MOL d          21.286  13.219  14.043  0.00  0.00     0.217 HD
ENDBRANCH  11  27
TORSDOF 5
