3wtj_ligand
  -MTS-   11181611423D 0   0.00000     0.00000     0

 16 17  0  0  0  0  0  0  0  0999 V2000
   29.8120  -26.6700  -30.4830 C   0  0  0  0  0  0  0  0  0  0  0  0
   29.7920  -26.2740  -31.8490 C   0  0  0  0  0  0  0  0  0  0  0  0
   29.6820  -24.8930  -32.1610 C   0  0  0  0  0  0  0  0  0  0  0  0
   29.6260  -24.3450  -33.8640 Cl  0  0  0  0  0  0  0  0  0  0  0  0
   29.6060  -23.9590  -31.1430 N   0  0  0  0  0  0  0  0  0  0  0  0
   29.6240  -24.3160  -29.8270 C   0  0  0  0  0  0  0  0  0  0  0  0
   29.7220  -25.6780  -29.4600 C   0  0  0  0  0  0  0  0  0  0  0  0
   29.7060  -26.0590  -27.9900 C   0  0  0  0  0  0  0  0  0  0  0  0
   30.9450  -26.5950  -27.4330 N   0  0  0  0  0  0  0  0  0  0  0  0
   32.0910  -25.6830  -27.3020 C   0  0  0  0  0  0  0  0  0  0  0  0
   33.2460  -26.4860  -26.6920 C   0  0  0  0  0  0  0  0  0  0  0  0
   32.6410  -28.1120  -26.4410 S   0  0  0  0  0  0  0  0  0  0  0  0
   31.1000  -27.8620  -27.0270 C   0  0  0  0  0  0  0  0  0  0  0  0
   30.1710  -28.7560  -27.0850 N   0  0  0  0  0  0  0  0  0  0  0  0
   30.3190  -29.9160  -26.7110 C   0  0  0  0  0  0  0  0  0  0  0  0
   30.4740  -31.0140  -26.3690 N   0  0  0  0  0  0  0  0  0  0  0  0
  1  2  2  0  0  0  0
  1  7  1  0  0  0  0
  2  3  1  0  0  0  0
  3  4  1  0  0  0  0
  3  5  2  0  0  0  0
  5  6  1  0  0  0  0
  6  7  2  0  0  0  0
  7  8  1  0  0  0  0
  8  9  1  0  0  0  0
  9 10  1  0  0  0  0
  9 13  1  0  0  0  0
 10 11  1  0  0  0  0
 11 12  1  0  0  0  0
 12 13  1  0  0  0  0
 13 14  2  0  0  0  0
 14 15  1  0  0  0  0
 15 16  3  0  0  0  0
M  END
$$$$
