REMARK  6 active torsions:
REMARK  status: ('A' for Active; 'I' for Inactive)
REMARK    1  A    between atoms: C2_8  and  C23_9 
REMARK    2  A    between atoms: N8_12  and  C12_15 
REMARK    3  A    between atoms: C12_15  and  C13_16 
REMARK    4  A    between atoms: C12_15  and  C16_19 
REMARK    5  A    between atoms: C16_19  and  C17_20 
REMARK    6  A    between atoms: C20_23  and  O26_24 
ROOT
ATOM      1  O11 DK2 d          26.287   5.726  14.578  0.00  0.00    -0.267 OA
ATOM      2  C7  DK2 d          24.991   5.710  14.592  0.00  0.00     0.262 A 
ATOM      3  C5  DK2 d          24.183   5.326  13.412  0.00  0.00     0.048 A 
ATOM      4  C4  DK2 d          22.861   5.436  13.819  0.00  0.00     0.049 A 
ATOM      5  C3  DK2 d          21.812   5.148  12.950  0.00  0.00     0.036 A 
ATOM      6  C6  DK2 d          24.512   4.911  12.139  0.00  0.00     0.019 A 
ATOM      7  C1  DK2 d          23.471   4.616  11.263  0.00  0.00     0.019 A 
ATOM      8  C2  DK2 d          22.135   4.719  11.660  0.00  0.00     0.041 A 
ATOM      9  N8  DK2 d          24.254   6.039  15.670  0.00  0.00    -0.264 N 
ATOM     10  C9  DK2 d          22.970   5.891  15.241  0.00  0.00     0.262 A 
ATOM     11  O10 DK2 d          21.932   6.114  15.970  0.00  0.00    -0.267 OA
ENDROOT
BRANCH   9  12
ATOM     12  C12 DK2 d          24.783   6.501  16.994  0.00  0.00     0.201 C 
BRANCH  12  13
ATOM     13  C13 DK2 d          25.820   5.551  17.510  0.00  0.00     0.197 C 
ATOM     14  O14 DK2 d          26.851   6.023  18.041  0.00  0.00    -0.646 OA
ATOM     15  O15 DK2 d          25.629   4.333  17.359  0.00  0.00    -0.646 OA
ENDBRANCH  12  13
BRANCH  12  16
ATOM     16  C16 DK2 d          25.386   7.906  16.815  0.00  0.00     0.075 C 
BRANCH  16  17
ATOM     17  C17 DK2 d          24.296   8.828  16.314  0.00  0.00    -0.056 A 
ATOM     18  C18 DK2 d          24.150   9.061  14.942  0.00  0.00     0.010 A 
ATOM     19  C19 DK2 d          23.125   9.893  14.490  0.00  0.00     0.037 A 
ATOM     20  C20 DK2 d          22.253  10.479  15.413  0.00  0.00     0.065 A 
ATOM     21  C21 DK2 d          22.389  10.235  16.786  0.00  0.00     0.037 A 
ATOM     22  C22 DK2 d          23.416   9.407  17.235  0.00  0.00     0.010 A 
BRANCH  20  23
ATOM     23  O26 DK2 d          21.249  11.283  14.972  0.00  0.00    -0.361 OA
ATOM     24  H9  DK2 d          20.749  11.600  15.715  0.00  0.00     0.217 HD
ENDBRANCH  20  23
ENDBRANCH  16  17
ENDBRANCH  12  16
ENDBRANCH   9  12
BRANCH   8  25
ATOM     25  C23 DK2 d          21.083   4.394  10.640  0.00  0.00     0.209 C 
ATOM     26  O24 DK2 d          21.365   4.638   9.437  0.00  0.00    -0.644 OA
ATOM     27  O25 DK2 d          19.976   3.891  10.969  0.00  0.00    -0.644 OA
ENDBRANCH   8  25
TORSDOF 6
