REMARK  8 active torsions:
REMARK  status: ('A' for Active; 'I' for Inactive)
REMARK    1  A    between atoms: C8_1  and  C9_2 
REMARK    2  A    between atoms: C12_7  and  C15_8 
REMARK    3  A    between atoms: C15_8  and  N16_9 
REMARK    4  A    between atoms: C15_8  and  N17_10 
REMARK    5  A    between atoms: C18_11  and  C19_12 
REMARK    6  A    between atoms: C22_17  and  C25_18 
REMARK    7  A    between atoms: C25_18  and  N26_19 
REMARK    8  A    between atoms: C25_18  and  N27_20 
ROOT
ATOM      1  C8  BBA d          43.606  22.617  51.103  0.00  0.00     0.022 C 
ATOM      2  C18 BBA d          42.113  26.248  54.323  0.00  0.00     0.022 C 
ATOM      3  C1  BBA d          43.056  23.797  51.510  0.00  0.00    -0.007 C 
ATOM      4  C2  BBA d          42.645  24.763  50.419  0.00  0.00     0.043 C 
ATOM      5  C3  BBA d          43.720  25.879  50.260  0.00  0.00     0.005 C 
ATOM      6  C   BBA d          43.594  26.965  51.376  0.00  0.00     0.005 C 
ATOM      7  C4  BBA d          43.997  26.403  52.776  0.00  0.00     0.043 C 
ATOM      8  C5  BBA d          42.848  25.616  53.368  0.00  0.00    -0.007 C 
ATOM      9  C6  BBA d          42.707  24.187  52.923  0.00  0.00     0.184 C 
ATOM     10  O7  BBA d          42.320  23.336  53.718  0.00  0.00    -0.287 OA
ENDROOT
BRANCH   1  11
ATOM     11  C9  BBA d          44.148  21.479  51.970  0.00  0.00    -0.036 A 
ATOM     12  C14 BBA d          44.963  21.729  53.122  0.00  0.00     0.012 A 
ATOM     13  C13 BBA d          45.437  20.662  53.912  0.00  0.00     0.016 A 
ATOM     14  C12 BBA d          45.140  19.320  53.549  0.00  0.00     0.007 A 
ATOM     15  C11 BBA d          44.333  19.057  52.403  0.00  0.00     0.016 A 
ATOM     16  C10 BBA d          43.852  20.133  51.606  0.00  0.00     0.012 A 
BRANCH  14  17
ATOM     17  C15 BBA d          45.657  18.190  54.407  0.00  0.00     0.102 C 
BRANCH  17  18
ATOM     18  N16 BBA d          45.128  16.934  54.296  0.00  0.00    -0.385 N 
ATOM     19  H6  BBA d          45.487  16.170  54.886  0.00  0.00     0.157 HD
ATOM     20  H7  BBA d          44.370  16.752  53.623  0.00  0.00     0.157 HD
ENDBRANCH  17  18
BRANCH  17  21
ATOM     21  N17 BBA d          46.663  18.422  55.309  0.00  0.00    -0.385 N 
ATOM     22  H8  BBA d          47.067  19.365  55.399  0.00  0.00     0.157 HD
ATOM     23  H9  BBA d          47.015  17.653  55.897  0.00  0.00     0.157 HD
ENDBRANCH  17  21
ENDBRANCH  14  17
ENDBRANCH   1  11
BRANCH   2  24
ATOM     24  C19 BBA d          40.873  25.744  55.050  0.00  0.00    -0.036 A 
ATOM     25  C20 BBA d          40.890  25.610  56.469  0.00  0.00     0.012 A 
ATOM     26  C21 BBA d          39.727  25.147  57.158  0.00  0.00     0.016 A 
ATOM     27  C22 BBA d          38.542  24.814  56.425  0.00  0.00     0.007 A 
ATOM     28  C23 BBA d          38.535  24.948  55.013  0.00  0.00     0.016 A 
ATOM     29  C24 BBA d          39.690  25.408  54.332  0.00  0.00     0.012 A 
BRANCH  27  30
ATOM     30  C25 BBA d          37.294  24.324  57.137  0.00  0.00     0.102 C 
BRANCH  30  31
ATOM     31  N26 BBA d          36.508  23.358  56.562  0.00  0.00    -0.385 N 
ATOM     32  H15 BBA d          35.662  23.027  57.047  0.00  0.00     0.157 HD
ATOM     33  H16 BBA d          36.764  22.964  55.646  0.00  0.00     0.157 HD
ENDBRANCH  30  31
BRANCH  30  34
ATOM     34  N27 BBA d          36.932  24.848  58.348  0.00  0.00    -0.385 N 
ATOM     35  H17 BBA d          37.514  25.574  58.790  0.00  0.00     0.157 HD
ATOM     36  H18 BBA d          36.077  24.517  58.818  0.00  0.00     0.157 HD
ENDBRANCH  30  34
ENDBRANCH  27  30
ENDBRANCH   2  24
TORSDOF 8
