REMARK  14 active torsions:
REMARK  status: ('A' for Active; 'I' for Inactive)
REMARK    1  A    between atoms: CAL_2  and  OAX_3 
REMARK    2  A    between atoms: OAX_3  and  CAN_4 
REMARK    3  A    between atoms: CAN_4  and  CAQ_5 
REMARK    4  A    between atoms: CAQ_5  and  CBR_6 
REMARK    5  A    between atoms: CBK_10  and  CAT_12 
REMARK    6  A    between atoms: CAT_12  and  OAV_13 
REMARK    7  A    between atoms: CBI_19  and  OAI_20 
REMARK    8  A    between atoms: CBL_21  and  OBA_22 
REMARK    9  A    between atoms: OBA_22  and  CBQ_23 
REMARK   10  A    between atoms: CBD_25  and  CBG_26 
REMARK   11  A    between atoms: CBS_35  and  CAU_36 
REMARK   12  A    between atoms: CBS_35  and  OAK_39 
REMARK   13  A    between atoms: CAU_36  and  OAW_37 
REMARK   14  A    between atoms: CBJ_45  and  OAJ_46 
ROOT
ATOM      1  CBQ CW1 d         -14.185 -14.129 -23.401  0.00  0.00     0.184 C 
ATOM      2  CBF CW1 d         -14.094 -14.742 -21.999  0.00  0.00    -0.034 C 
ATOM      3  CBD CW1 d         -15.027 -15.504 -21.269  0.00  0.00    -0.070 C 
ATOM      4  CAO CW1 d         -14.439 -15.934 -19.947  0.00  0.00     0.036 C 
ATOM      5  CAP CW1 d         -12.931 -15.908 -20.197  0.00  0.00     0.022 C 
ATOM      6  CBO CW1 d         -12.727 -14.765 -21.238  0.00  0.00     0.001 C 
ATOM      7  CAF CW1 d         -11.543 -15.069 -22.174  0.00  0.00     0.025 C 
ATOM      8  CAM CW1 d         -12.414 -13.601 -20.488  0.00  0.00    -0.007 C 
ATOM      9  CBE CW1 d         -12.999 -12.317 -20.436  0.00  0.00    -0.042 C 
ATOM     10  CBS CW1 d         -12.655 -11.164 -19.475  0.00  0.00     0.103 C 
ATOM     11  CAS CW1 d         -13.863 -10.303 -19.382  0.00  0.00     0.045 C 
ATOM     12  CAR CW1 d         -14.697 -10.528 -20.633  0.00  0.00     0.013 C 
ATOM     13  CBP CW1 d         -14.287 -11.877 -21.196  0.00  0.00     0.024 C 
ATOM     14  CBH CW1 d         -14.180 -11.686 -22.747  0.00  0.00     0.021 C 
ATOM     15  CAE CW1 d         -12.750 -11.447 -23.340  0.00  0.00     0.013 C 
ATOM     16  CBJ CW1 d         -14.969 -12.814 -23.390  0.00  0.00     0.156 C 
ENDROOT
BRANCH   1  17
ATOM     17  OBA CW1 d         -14.911 -15.129 -24.192  0.00  0.00    -0.346 OA
BRANCH  17  18
ATOM     18  CBL CW1 d         -14.165 -15.500 -25.352  0.00  0.00     0.292 C 
ATOM     19  OAY CW1 d         -13.265 -16.511 -24.793  0.00  0.00    -0.346 OA
ATOM     20  CBK CW1 d         -13.397 -17.749 -25.509  0.00  0.00     0.213 C 
ATOM     21  CBT CW1 d         -14.886 -18.285 -25.425  0.00  0.00     0.225 C 
ATOM     22  OBC CW1 d         -15.371 -18.950 -24.285  0.00  0.00    -0.335 OA
ATOM     23  OBB CW1 d         -15.017 -19.243 -26.496  0.00  0.00    -0.317 OA
ATOM     24  CBN CW1 d         -15.922 -17.286 -25.809  0.00  0.00     0.223 C 
ATOM     25  CBR CW1 d         -16.294 -20.065 -24.733  0.00  0.00     0.113 C 
ATOM     26  CAG CW1 d         -15.607 -21.380 -25.173  0.00  0.00     0.051 C 
ATOM     27  CBM CW1 d         -16.314 -19.504 -26.305  0.00  0.00     0.298 C 
ATOM     28  OAZ CW1 d         -16.672 -18.148 -26.710  0.00  0.00    -0.344 OA
ATOM     29  CBI CW1 d         -15.165 -16.088 -26.393  0.00  0.00     0.208 C 
BRANCH  20  30
ATOM     30  CAT CW1 d         -12.349 -18.814 -25.314  0.00  0.00     0.204 C 
BRANCH  30  31
ATOM     31  OAV CW1 d         -11.517 -18.533 -24.235  0.00  0.00    -0.393 OA
ATOM     32  CAA CW1 d         -12.327 -18.954 -23.102  0.00  0.00     0.201 C 
ENDBRANCH  30  31
ENDBRANCH  20  30
BRANCH  25  33
ATOM     33  CAQ CW1 d         -17.841 -19.974 -24.927  0.00  0.00     0.069 C 
BRANCH  33  34
ATOM     34  CAN CW1 d         -18.488 -19.898 -23.543  0.00  0.00     0.181 C 
BRANCH  34  35
ATOM     35  OAX CW1 d         -19.224 -21.078 -23.423  0.00  0.00    -0.328 OA
BRANCH  35  36
ATOM     36  CAL CW1 d         -20.591 -20.820 -23.393  0.00  0.00     0.398 C 
ATOM     37  OAH CW1 d         -21.004 -19.656 -23.508  0.00  0.00    -0.276 OA
ENDBRANCH  35  36
ENDBRANCH  34  35
ENDBRANCH  33  34
ENDBRANCH  25  33
BRANCH  29  38
ATOM     38  OAI CW1 d         -16.126 -15.140 -26.840  0.00  0.00    -0.388 OA
ATOM     39  H18 CW1 d         -15.679 -14.386 -27.207  0.00  0.00     0.210 HD
ENDBRANCH  29  38
ENDBRANCH  17  18
ENDBRANCH   1  17
BRANCH  16  40
ATOM     40  OAJ CW1 d         -15.382 -12.426 -24.709  0.00  0.00    -0.392 OA
ATOM     41  H52 CW1 d         -15.875 -13.134 -25.107  0.00  0.00     0.210 HD
ENDBRANCH  16  40
BRANCH   3  42
ATOM     42  CBG CW1 d         -16.522 -15.544 -21.690  0.00  0.00     0.007 C 
ATOM     43  CAD CW1 d         -17.218 -16.936 -21.682  0.00  0.00     0.014 C 
ATOM     44  CAC CW1 d         -17.263 -14.471 -20.849  0.00  0.00     0.014 C 
ENDBRANCH   3  42
BRANCH  10  45
ATOM     45  CAU CW1 d         -11.450 -10.324 -19.830  0.00  0.00     0.209 C 
BRANCH  45  46
ATOM     46  OAW CW1 d         -10.549 -10.517 -18.715  0.00  0.00    -0.393 OA
ATOM     47  CAB CW1 d          -9.269  -9.923 -19.003  0.00  0.00     0.201 C 
ENDBRANCH  45  46
ENDBRANCH  10  45
BRANCH  10  48
ATOM     48  OAK CW1 d         -12.471 -11.699 -18.141  0.00  0.00    -0.383 OA
ATOM     49  H41 CW1 d         -11.686 -12.234 -18.121  0.00  0.00     0.211 HD
ENDBRANCH  10  48
TORSDOF 14
