REMARK  6 active torsions:
REMARK  status: ('A' for Active; 'I' for Inactive)
REMARK    1  A    between atoms: C2_2  and  S7_7 
REMARK    2  A    between atoms: S7_7  and  C8_8 
REMARK    3  A    between atoms: C8_8  and  C9_9 
REMARK    4  A    between atoms: C9_9  and  C13_13 
REMARK    5  A    between atoms: C15_15  and  S19_19 
REMARK    6  A    between atoms: S19_19  and  N23_22 
ROOT
ATOM      1  C13 E49 d          -4.844   3.121  13.586  0.00  0.00     0.012 C 
ATOM      2  C14 E49 d          -5.059   2.085  14.456  0.00  0.00     0.042 C 
ATOM      3  C15 E49 d          -5.636   2.276  15.637  0.00  0.00     0.101 C 
ATOM      4  C16 E49 d          -6.197   3.492  15.925  0.00  0.00     0.057 C 
ATOM      5  C17 E49 d          -5.933   4.636  15.135  0.00  0.00     0.026 C 
ATOM      6  C18 E49 d          -5.428   4.359  13.957  0.00  0.00     0.017 C 
ATOM      7 CL21 E49 d          -6.849   3.818  17.458  0.00  0.00    -0.083 Cl
ENDROOT
BRANCH   1   8
ATOM      8  C9  E49 d          -4.228   2.963  12.223  0.00  0.00     0.169 C 
ATOM      9  O10 E49 d          -4.678   3.607  11.212  0.00  0.00    -0.291 OA
BRANCH   8  10
ATOM     10  C8  E49 d          -3.080   1.964  12.054  0.00  0.00     0.166 C 
BRANCH  10  11
ATOM     11  S7  E49 d          -1.931   2.501  10.707  0.00  0.00    -0.082 SA
BRANCH  11  12
ATOM     12  C2  E49 d          -1.517   4.150  11.113  0.00  0.00     0.189 A 
ATOM     13  N1  E49 d          -0.774   4.767  10.215  0.00  0.00    -0.228 NA
ATOM     14  C6  E49 d          -0.437   6.063  10.412  0.00  0.00     0.035 A 
ATOM     15  C5  E49 d          -0.895   6.704  11.570  0.00  0.00     0.053 A 
ATOM     16  C12 E49 d           0.406   6.742   9.444  0.00  0.00     0.070 C 
ATOM     17  C4  E49 d          -1.629   6.019  12.524  0.00  0.00     0.035 A 
ATOM     18  N3  E49 d          -1.889   4.728  12.258  0.00  0.00    -0.228 NA
ATOM     19  C11 E49 d          -2.170   6.731  13.796  0.00  0.00     0.070 C 
ENDBRANCH  11  12
ENDBRANCH  10  11
ENDBRANCH   8  10
ENDBRANCH   1   8
BRANCH   3  20
ATOM     20  S19 E49 d          -5.954   0.835  16.689  0.00  0.00     0.258 S 
ATOM     21  O20 E49 d          -7.458   0.784  16.722  0.00  0.00    -0.201 OA
ATOM     22  O22 E49 d          -5.356   1.046  17.954  0.00  0.00    -0.201 OA
BRANCH  20  23
ATOM     23  N23 E49 d          -5.297  -0.506  16.058  0.00  0.00    -0.324 N 
ATOM     24  H13 E49 d          -5.393  -1.381  16.533  0.00  0.00     0.169 HD
ATOM     25  H14 E49 d          -4.796  -0.458  15.194  0.00  0.00     0.169 HD
ENDBRANCH  20  23
ENDBRANCH   3  20
TORSDOF 6
