REMARK  7 active torsions:
REMARK  status: ('A' for Active; 'I' for Inactive)
REMARK    1  A    between atoms: C3_1  and  S1_12 
REMARK    2  A    between atoms: N8_20  and  C9_2 
REMARK    3  A    between atoms: C9_2  and  C10_3 
REMARK    4  A    between atoms: C13_6  and  O16_21 
REMARK    5  A    between atoms: S1_12  and  N21_11 
REMARK    6  A    between atoms: C6_15  and  S7_17 
REMARK    7  A    between atoms: S7_17  and  N8_20 
ROOT
ATOM      1  S7  AL9 d          -4.997   5.438  13.787  0.00  0.00     0.265 S 
ATOM      2  O3B AL9 d          -5.956   5.335  12.732  0.00  0.00    -0.200 OA
ATOM      3  O4B AL9 d          -5.524   6.362  14.736  0.00  0.00    -0.200 OA
ENDROOT
BRANCH   1   4
ATOM      4  C6  AL9 d          -4.872   3.892  14.541  0.00  0.00     0.121 A 
ATOM      5  C5  AL9 d          -3.810   3.011  14.529  0.00  0.00     0.035 A 
ATOM      6  C4  AL9 d          -4.078   1.880  15.273  0.00  0.00     0.035 A 
ATOM      7  C3  AL9 d          -5.334   1.928  15.838  0.00  0.00     0.121 A 
ATOM      8  S2  AL9 d          -6.223   3.368  15.453  0.00  0.00    -0.063 SA
BRANCH   7   9
ATOM      9  S1  AL9 d          -5.923   0.681  16.899  0.00  0.00     0.263 S 
ATOM     10  O2A AL9 d          -7.333   0.863  16.870  0.00  0.00    -0.200 OA
ATOM     11  O1A AL9 d          -5.406   0.938  18.194  0.00  0.00    -0.200 OA
BRANCH   9  12
ATOM     12  N21 AL9 d          -5.419  -0.691  16.297  0.00  0.00    -0.324 N 
ATOM     13  H7  AL9 d          -5.646  -1.551  16.754  0.00  0.00     0.169 HD
ATOM     14  H8  AL9 d          -4.873  -0.699  15.459  0.00  0.00     0.169 HD
ENDBRANCH   9  12
ENDBRANCH   7   9
ENDBRANCH   1   4
BRANCH   1  15
ATOM     15  N8  AL9 d          -3.720   5.942  13.203  0.00  0.00    -0.311 N 
ATOM     16  H11 AL9 d          -3.613   6.190  12.240  0.00  0.00     0.172 HD
BRANCH  15  17
ATOM     17  C9  AL9 d          -2.642   6.036  14.184  0.00  0.00     0.170 C 
BRANCH  17  18
ATOM     18  C10 AL9 d          -2.058   7.427  14.293  0.00  0.00    -0.040 A 
ATOM     19  C15 AL9 d          -2.005   8.026  15.548  0.00  0.00     0.011 A 
ATOM     20  C14 AL9 d          -1.462   9.294  15.690  0.00  0.00     0.037 A 
ATOM     21  C13 AL9 d          -0.966   9.979  14.586  0.00  0.00     0.068 A 
ATOM     22  C12 AL9 d          -1.025   9.369  13.322  0.00  0.00     0.037 A 
ATOM     23  C11 AL9 d          -1.569   8.098  13.169  0.00  0.00     0.011 A 
BRANCH  21  24
ATOM     24  O16 AL9 d          -0.448  11.169  14.767  0.00  0.00    -0.356 OA
ATOM     25  C17 AL9 d           0.054  11.794  13.562  0.00  0.00     0.210 C 
ENDBRANCH  21  24
ENDBRANCH  17  18
ENDBRANCH  15  17
ENDBRANCH   1  15
TORSDOF 7
