REMARK  7 active torsions:
REMARK  status: ('A' for Active; 'I' for Inactive)
REMARK    1  A    between atoms: N1_1  and  C3_2 
REMARK    2  A    between atoms: C3_2  and  C4_4 
REMARK    3  A    between atoms: C7_7  and  C10_10 
REMARK    4  A    between atoms: C17_17  and  C18_31 
REMARK    5  A    between atoms: N19_18  and  C23_22 
REMARK    6  A    between atoms: C23_22  and  C24_23 
REMARK    7  A    between atoms: C30_26  and  O29_27 
ROOT
ATOM      1  C10 MOL d          15.733 -11.333  20.092  0.00  0.00     0.235 C 
ATOM      2  N11 MOL d          15.565 -12.314  18.975  0.00  0.00    -0.057 N 
ATOM      3  C12 MOL d          14.677 -11.787  17.914  0.00  0.00     0.236 C 
ATOM      4  C13 MOL d          15.492 -11.765  16.613  0.00  0.00     0.030 C 
ATOM      5  C14 MOL d          16.955 -11.829  17.043  0.00  0.00     0.035 C 
ATOM      6  C15 MOL d          16.910 -12.534  18.395  0.00  0.00     0.196 C 
ATOM      7  C16 MOL d          17.930 -12.066  19.432  0.00  0.00     0.055 C 
ATOM      8  C17 MOL d          18.876 -13.208  19.845  0.00  0.00     0.098 C 
ATOM      9  N19 MOL d          18.286 -13.620  21.142  0.00  0.00    -0.342 N 
ATOM     10  C20 MOL d          17.308 -12.816  21.577  0.00  0.00     0.227 C 
ATOM     11  O21 MOL d          16.668 -13.030  22.599  0.00  0.00    -0.273 OA
ATOM     12  C22 MOL d          17.134 -11.635  20.662  0.00  0.00     0.121 C 
ATOM     13  H10 MOL d          15.188 -13.178  19.331  0.00  0.00     0.281 HD
ENDROOT
BRANCH   1  14
ATOM     14  C7  MOL d          14.608 -11.284  21.081  0.00  0.00    -0.027 A 
ATOM     15  C8  MOL d          13.775 -12.382  21.302  0.00  0.00     0.010 A 
ATOM     16  C9  MOL d          12.722 -12.324  22.223  0.00  0.00     0.016 A 
ATOM     17  C4  MOL d          12.491 -11.141  22.938  0.00  0.00     0.007 A 
ATOM     18  C5  MOL d          13.312 -10.038  22.716  0.00  0.00     0.016 A 
ATOM     19  C6  MOL d          14.367 -10.102  21.795  0.00  0.00     0.010 A 
BRANCH  17  20
ATOM     20  C3  MOL d          11.362 -11.083  23.936  0.00  0.00     0.102 C 
ATOM     21  N2  MOL d          11.125  -9.977  24.615  0.00  0.00    -0.385 N 
ATOM     22  H3  MOL d          11.719  -9.148  24.472  0.00  0.00     0.157 HD
ATOM     23  H4  MOL d          10.346  -9.943  25.288  0.00  0.00     0.157 HD
BRANCH  20  24
ATOM     24  N1  MOL d          10.579 -12.150  24.135  0.00  0.00    -0.385 N 
ATOM     25  H1  MOL d          10.752 -13.020  23.612  0.00  0.00     0.157 HD
ATOM     26  H2  MOL d           9.803 -12.101  24.811  0.00  0.00     0.157 HD
ENDBRANCH  20  24
ENDBRANCH  17  20
ENDBRANCH   1  14
BRANCH   8  27
ATOM     27  C18 MOL d          20.355 -12.735  19.934  0.00  0.00     0.001 C 
ATOM     28  C41 MOL d          21.012 -12.466  18.579  0.00  0.00     0.011 C 
ATOM     29  C42 MOL d          20.608 -11.531  20.842  0.00  0.00     0.011 C 
ENDBRANCH   8  27
BRANCH   9  30
ATOM     30  C23 MOL d          18.765 -14.860  21.793  0.00  0.00     0.164 C 
BRANCH  30  31
ATOM     31  C24 MOL d          19.643 -14.508  22.982  0.00  0.00    -0.040 A 
ATOM     32  C32 MOL d          21.025 -14.392  22.823  0.00  0.00     0.011 A 
ATOM     33  C31 MOL d          21.850 -14.039  23.898  0.00  0.00     0.037 A 
ATOM     34  C30 MOL d          21.281 -13.797  25.149  0.00  0.00     0.068 A 
ATOM     35  C26 MOL d          19.899 -13.922  25.316  0.00  0.00     0.037 A 
ATOM     36  C25 MOL d          19.079 -14.271  24.243  0.00  0.00     0.011 A 
BRANCH  34  37
ATOM     37  O29 MOL d          22.080 -13.451  26.211  0.00  0.00    -0.356 OA
ATOM     38  C28 MOL d          21.613 -12.549  27.222  0.00  0.00     0.210 C 
ENDBRANCH  34  37
ENDBRANCH  30  31
ENDBRANCH   9  30
TORSDOF 7
