REMARK  11 active torsions:
REMARK  status: ('A' for Active; 'I' for Inactive)
REMARK    1  A    between atoms: O4_2  and  C6_3 
REMARK    2  A    between atoms: C6_3  and  C5_5 
REMARK    3  A    between atoms: C4_6  and  O2_7 
REMARK    4  A    between atoms: C2_9  and  O1_10 
REMARK    5  A    between atoms: C8_13  and  C9_14 
REMARK    6  A    between atoms: C9_14  and  C10_15 
REMARK    7  A    between atoms: C10_15  and  C11_16 
REMARK       I    between atoms: C11_16  and  N1_18 
REMARK    8  A    between atoms: N1_18  and  C12_19 
REMARK    9  A    between atoms: C17_21  and  O8_22 
REMARK   10  A    between atoms: C15_23  and  O7_24 
REMARK   11  A    between atoms: C13_27  and  O6_28 
ROOT
ATOM      1  C10 RDA d          21.683  34.457   4.591  0.00  0.00     0.108 C 
ENDROOT
BRANCH   1   2
ATOM      2  C9  RDA d          20.342  35.008   4.099  0.00  0.00     0.051 C 
BRANCH   2   3
ATOM      3  C8  RDA d          19.286  33.900   4.005  0.00  0.00    -0.014 A 
ATOM      4  C5  RDA d          18.324  33.730   5.000  0.00  0.00     0.080 A 
ATOM      5  C4  RDA d          17.356  32.733   4.906  0.00  0.00     0.085 A 
ATOM      6  C3  RDA d          17.331  31.879   3.809  0.00  0.00     0.076 A 
ATOM      7  C2  RDA d          18.287  32.034   2.810  0.00  0.00     0.090 A 
ATOM      8  C1  RDA d          19.247  33.035   2.911  0.00  0.00     0.074 A 
ATOM      9 CL   RDA d          20.387  33.207   1.621  0.00  0.00    -0.081 Cl
BRANCH   4  10
ATOM     10  C6  RDA d          18.363  34.603   6.258  0.00  0.00     0.296 C 
ATOM     11  O3  RDA d          17.324  35.064   6.728  0.00  0.00    -0.259 OA
BRANCH  10  12
ATOM     12  O4  RDA d          19.570  34.898   6.815  0.00  0.00    -0.322 OA
ATOM     13  C7  RDA d          19.439  35.715   7.983  0.00  0.00     0.213 C 
ENDBRANCH  10  12
ENDBRANCH   4  10
BRANCH   5  14
ATOM     14  O2  RDA d          16.443  32.569   5.900  0.00  0.00    -0.360 OA
ATOM     15  H4  RDA d          15.861  31.852   5.680  0.00  0.00     0.217 HD
ENDBRANCH   5  14
BRANCH   7  16
ATOM     16  O1  RDA d          18.299  31.187   1.746  0.00  0.00    -0.359 OA
ATOM     17  H6  RDA d          17.584  30.567   1.827  0.00  0.00     0.217 HD
ENDBRANCH   7  16
ENDBRANCH   2   3
ENDBRANCH   1   2
BRANCH   1  18
ATOM     18  C11 RDA d          22.769  35.534   4.624  0.00  0.00     0.222 C 
ATOM     19  O5  RDA d          23.291  35.933   3.584  0.00  0.00    -0.273 OA
ATOM     20  N1  RDA d          23.065  35.993   5.839  0.00  0.00    -0.325 N 
ATOM     21  H11 RDA d          22.555  35.618   6.613  0.00  0.00     0.169 HD
BRANCH  20  22
ATOM     22  C12 RDA d          23.991  36.916   6.097  0.00  0.00     0.071 A 
ATOM     23  C18 RDA d          24.808  37.445   5.101  0.00  0.00     0.071 A 
ATOM     24  C17 RDA d          25.814  38.353   5.421  0.00  0.00     0.101 A 
ATOM     25  C15 RDA d          26.010  38.742   6.743  0.00  0.00     0.104 A 
ATOM     26  C14 RDA d          25.190  38.219   7.741  0.00  0.00     0.078 A 
ATOM     27  C13 RDA d          24.186  37.312   7.418  0.00  0.00     0.095 A 
BRANCH  24  28
ATOM     28  O8  RDA d          26.540  38.802   4.533  0.00  0.00    -0.358 OA
ATOM     29  H13 RDA d          26.276  38.440   3.695  0.00  0.00     0.217 HD
ENDBRANCH  24  28
BRANCH  25  30
ATOM     30  O7  RDA d          27.015  39.599   7.065  0.00  0.00    -0.353 OA
ATOM     31  C16 RDA d          26.575  40.961   7.032  0.00  0.00     0.210 C 
ENDBRANCH  25  30
BRANCH  27  32
ATOM     32  O6  RDA d          23.461  36.862   8.305  0.00  0.00    -0.358 OA
ATOM     33  H18 RDA d          22.831  36.261   7.925  0.00  0.00     0.217 HD
ENDBRANCH  27  32
ENDBRANCH  20  22
ENDBRANCH   1  18
TORSDOF 11
