REMARK  14 active torsions:
REMARK  status: ('A' for Active; 'I' for Inactive)
REMARK    1  A    between atoms: C2_2  and  N1_1 
REMARK    2  A    between atoms: S8_8  and  C5_5 
REMARK    3  A    between atoms: N11_11  and  S8_8 
REMARK    4  A    between atoms: N11_11  and  C12_12 
REMARK    5  A    between atoms: C16_16  and  N11_11 
REMARK    6  A    between atoms: C12_12  and  C13_13 
REMARK    7  A    between atoms: C17_17  and  C16_16 
REMARK    8  A    between atoms: C17_17  and  O18_18 
REMARK    9  A    between atoms: C19_19  and  C17_17 
REMARK   10  A    between atoms: C19_19  and  N20_20 
REMARK   11  A    between atoms: C32_32  and  C19_19 
REMARK       I    between atoms: N20_20  and  C21_21 
REMARK   12  A    between atoms: C21_21  and  O23_23 
REMARK   13  A    between atoms: O23_23  and  C24_24 
REMARK   14  A    between atoms: C38_38  and  C32_32 
ROOT
ATOM      1  C17 MOL d          13.573  62.041  17.941  0.00  0.00     0.160 C 
ENDROOT
BRANCH   1   2
ATOM      2  C16 MOL d          12.530  61.107  17.253  0.00  0.00     0.169 C 
BRANCH   2   3
ATOM      3  N11 MOL d          11.183  61.754  17.286  0.00  0.00    -0.304 N 
BRANCH   3   4
ATOM      4  S8  MOL d          10.442  62.266  15.834  0.00  0.00     0.260 S 
ATOM      5  O9  MOL d          11.480  62.429  14.837  0.00  0.00    -0.200 OA
ATOM      6  O10 MOL d           9.523  63.328  16.231  0.00  0.00    -0.200 OA
BRANCH   4   7
ATOM      7  C5  MOL d           9.354  60.914  15.293  0.00  0.00     0.079 A 
ATOM      8  C4  MOL d          10.200  60.112  14.551  0.00  0.00     0.027 A 
ATOM      9  C3  MOL d           9.757  58.907  14.066  0.00  0.00     0.030 A 
ATOM     10  C2  MOL d           8.455  58.455  14.274  0.00  0.00     0.025 A 
ATOM     11  C7  MOL d           7.600  59.252  15.029  0.00  0.00     0.030 A 
ATOM     12  C6  MOL d           8.019  60.510  15.474  0.00  0.00     0.027 A 
BRANCH  10  13
ATOM     13  N1  MOL d           8.034  57.228  13.780  0.00  0.00    -0.399 N 
ATOM     14  H1  MOL d           8.678  56.649  13.223  0.00  0.00     0.156 HD
ATOM     15  H2  MOL d           7.078  56.897  13.971  0.00  0.00     0.156 HD
ENDBRANCH  10  13
ENDBRANCH   4   7
ENDBRANCH   3   4
BRANCH   3  16
ATOM     16  C12 MOL d          10.342  61.550  18.484  0.00  0.00     0.139 C 
BRANCH  16  17
ATOM     17  C13 MOL d          10.719  62.270  19.805  0.00  0.00    -0.004 C 
ATOM     18  C14 MOL d          10.499  63.790  19.599  0.00  0.00     0.011 C 
ATOM     19  C15 MOL d           9.669  61.789  20.830  0.00  0.00     0.011 C 
ENDBRANCH  16  17
ENDBRANCH   3  16
ENDBRANCH   2   3
ENDBRANCH   1   2
BRANCH   1  20
ATOM     20  O18 MOL d          14.686  61.324  18.498  0.00  0.00    -0.392 OA
ATOM     21  H19 MOL d          15.287  61.939  18.902  0.00  0.00     0.210 HD
ENDBRANCH   1  20
BRANCH   1  22
ATOM     22  C19 MOL d          14.109  63.130  17.006  0.00  0.00     0.121 C 
BRANCH  22  23
ATOM     23  N20 MOL d          15.027  63.989  17.796  0.00  0.00    -0.329 N 
ATOM     24  C21 MOL d          14.705  65.287  18.043  0.00  0.00     0.361 C 
ATOM     25  O22 MOL d          13.707  65.900  17.656  0.00  0.00    -0.238 OA
ATOM     26  H21 MOL d          15.884  63.612  18.147  0.00  0.00     0.165 HD
BRANCH  24  27
ATOM     27  O23 MOL d          15.685  65.803  18.840  0.00  0.00    -0.296 OA
BRANCH  27  28
ATOM     28  C24 MOL d          15.586  67.239  19.125  0.00  0.00     0.166 C 
ATOM     29  C25 MOL d          16.206  67.456  20.509  0.00  0.00     0.204 C 
ATOM     30  O26 MOL d          17.627  67.385  20.310  0.00  0.00    -0.358 OA
ATOM     31  C27 MOL d          17.921  67.929  19.001  0.00  0.00     0.266 C 
ATOM     32  O28 MOL d          18.756  67.029  18.336  0.00  0.00    -0.361 OA
ATOM     33  C31 MOL d          16.573  68.003  18.247  0.00  0.00     0.075 C 
ATOM     34  C29 MOL d          18.069  66.433  17.262  0.00  0.00     0.171 C 
ATOM     35  C30 MOL d          16.940  67.403  16.870  0.00  0.00     0.038 C 
ENDBRANCH  27  28
ENDBRANCH  24  27
ENDBRANCH  22  23
BRANCH  22  36
ATOM     36  C32 MOL d          14.884  62.633  15.762  0.00  0.00     0.066 C 
BRANCH  36  37
ATOM     37  C38 MOL d          15.301  63.786  14.858  0.00  0.00    -0.056 A 
ATOM     38  C33 MOL d          16.612  64.239  14.783  0.00  0.00     0.007 A 
ATOM     39  C34 MOL d          17.031  65.316  14.004  0.00  0.00     0.001 A 
ATOM     40  C35 MOL d          16.034  66.011  13.330  0.00  0.00     0.000 A 
ATOM     41  C36 MOL d          14.722  65.593  13.396  0.00  0.00     0.001 A 
ATOM     42  C37 MOL d          14.323  64.523  14.176  0.00  0.00     0.007 A 
ENDBRANCH  36  37
ENDBRANCH  22  36
ENDBRANCH   1  22
TORSDOF 14
