REMARK  6 active torsions:
REMARK  status: ('A' for Active; 'I' for Inactive)
REMARK    1  A    between atoms: N12_26  and  C2_2 
REMARK       I    between atoms: C13_5  and  N12_26 
REMARK       I    between atoms: N14_27  and  C13_5 
REMARK    2  A    between atoms: C16_6  and  N14_27 
REMARK    3  A    between atoms: O22_12  and  C19_9 
REMARK    4  A    between atoms: C23_29  and  O22_12 
REMARK    5  A    between atoms: C29_31  and  C27_15 
REMARK       I    between atoms: N30_17  and  C29_31 
REMARK    6  A    between atoms: C6_20  and  C7_21 
ROOT
ATOM      1  C16 BAX d         -25.341  -1.759 -12.256  0.00  0.00     0.036 A 
ATOM      2  C17 BAX d         -25.465  -1.340 -13.576  0.00  0.00     0.032 A 
ATOM      3  C18 BAX d         -24.343  -0.872 -14.261  0.00  0.00     0.039 A 
ATOM      4  C19 BAX d         -23.112  -0.822 -13.604  0.00  0.00     0.076 A 
ATOM      5  C20 BAX d         -22.959  -1.234 -12.287  0.00  0.00     0.039 A 
ATOM      6  C21 BAX d         -24.084  -1.701 -11.617  0.00  0.00     0.032 A 
ENDROOT
BRANCH   1   7
ATOM      7  N14 BAX d         -26.506  -2.223 -11.611  0.00  0.00    -0.309 N 
ATOM      8  C13 BAX d         -26.747  -2.075 -10.251  0.00  0.00     0.325 C 
ATOM      9  N12 BAX d         -27.828  -2.830  -9.815  0.00  0.00    -0.309 N 
ATOM     10  O15 BAX d         -26.069  -1.375  -9.521  0.00  0.00    -0.247 OA
ATOM     11  H15 BAX d         -28.310  -3.393 -10.487  0.00  0.00     0.170 HD
ATOM     12  H16 BAX d         -27.199  -2.685 -12.165  0.00  0.00     0.170 HD
BRANCH   9  13
ATOM     13  C2  BAX d         -28.285  -2.851  -8.488  0.00  0.00     0.037 A 
ATOM     14  C1  BAX d         -28.055  -1.789  -7.594  0.00  0.00     0.047 A 
ATOM     15  C6  BAX d         -28.518  -1.838  -6.274  0.00  0.00     0.071 A 
ATOM     16  C5  BAX d         -29.237  -2.975  -5.867  0.00  0.00     0.049 A 
ATOM     17  C4  BAX d         -29.467  -4.049  -6.742  0.00  0.00     0.027 A 
ATOM     18 CL11 BAX d         -29.841  -3.103  -4.255  0.00  0.00    -0.083 Cl
ATOM     19  C3  BAX d         -28.991  -3.977  -8.056  0.00  0.00     0.031 A 
BRANCH  15  20
ATOM     20  C7  BAX d         -28.240  -0.676  -5.351  0.00  0.00     0.419 C 
ATOM     21  F8  BAX d         -27.463  -1.049  -4.310  0.00  0.00    -0.166 F 
ATOM     22  F9  BAX d         -29.358  -0.102  -4.830  0.00  0.00    -0.166 F 
ATOM     23  F10 BAX d         -27.559   0.341  -5.933  0.00  0.00    -0.166 F 
ENDBRANCH  15  20
ENDBRANCH   9  13
ENDBRANCH   1   7
BRANCH   4  24
ATOM     24  O22 BAX d         -22.013  -0.372 -14.299  0.00  0.00    -0.311 OA
BRANCH  24  25
ATOM     25  C23 BAX d         -21.706   0.972 -14.335  0.00  0.00     0.079 A 
ATOM     26  C24 BAX d         -22.543   2.048 -13.990  0.00  0.00     0.056 A 
ATOM     27  C25 BAX d         -21.992   3.328 -14.116  0.00  0.00     0.120 A 
ATOM     28  N26 BAX d         -20.726   3.561 -14.550  0.00  0.00    -0.255 NA
ATOM     29  C27 BAX d         -19.937   2.495 -14.861  0.00  0.00     0.126 A 
ATOM     30  C28 BAX d         -20.398   1.184 -14.778  0.00  0.00     0.074 A 
BRANCH  29  31
ATOM     31  C29 BAX d         -18.534   2.702 -15.341  0.00  0.00     0.269 C 
ATOM     32  N30 BAX d         -18.033   3.988 -15.404  0.00  0.00    -0.360 N 
ATOM     33  C31 BAX d         -16.677   4.242 -15.873  0.00  0.00     0.149 C 
ATOM     34  H11 BAX d         -18.609   4.756 -15.124  0.00  0.00     0.162 HD
ATOM     35  O32 BAX d         -17.877   1.720 -15.690  0.00  0.00    -0.266 OA
ENDBRANCH  29  31
ENDBRANCH  24  25
ENDBRANCH   4  24
TORSDOF 6
