REMARK  8 active torsions:
REMARK  status: ('A' for Active; 'I' for Inactive)
REMARK    1  A    between atoms: C29_6  and  C28_7 
REMARK       I    between atoms: C28_7  and  N27_9 
REMARK    2  A    between atoms: N27_9  and  C26_10 
REMARK    3  A    between atoms: C26_10  and  C17_11 
REMARK    4  A    between atoms: C17_11  and  C18_12 
REMARK    5  A    between atoms: C17_11  and  N16_21 
REMARK       I    between atoms: C18_12  and  N19_14 
REMARK    6  A    between atoms: N16_21  and  S15_22 
REMARK    7  A    between atoms: S15_22  and  C9_25 
REMARK    8  A    between atoms: C7_32  and  N3_33 
ROOT
ATOM      1  C17 6XS d          13.961 -14.767  15.072  0.00  0.00     0.203 C 
ENDROOT
BRANCH   1   2
ATOM      2  C26 6XS d          15.424 -14.378  15.508  0.00  0.00     0.158 C 
BRANCH   2   3
ATOM      3  N27 6XS d          15.957 -13.437  14.504  0.00  0.00    -0.354 N 
ATOM      4  C28 6XS d          15.716 -12.120  14.471  0.00  0.00     0.258 C 
ATOM      5  O39 6XS d          15.037 -11.548  15.322  0.00  0.00    -0.267 OA
ATOM      6  H   6XS d          16.547 -13.814  13.790  0.00  0.00     0.162 HD
BRANCH   4   7
ATOM      7  C29 6XS d          16.185 -11.312  13.355  0.00  0.00     0.074 A 
ATOM      8  C33 6XS d          17.038 -11.638  12.384  0.00  0.00     0.027 A 
ATOM      9  C32 6XS d          17.280 -10.579  11.507  0.00  0.00     0.033 A 
ATOM     10  C31 6XS d          16.614  -9.481  11.861  0.00  0.00     0.075 A 
ATOM     11 CL3  6XS d          16.592  -7.944  10.998  0.00  0.00    -0.076 Cl
ATOM     12  S30 6XS d          15.700  -9.678  13.289  0.00  0.00    -0.072 SA
ENDBRANCH   4   7
ENDBRANCH   2   3
ENDBRANCH   1   2
BRANCH   1  13
ATOM     13  C18 6XS d          13.018 -13.608  14.753  0.00  0.00     0.244 C 
ATOM     14  O38 6XS d          12.948 -13.211  13.583  0.00  0.00    -0.271 OA
ATOM     15  N19 6XS d          12.275 -13.024  15.709  0.00  0.00    -0.347 N 
ATOM     16  C20 6XS d          12.281 -13.415  17.134  0.00  0.00     0.153 C 
ATOM     17  C24 6XS d          11.411 -11.871  15.370  0.00  0.00     0.153 C 
ATOM     18  C21 6XS d          10.830 -13.745  17.485  0.00  0.00     0.254 C 
ATOM     19  N22 6XS d          10.001 -12.547  17.264  0.00  0.00    -0.072 N 
ATOM     20  C25 6XS d           8.630 -12.795  17.737  0.00  0.00     0.269 C 
ATOM     21  C23 6XS d           9.985 -12.199  15.830  0.00  0.00     0.254 C 
ATOM     22  H   6XS d          10.393 -11.777  17.783  0.00  0.00     0.279 HD
ENDBRANCH   1  13
BRANCH   1  23
ATOM     23  N16 6XS d          13.986 -15.630  13.885  0.00  0.00    -0.300 N 
ATOM     24  H   6XS d          14.626 -15.422  13.145  0.00  0.00     0.173 HD
BRANCH  23  25
ATOM     25  S15 6XS d          13.040 -16.863  13.749  0.00  0.00     0.261 S 
ATOM     26  O36 6XS d          13.391 -17.553  12.485  0.00  0.00    -0.200 OA
ATOM     27  O37 6XS d          13.391 -17.751  14.885  0.00  0.00    -0.200 OA
BRANCH  25  28
ATOM     28  C9  6XS d          11.440 -16.503  13.783  0.00  0.00     0.106 A 
ATOM     29  C8  6XS d          10.690 -16.003  12.683  0.00  0.00     0.084 A 
ATOM     30 CL4  6XS d          11.433 -15.720  11.082  0.00  0.00    -0.080 Cl
ATOM     31  C7  6XS d           9.317 -15.701  12.767  0.00  0.00     0.063 A 
ATOM     32  C12 6XS d           8.652 -15.892  13.982  0.00  0.00     0.073 A 
ATOM     33  C11 6XS d           9.366 -16.374  15.093  0.00  0.00     0.120 A 
ATOM     34  C10 6XS d          10.736 -16.679  14.993  0.00  0.00     0.069 A 
ATOM     35  F13 6XS d           8.715 -16.501  16.267  0.00  0.00    -0.206 F 
BRANCH  31  36
ATOM     36  N3  6XS d           8.628 -15.199  11.677  0.00  0.00    -0.316 N 
ATOM     37  C2  6XS d           8.532 -13.725  11.615  0.00  0.00     0.132 C 
ATOM     38  C1  6XS d           7.699 -13.222  10.422  0.00  0.00     0.021 C 
ATOM     39  C6  6XS d           7.829 -14.112   9.187  0.00  0.00     0.011 C 
ATOM     40  C5  6XS d           7.393 -15.539   9.534  0.00  0.00     0.103 C 
ATOM     41  C4  6XS d           8.126 -16.076  10.760  0.00  0.00     0.224 C 
ATOM     42  O35 6XS d           8.239 -17.294  10.853  0.00  0.00    -0.273 OA
ENDBRANCH  31  36
ENDBRANCH  25  28
ENDBRANCH  23  25
ENDBRANCH   1  23
TORSDOF 8
