REMARK  4 active torsions:
REMARK  status: ('A' for Active; 'I' for Inactive)
REMARK    1  A    between atoms: C20_6  and  C17_7 
REMARK    2  A    between atoms: C12_11  and  O12_12 
REMARK    3  A    between atoms: C14_13  and  O14_15 
REMARK    4  A    between atoms: C3_25  and  O32_26 
ROOT
ATOM      1  C17 DOG d          11.926 -24.640  36.459  0.00  0.00     0.030 C 
ATOM      2  C16 DOG d          12.130 -26.183  36.378  0.00  0.00     0.013 C 
ATOM      3  C13 DOG d          10.551 -24.433  37.217  0.00  0.00     0.021 C 
ATOM      4  C18 DOG d          10.542 -23.257  38.190  0.00  0.00     0.022 C 
ATOM      5  C12 DOG d           9.470 -24.215  36.129  0.00  0.00     0.130 C 
ATOM      6  C14 DOG d          10.304 -25.799  37.919  0.00  0.00     0.072 C 
ATOM      7  C15 DOG d          10.839 -26.823  36.902  0.00  0.00     0.040 C 
ATOM      8  C8  DOG d           8.845 -26.009  38.357  0.00  0.00     0.026 C 
ATOM      9  C7  DOG d           8.622 -27.428  38.886  0.00  0.00     0.008 C 
ATOM     10  C9  DOG d           7.783 -25.675  37.284  0.00  0.00     0.003 C 
ATOM     11  C11 DOG d           8.068 -24.271  36.652  0.00  0.00     0.038 C 
ATOM     12  C10 DOG d           6.347 -25.809  37.860  0.00  0.00    -0.036 C 
ATOM     13  C19 DOG d           6.090 -24.776  38.990  0.00  0.00     0.016 C 
ATOM     14  C5  DOG d           6.119 -27.255  38.396  0.00  0.00    -0.004 C 
ATOM     15  C6  DOG d           7.212 -27.655  39.411  0.00  0.00     0.006 C 
ATOM     16  C4  DOG d           6.088 -28.318  37.277  0.00  0.00     0.037 C 
ATOM     17  C3  DOG d           5.073 -27.962  36.189  0.00  0.00     0.118 C 
ATOM     18  C2  DOG d           5.289 -26.580  35.648  0.00  0.00     0.032 C 
ATOM     19  C1  DOG d           5.275 -25.560  36.767  0.00  0.00     0.012 C 
ENDROOT
BRANCH   1  20
ATOM     20  C20 DOG d          13.062 -23.854  36.979  0.00  0.00    -0.045 A 
ATOM     21  C22 DOG d          13.471 -22.625  36.641  0.00  0.00     0.087 A 
ATOM     22  C23 DOG d          14.603 -22.272  37.461  0.00  0.00     0.283 A 
ATOM     23  O23 DOG d          15.265 -21.277  37.453  0.00  0.00    -0.260 OA
ATOM     24  O21 DOG d          14.839 -23.306  38.292  0.00  0.00    -0.314 OA
ATOM     25  C21 DOG d          13.916 -24.395  38.048  0.00  0.00     0.213 A 
ENDBRANCH   1  20
BRANCH   5  26
ATOM     26  O12 DOG d           9.608 -22.895  35.544  0.00  0.00    -0.395 OA
ATOM     27  H11 DOG d           8.941 -22.773  34.879  0.00  0.00     0.210 HD
ENDBRANCH   5  26
BRANCH   6  28
ATOM     28  O14 DOG d          11.212 -25.932  39.041  0.00  0.00    -0.389 OA
ATOM     29  H14 DOG d          10.955 -25.328  39.728  0.00  0.00     0.210 HD
ENDBRANCH   6  28
BRANCH  17  30
ATOM     30  O32 DOG d           3.766 -28.098  36.746  0.00  0.00    -0.396 OA
ATOM     31  H30 DOG d           3.118 -27.881  36.086  0.00  0.00     0.210 HD
ENDBRANCH  17  30
TORSDOF 4
