REMARK  2 active torsions:
REMARK  status: ('A' for Active; 'I' for Inactive)
REMARK    1  A    between atoms: C7_7  and  C4_4 
REMARK    2  A    between atoms: C9_10  and  N1_8 
ROOT
ATOM      1  C7  MOL d          32.638 -30.633  -1.198  0.00  0.00     0.039 A 
ATOM      2  C9  MOL d          34.033 -29.396  -2.693  0.00  0.00     0.076 A 
ATOM      3  C8  MOL d          32.684 -29.801  -2.352  0.00  0.00     0.080 A 
ATOM      4  C10 MOL d          34.929 -29.960  -1.799  0.00  0.00     0.082 A 
ATOM      5  S1  MOL d          34.224 -30.919  -0.597  0.00  0.00    -0.097 SA
ATOM      6 CL1  MOL d          31.303 -29.336  -3.263  0.00  0.00    -0.080 Cl
ENDROOT
BRANCH   2   7
ATOM      7  N1  MOL d          34.457 -28.523  -3.748  0.00  0.00    -0.248 N 
ATOM      8  C11 MOL d          34.482 -27.038  -3.631  0.00  0.00     0.247 A 
ATOM      9  C12 MOL d          34.991 -26.473  -4.934  0.00  0.00     0.251 A 
ATOM     10  N2  MOL d          35.279 -27.497  -5.857  0.00  0.00    -0.235 N 
ATOM     11  O1  MOL d          35.132 -25.289  -5.160  0.00  0.00    -0.271 OA
ATOM     12  S2  MOL d          34.986 -29.067  -5.294  0.00  0.00     0.328 S 
ATOM     13  H6  MOL d          35.630 -27.311  -6.775  0.00  0.00     0.183 HD
ATOM     14  O2  MOL d          36.256 -29.762  -5.166  0.00  0.00    -0.182 OA
ATOM     15  O3  MOL d          33.873 -29.630  -6.037  0.00  0.00    -0.182 OA
ENDBRANCH   2   7
BRANCH   1  16
ATOM     16  C4  MOL d          31.508 -31.285  -0.454  0.00  0.00    -0.017 A 
ATOM     17  C3  MOL d          31.689 -32.566   0.140  0.00  0.00     0.013 A 
ATOM     18  C2  MOL d          30.644 -33.195   0.863  0.00  0.00     0.001 A 
ATOM     19  C1  MOL d          29.388 -32.553   1.009  0.00  0.00     0.000 A 
ATOM     20  C6  MOL d          29.176 -31.274   0.432  0.00  0.00     0.001 A 
ATOM     21  C5  MOL d          30.224 -30.642  -0.295  0.00  0.00     0.013 A 
ENDBRANCH   1  16
TORSDOF 2
