3odu_ligand

Created by X-TOOL on Fri Sep 26 17:34:49 2014
 62 65  0  0  0  0  0  0  0  0999 V2000
   16.2630   -6.2800   67.1020  C 0  0  0  4  0  4
   17.9260   -7.9840   67.6150  N 0  0  0  2  0  3
   18.8530   -9.8430   69.4940  S 0  0  0  1  0  2
   17.6610   -6.5460   67.6430  C 0  0  0  1  0  4
   18.2090   -7.3820   69.7010  N 0  0  0  1  0  3
   20.2660   -6.1330   72.2410  S 0  0  0  1  0  2
   18.7290   -5.8120   66.8360  C 0  0  0  4  0  4
   20.7210   -8.1890   73.6900  N 0  0  0  1  0  2
   18.2290   -8.3790   68.8590  C 0  0  0  1  0  3
   22.5090   -7.4970   72.3240  N 0  0  0  2  0  3
   18.9810   -9.0930   71.0610  C 0  0  0  2  0  3
   17.7520   -6.1320   69.1200  C 0  0  0  3  0  4
   18.5880   -7.7370   70.9550  C 0  0  0  1  0  3
   18.6210   -6.7600   72.1050  C 0  0  0  3  0  4
   21.2550   -7.3690   72.7790  C 0  0  0  1  0  3
   21.3010   -9.3400   74.3660  C 0  0  0  2  0  4
   22.1470   -9.0060   75.5860  C 0  0  0  3  0  4
   22.2680  -10.2460   76.4700  C 0  0  0  3  0  4
   22.8210  -11.4530   75.7100  C 0  0  0  3  0  4
   22.1440  -11.6820   74.3500  C 0  0  0  3  0  4
   21.9670  -10.4100   73.5160  C 0  0  0  3  0  4
   22.9540   -7.4320   70.9310  C 0  0  0  2  0  4
   21.8950   -7.6050   69.8450  C 0  0  0  3  0  4
   22.5520   -7.7520   68.4730  C 0  0  0  3  0  4
   23.5120   -6.6030   68.1570  C 0  0  0  3  0  4
   24.5160   -6.3620   69.2800  C 0  0  0  3  0  4
   23.8280   -6.2180   70.6370  C 0  0  0  3  0  4
   16.0616   -5.1988   67.1222  H 0  0  0  1  0  1
   15.5228   -6.8025   67.7258  H 0  0  0  1  0  1
   16.1944   -6.6464   66.0671  H 0  0  0  1  0  1
   17.8865   -8.5890   66.7823  H 0  0  0  1  0  1
   19.7214   -6.0297   67.2577  H 0  0  0  1  0  1
   18.5417   -4.7289   66.8796  H 0  0  0  1  0  1
   18.6935   -6.1485   65.7893  H 0  0  0  1  0  1
   23.2395   -7.6588   73.0318  H 0  0  0  1  0  1
   19.3100   -9.5870   71.9741  H 0  0  0  1  0  1
   16.7735   -5.8287   69.5206  H 0  0  0  1  0  1
   18.4785   -5.3204   69.2731  H 0  0  0  1  0  1
   17.9211   -5.9334   71.9128  H 0  0  0  1  0  1
   18.3379   -7.2709   73.0371  H 0  0  0  1  0  1
   20.4192   -9.8508   74.7800  H 0  0  0  1  0  1
   21.6686   -8.1947   76.1543  H 0  0  0  1  0  1
   23.1485   -8.6860   75.2625  H 0  0  0  1  0  1
   21.2714  -10.5005   76.8597  H 0  0  0  1  0  1
   22.9423  -10.0175   77.3085  H 0  0  0  1  0  1
   22.6740  -12.3511   76.3279  H 0  0  0  1  0  1
   23.8966  -11.2958   75.5416  H 0  0  0  1  0  1
   21.1503  -12.1189   74.5283  H 0  0  0  1  0  1
   22.7578  -12.3899   73.7737  H 0  0  0  1  0  1
   22.9509  -10.0518   73.1790  H 0  0  0  1  0  1
   21.3372  -10.6290   72.6412  H 0  0  0  1  0  1
   23.6143   -8.3045   70.8180  H 0  0  0  1  0  1
   21.2366   -6.7238   69.8381  H 0  0  0  1  0  1
   21.3005   -8.5053   70.0596  H 0  0  0  1  0  1
   21.7645   -7.7749   67.7054  H 0  0  0  1  0  1
   23.1138   -8.6974   68.4503  H 0  0  0  1  0  1
   22.9262   -5.6847   68.0032  H 0  0  0  1  0  1
   24.0627   -6.8452   67.2361  H 0  0  0  1  0  1
   25.0755   -5.4397   69.0652  H 0  0  0  1  0  1
   25.2128   -7.2121   69.3228  H 0  0  0  1  0  1
   24.5934   -6.1259   71.4216  H 0  0  0  1  0  1
   23.2002   -5.3148   70.6292  H 0  0  0  1  0  1
  4  1  1  0  0  2
  4  2  1  0  0  1
  9  2  1  0  0  1
  3  9  1  0  0  1
 11  3  1  0  0  1
  4  7  1  0  0  2
 12  4  1  0  0  1
  5  9  2  0  0  1
  5 12  1  0  0  1
 13  5  1  0  0  1
 14  6  1  0  0  2
  6 15  1  0  0  2
 15  8  2  0  0  2
  8 16  1  0  0  2
 15 10  1  0  0  2
 10 22  1  0  0  2
 13 11  2  0  0  1
 13 14  1  0  0  2
 16 17  1  0  0  1
 16 21  1  0  0  1
 17 18  1  0  0  1
 18 19  1  0  0  1
 19 20  1  0  0  1
 20 21  1  0  0  1
 22 23  1  0  0  1
 22 27  1  0  0  1
 23 24  1  0  0  1
 24 25  1  0  0  1
 25 26  1  0  0  1
 26 27  1  0  0  1
  1 28  1  0  0  2
  1 29  1  0  0  2
  1 30  1  0  0  2
  2 31  1  0  0  2
  7 32  1  0  0  2
  7 33  1  0  0  2
  7 34  1  0  0  2
 10 35  1  0  0  2
 11 36  1  0  0  2
 12 37  1  0  0  2
 12 38  1  0  0  2
 14 39  1  0  0  2
 14 40  1  0  0  2
 16 41  1  0  0  2
 17 42  1  0  0  2
 17 43  1  0  0  2
 18 44  1  0  0  2
 18 45  1  0  0  2
 19 46  1  0  0  2
 19 47  1  0  0  2
 20 48  1  0  0  2
 20 49  1  0  0  2
 21 50  1  0  0  2
 21 51  1  0  0  2
 22 52  1  0  0  2
 23 53  1  0  0  2
 23 54  1  0  0  2
 24 55  1  0  0  2
 24 56  1  0  0  2
 25 57  1  0  0  2
 25 58  1  0  0  2
 26 59  1  0  0  2
 26 60  1  0  0  2
 27 61  1  0  0  2
 27 62  1  0  0  2
M  END
> <MOLECULAR_FORMULA>
C21H35N4S2

> <MOLECULAR_WEIGHT>
407.4

> <NUM_HB_ATOMS>
5  

> <NUM_ROTOR>
5  

> <XLOGP2>
6.79 

$$$$
