3wq5_ligand

Created by X-TOOL on Sun Nov 13 14:23:29 2016
 59 61  0  0  0  0  0  0  0  0999 V2000
  -29.2160   12.6310  -21.6010  C 0  3  0  1  0  3
  -29.0250   12.3870  -20.0990  C 0  0  0  3  0  4
  -30.4000   12.4930  -22.1780  N 0  0  0  3  0  3
  -29.8670   11.2040  -19.5670  C 0  0  0  1  0  3
  -30.1600   11.1540  -18.2060  C 0  0  0  2  0  3
  -30.9120   10.1090  -17.6760  C 0  0  0  2  0  3
  -31.3780    9.0980  -18.5070  C 0  0  0  2  0  3
  -30.3360   10.1800  -20.3920  C 0  0  0  2  0  3
  -31.0930    9.1370  -19.8670  C 0  0  0  2  0  3
  -28.1860   13.0460  -22.3220  N 0  0  0  2  0  3
  -28.3040   13.2750  -23.7750  C 0  0  0  2  0  4
  -29.7050   13.5110  -24.0840  O 0  0  0  1  0  2
  -27.6140   12.0670  -24.4410  C 0  0  0  2  0  4
  -26.2160   12.3480  -24.5870  O 0  0  0  2  0  2
  -28.2320   11.6960  -25.7930  C 0  0  0  2  0  4
  -27.8120   10.3900  -26.2050  O 0  0  0  2  0  2
  -29.7410   11.7190  -25.6430  C 0  0  0  2  0  4
  -30.3620   11.2080  -26.8180  O 0  0  0  2  0  2
  -30.1830   13.1470  -25.3800  C 0  0  0  2  0  4
  -31.6890   13.2030  -25.2670  C 0  0  0  3  0  4
  -31.9550   12.3800  -24.1160  O 0  0  0  1  0  2
  -33.3540   12.1350  -23.9520  C 0  0  0  2  0  4
  -33.8470   13.0020  -22.8990  O 0  0  0  1  0  2
  -35.2480   12.7800  -22.6310  C 0  0  0  3  0  4
  -35.4530   11.3370  -22.1710  C 0  0  0  2  0  4
  -36.8260   11.1070  -21.8490  O 0  0  0  2  0  2
  -35.0110   10.4020  -23.2890  C 0  0  0  2  0  4
  -35.2040    9.0470  -22.8960  O 0  0  0  2  0  2
  -33.5390   10.6630  -23.5750  C 0  0  0  2  0  4
  -33.0660    9.8090  -24.6250  O 0  0  0  2  0  2
  -29.3177   13.2977  -19.5559  H 0  0  0  1  0  1
  -27.9625   12.1734  -19.9109  H 0  0  0  1  0  1
  -30.5032   12.6625  -23.1887  H 0  0  0  1  0  1
  -31.2176   12.2162  -21.6161  H 0  0  0  1  0  1
  -29.7980   11.9385  -17.5514  H 0  0  0  1  0  1
  -31.1338   10.0843  -16.6152  H 0  0  0  1  0  1
  -31.9616    8.2819  -18.0965  H 0  0  0  1  0  1
  -30.1083   10.1976  -21.4517  H 0  0  0  1  0  1
  -31.4610    8.3536  -20.5197  H 0  0  0  1  0  1
  -27.2816   13.2128  -21.8581  H 0  0  0  1  0  1
  -27.7473   14.1807  -24.0577  H 0  0  0  1  0  1
  -27.7272   11.2005  -23.7729  H 0  0  0  1  0  1
  -26.1042   13.1199  -25.1294  H 0  0  0  1  0  1
  -27.9230   12.4307  -26.5511  H 0  0  0  1  0  1
  -28.2065   10.1816  -27.0437  H 0  0  0  1  0  1
  -30.0289   11.0899  -24.7879  H 0  0  0  1  0  1
  -31.3057   11.2282  -26.7104  H 0  0  0  1  0  1
  -29.8114   13.8254  -26.1621  H 0  0  0  1  0  1
  -32.1692   12.7918  -26.1672  H 0  0  0  1  0  1
  -32.0358   14.2342  -25.1050  H 0  0  0  1  0  1
  -33.8897   12.3482  -24.8888  H 0  0  0  1  0  1
  -35.8301   12.9596  -23.5469  H 0  0  0  1  0  1
  -35.5845   13.4683  -21.8417  H 0  0  0  1  0  1
  -34.8400   11.1503  -21.2769  H 0  0  0  1  0  1
  -37.3613   11.2663  -22.6175  H 0  0  0  1  0  1
  -35.6029   10.6037  -24.1940  H 0  0  0  1  0  1
  -36.1241    8.9002  -22.7106  H 0  0  0  1  0  1
  -32.9577   10.4532  -22.6650  H 0  0  0  1  0  1
  -33.5664    9.9740  -25.4155  H 0  0  0  1  0  1
  1  2  1  0  0  2
  1  3  2  0  0  2
  1 10  2  0  0  2
  2  4  1  0  0  2
  4  5  4  0  0  1
  4  8  4  0  0  1
  5  6  4  0  0  1
  6  7  4  0  0  1
  7  9  4  0  0  1
  8  9  4  0  0  1
 10 11  1  0  0  2
 11 12  1  0  0  1
 11 13  1  0  0  1
 12 19  1  0  0  1
 13 14  1  0  0  2
 13 15  1  0  0  1
 15 16  1  0  0  2
 15 17  1  0  0  1
 17 18  1  0  0  2
 17 19  1  0  0  1
 19 20  1  0  0  2
 20 21  1  0  0  2
 21 22  1  0  0  2
 22 23  1  0  0  1
 22 29  1  0  0  1
 23 24  1  0  0  1
 24 25  1  0  0  1
 25 26  1  0  0  2
 25 27  1  0  0  1
 27 28  1  0  0  2
 27 29  1  0  0  1
 29 30  1  0  0  2
  2 31  1  0  0  2
  2 32  1  0  0  2
  3 33  1  0  0  2
  3 34  1  0  0  2
  5 35  1  0  0  2
  6 36  1  0  0  2
  7 37  1  0  0  2
  8 38  1  0  0  2
  9 39  1  0  0  2
 10 40  1  0  0  2
 11 41  1  0  0  2
 13 42  1  0  0  2
 14 43  1  0  0  2
 15 44  1  0  0  2
 16 45  1  0  0  2
 17 46  1  0  0  2
 18 47  1  0  0  2
 19 48  1  0  0  2
 20 49  1  0  0  2
 20 50  1  0  0  2
 22 51  1  0  0  2
 24 52  1  0  0  2
 24 53  1  0  0  2
 25 54  1  0  0  2
 26 55  1  0  0  2
 27 56  1  0  0  2
 28 57  1  0  0  2
 29 58  1  0  0  2
 30 59  1  0  0  2
M  END
> <MOLECULAR_FORMULA>
C19H29N2O9

> <MOLECULAR_WEIGHT>
429.2

> <NUM_HB_ATOMS>
11 

> <NUM_ROTOR>
6  

> <XLOGP2>
-2.39

$$$$
