3ie3_ligand

Created by X-TOOL on Fri Sep 26 17:34:43 2014
 35 36  0  0  0  0  0  0  0  0999 V2000
    1.6910    5.4340   32.3440  O 0  0  0  2  0  2
    2.0640    4.2940   31.5600  C 0  0  0  3  0  4
    3.5340    3.9620   31.8000  C 0  0  0  3  0  4
    4.2550    3.6830   30.4850  C 0  0  0  3  0  4
    5.6860    3.2160   30.7300  C 0  0  0  3  0  4
    6.1090    2.1530   29.7210  C 0  0  0  3  0  4
    7.0730    2.7230   28.6840  C 0  0  0  3  0  4
    7.0010    1.7510   27.2140  S 0  0  0  1  0  2
    7.6530    2.6200   25.9120  C 0  0  0  1  0  3
    6.8460    3.6610   25.2130  C 0  0  0  1  0  3
    5.5910    4.1260   25.3930  N 0  0  0  1  0  2
    5.4430    5.1250   24.3820  O 0  0  0  1  0  2
    6.6040    5.2890   23.5670  N 0  0  0  1  0  2
    7.4780    4.3920   24.0700  C 0  0  0  1  0  3
    8.9520    2.3480   25.4850  C 0  0  0  2  0  3
    9.5360    3.0270   24.4090  C 0  0  0  2  0  3
    8.8720    4.0290   23.6960  C 0  0  0  1  0  3
    9.4990    4.6910   22.6320  N 0  0  0  1  0  3
    8.7810    5.5900   21.8500  O 0  0  0  1  0  1
   10.8430    4.4710   22.3510  O 0  0  0  1  0  1
    0.7755    5.6363   32.1910  H 0  0  0  1  0  1
    1.9091    4.5170   30.4941  H 0  0  0  1  0  1
    1.4431    3.4330   31.8485  H 0  0  0  1  0  1
    3.6011    3.0717   32.4425  H 0  0  0  1  0  1
    4.0175    4.8134   32.3013  H 0  0  0  1  0  1
    4.2760    4.6044   29.8846  H 0  0  0  1  0  1
    3.7109    2.9001   29.9364  H 0  0  0  1  0  1
    5.7555    2.7942   31.7435  H 0  0  0  1  0  1
    6.3629    4.0788   30.6447  H 0  0  0  1  0  1
    5.2146    1.7714   29.2067  H 0  0  0  1  0  1
    6.6043    1.3290   30.2554  H 0  0  0  1  0  1
    8.0967    2.7038   29.0860  H 0  0  0  1  0  1
    6.7897    3.7601   28.4515  H 0  0  0  1  0  1
    9.5270    1.5880   26.0016  H 0  0  0  1  0  1
   10.5462    2.7644   24.1164  H 0  0  0  1  0  1
  1  2  1  0  0  2
  2  3  1  0  0  2
  3  4  1  0  0  2
  4  5  1  0  0  2
  5  6  1  0  0  2
  6  7  1  0  0  2
  7  8  1  0  0  2
  8  9  1  0  0  2
  9 10  4  0  0  1
  9 15  4  0  0  1
 10 11  2  0  0  1
 10 14  4  0  0  1
 11 12  1  0  0  1
 12 13  1  0  0  1
 13 14  2  0  0  1
 14 17  4  0  0  1
 15 16  4  0  0  1
 16 17  4  0  0  1
 17 18  1  0  0  2
 18 19  2  0  0  2
 18 20  2  0  0  2
  1 21  1  0  0  2
  2 22  1  0  0  2
  2 23  1  0  0  2
  3 24  1  0  0  2
  3 25  1  0  0  2
  4 26  1  0  0  2
  4 27  1  0  0  2
  5 28  1  0  0  2
  5 29  1  0  0  2
  6 30  1  0  0  2
  6 31  1  0  0  2
  7 32  1  0  0  2
  7 33  1  0  0  2
 15 34  1  0  0  2
 16 35  1  0  0  2
M  END
> <MOLECULAR_FORMULA>
C12H15N3O4S

> <MOLECULAR_WEIGHT>
297.2

> <NUM_HB_ATOMS>
6  

> <NUM_ROTOR>
7  

> <XLOGP2>
2.29 

$$$$
