REMARK  3 active torsions:
REMARK  status: ('A' for Active; 'I' for Inactive)
REMARK    1  A    between atoms: C09_9  and  N10_10 
REMARK    2  A    between atoms: N10_10  and  S11_11 
REMARK    3  A    between atoms: S11_11  and  C14_14 
ROOT
ATOM      1  N10 R1S d         -11.245  17.917  -7.953  0.00  0.00    -0.258 N 
ATOM      2  H   R1S d         -11.637  18.455  -7.207  0.00  0.00     0.181 HD
ENDROOT
BRANCH   1   3
ATOM      3  C09 R1S d         -11.887  17.923  -9.216  0.00  0.00     0.181 A 
ATOM      4  N08 R1S d         -11.377  18.383 -10.417  0.00  0.00    -0.223 NA
ATOM      5  C05 R1S d         -12.390  18.247 -11.456  0.00  0.00     0.077 A 
ATOM      6  C04 R1S d         -13.604  17.709 -11.047  0.00  0.00     0.039 A 
ATOM      7  C06 R1S d         -12.211  18.631 -12.803  0.00  0.00     0.035 A 
ATOM      8  C03 R1S d         -14.645  17.531 -11.941  0.00  0.00     0.045 A 
ATOM      9  S23 R1S d         -13.446  17.374  -9.434  0.00  0.00    -0.049 SA
ATOM     10  C02 R1S d         -14.468  17.908 -13.263  0.00  0.00     0.035 A 
ATOM     11 CL1  R1S d         -15.817  17.665 -14.327  0.00  0.00    -0.084 Cl
ATOM     12  C07 R1S d         -13.256  18.459 -13.701  0.00  0.00     0.026 A 
ENDBRANCH   1   3
BRANCH   1  13
ATOM     13  S11 R1S d          -9.902  17.069  -7.682  0.00  0.00     0.266 S 
ATOM     14  O12 R1S d          -8.830  17.452  -8.556  0.00  0.00    -0.200 OA
ATOM     15  O13 R1S d          -9.332  17.291  -6.384  0.00  0.00    -0.200 OA
BRANCH  13  16
ATOM     16  C14 R1S d         -10.525  15.439  -7.925  0.00  0.00     0.098 A 
ATOM     17  C15 R1S d         -11.657  14.866  -7.268  0.00  0.00     0.076 A 
ATOM     18  S16 R1S d         -11.872  13.331  -7.841  0.00  0.00    -0.100 SA
ATOM     19  C17 R1S d         -10.624  13.230  -8.936  0.00  0.00     0.016 A 
ATOM     20  C18 R1S d         -10.162  12.235  -9.787  0.00  0.00     0.019 A 
ATOM     21  C22 R1S d          -9.953  14.456  -8.904  0.00  0.00     0.005 A 
ATOM     22  C19 R1S d          -9.053  12.506 -10.592  0.00  0.00     0.001 A 
ATOM     23  C20 R1S d          -8.380  13.743 -10.562  0.00  0.00     0.001 A 
ATOM     24  C21 R1S d          -8.834  14.724  -9.716  0.00  0.00     0.014 A 
ENDBRANCH  13  16
ENDBRANCH   1  13
TORSDOF 3
