2qx0_ligand

Created by X-TOOL on Fri Sep 26 17:34:38 2014
 23 24  0  0  0  0  0  0  0  0999 V2000
    3.4680    5.5500    6.9560  N 0  0  0  1  0  2
    3.2800    5.6130    8.2450  C 0  0  0  1  0  3
    3.2070    6.9820    9.0010  C 0  0  0  3  0  4
    3.3630    7.9900    8.1500  N 0  0  0  2  0  3
    3.6980    9.1120    6.0760  N 0  0  0  1  0  2
    3.8840    9.1520    4.8110  C 0  0  0  1  0  3
    4.0240   10.1260    4.0380  N 0  0  0  3  0  3
    3.9420    7.8170    4.1670  N 0  0  0  2  0  3
    3.8110    6.6480    4.8390  C 0  0  0  1  0  3
    3.8840    5.5800    4.1380  O 0  0  0  1  0  1
    3.6130    6.6720    6.1860  C 0  0  0  1  0  3
    3.5570    8.0440    6.8380  C 0  0  0  1  0  3
    3.1340    4.3740    9.0710  C 0  0  0  3  0  4
    3.2230    3.1870    8.4070  O 0  0  0  2  0  2
    4.0037    7.0207    9.7585  H 0  0  0  1  0  1
    2.2277    7.0721    9.4938  H 0  0  0  1  0  1
    3.3260    8.9164    8.5987  H 0  0  0  1  0  1
    3.9958   11.0863    4.4093  H 0  0  0  1  0  1
    4.1675    9.9674    3.0304  H 0  0  0  1  0  1
    4.0863    7.7776    3.1783  H 0  0  0  1  0  1
    2.1486    4.4113    9.5584  H 0  0  0  1  0  1
    3.9229    4.3882    9.8374  H 0  0  0  1  0  1
    3.1168    2.4719    9.0233  H 0  0  0  1  0  1
  2  1  2  0  0  1
  1 11  1  0  0  1
  3  2  1  0  0  1
  2 13  1  0  0  2
  4  3  1  0  0  1
 12  4  1  0  0  1
  5  6  2  0  0  1
  5 12  1  0  0  1
  6  7  1  0  0  2
  6  8  1  0  0  1
  8  9  1  0  0  1
  9 10  2  0  0  2
  9 11  1  0  0  1
 11 12  2  0  0  1
 13 14  1  0  0  2
  3 15  1  0  0  2
  3 16  1  0  0  2
  4 17  1  0  0  2
  7 18  1  0  0  2
  7 19  1  0  0  2
  8 20  1  0  0  2
 13 21  1  0  0  2
 13 22  1  0  0  2
 14 23  1  0  0  2
M  END
> <MOLECULAR_FORMULA>
C7H9N5O2

> <MOLECULAR_WEIGHT>
195.1

> <NUM_HB_ATOMS>
7  

> <NUM_ROTOR>
1  

> <XLOGP2>
-2.57

$$$$
