REMARK  10 active torsions:
REMARK  status: ('A' for Active; 'I' for Inactive)
REMARK    1  A    between atoms: C8_8  and  C29_29 
REMARK    2  A    between atoms: N10_10  and  C12_12 
REMARK    3  A    between atoms: C12_12  and  C13_13 
REMARK    4  A    between atoms: C13_13  and  C14_14 
REMARK    5  A    between atoms: C13_13  and  O15_15 
REMARK    6  A    between atoms: C14_14  and  C16_16 
REMARK    7  A    between atoms: C14_14  and  N17_17 
REMARK    8  A    between atoms: C16_16  and  C21_21 
REMARK       I    between atoms: N17_17  and  C18_18 
REMARK    9  A    between atoms: C18_18  and  O19_19 
REMARK   10  A    between atoms: O19_19  and  C34_34 
ROOT
ATOM      1  C13 MOL d          13.995  23.947   5.069  0.00  0.00     0.160 C 
ENDROOT
BRANCH   1   2
ATOM      2  C12 MOL d          12.885  24.884   5.496  0.00  0.00     0.169 C 
BRANCH   2   3
ATOM      3  N10 MOL d          11.621  24.146   5.618  0.00  0.00    -0.304 N 
ATOM      4  C9  MOL d          10.928  23.684   4.401  0.00  0.00     0.141 C 
ATOM      5  C8  MOL d           9.477  24.144   4.299  0.00  0.00     0.016 C 
ATOM      6  C7  MOL d           9.310  25.623   4.647  0.00  0.00     0.047 C 
ATOM      7  C4  MOL d           9.224  26.083   6.073  0.00  0.00    -0.032 A 
ATOM      8  C3  MOL d           8.449  27.210   6.279  0.00  0.00     0.051 A 
ATOM      9  C5  MOL d           9.861  25.550   7.187  0.00  0.00     0.086 A 
ATOM     10  C2  MOL d           8.316  27.764   7.535  0.00  0.00     0.117 A 
ATOM     11  C1  MOL d           8.959  27.233   8.630  0.00  0.00     0.044 A 
ATOM     12  F33 MOL d           7.566  28.867   7.695  0.00  0.00    -0.206 F 
ATOM     13  C6  MOL d           9.731  26.101   8.449  0.00  0.00     0.029 A 
ATOM     14  S11 MOL d          10.880  24.101   7.128  0.00  0.00     0.261 S 
ATOM     15  O27 MOL d          11.884  24.222   8.145  0.00  0.00    -0.200 OA
ATOM     16  O28 MOL d           9.963  22.974   7.125  0.00  0.00    -0.200 OA
BRANCH   5  17
ATOM     17  C29 MOL d           8.901  23.808   2.915  0.00  0.00    -0.046 C 
ATOM     18  C30 MOL d           7.399  23.955   2.906  0.00  0.00     0.015 C 
ATOM     19  C31 MOL d           9.153  22.358   2.528  0.00  0.00     0.015 C 
ATOM     20  C32 MOL d           9.461  24.681   1.809  0.00  0.00     0.015 C 
ENDBRANCH   5  17
ENDBRANCH   2   3
ENDBRANCH   1   2
BRANCH   1  21
ATOM     21  C14 MOL d          14.406  22.875   6.074  0.00  0.00     0.121 C 
BRANCH  21  22
ATOM     22  C16 MOL d          15.118  23.378   7.329  0.00  0.00     0.066 C 
BRANCH  22  23
ATOM     23  C21 MOL d          15.403  22.240   8.254  0.00  0.00    -0.056 A 
ATOM     24  C22 MOL d          14.396  21.724   9.053  0.00  0.00     0.007 A 
ATOM     25  C23 MOL d          14.662  20.650   9.882  0.00  0.00     0.001 A 
ATOM     26  C24 MOL d          15.926  20.097   9.907  0.00  0.00     0.000 A 
ATOM     27  C25 MOL d          16.936  20.610   9.113  0.00  0.00     0.001 A 
ATOM     28  C26 MOL d          16.672  21.688   8.290  0.00  0.00     0.007 A 
ENDBRANCH  22  23
ENDBRANCH  21  22
BRANCH  21  29
ATOM     29  N17 MOL d          15.253  21.945   5.360  0.00  0.00    -0.329 N 
ATOM     30  C18 MOL d          14.829  20.693   4.970  0.00  0.00     0.361 C 
ATOM     31  O20 MOL d          13.704  20.224   5.098  0.00  0.00    -0.238 OA
ATOM     32  H   MOL d          16.188  22.223   5.139  0.00  0.00     0.165 HD
BRANCH  30  33
ATOM     33  O19 MOL d          15.915  20.053   4.432  0.00  0.00    -0.296 OA
BRANCH  33  34
ATOM     34  C34 MOL d          15.657  18.788   3.826  0.00  0.00     0.159 C 
ATOM     35  C35 MOL d          17.017  18.199   3.522  0.00  0.00     0.200 C 
ATOM     36  O37 MOL d          17.308  18.627   2.194  0.00  0.00    -0.389 OA
ATOM     37  C38 MOL d          16.077  18.567   1.503  0.00  0.00     0.170 C 
ATOM     38  C36 MOL d          15.024  19.019   2.477  0.00  0.00     0.061 C 
ENDBRANCH  33  34
ENDBRANCH  30  33
ENDBRANCH  21  29
ENDBRANCH   1  21
BRANCH   1  39
ATOM     39  O15 MOL d          15.122  24.727   4.690  0.00  0.00    -0.392 OA
ATOM     40  H   MOL d          15.488  25.147   5.459  0.00  0.00     0.210 HD
ENDBRANCH   1  39
TORSDOF 10
