REMARK  5 active torsions:
REMARK  status: ('A' for Active; 'I' for Inactive)
REMARK    1  A    between atoms: N2_3  and  C8_4 
REMARK    2  A    between atoms: C3_12  and  N1_13 
REMARK    3  A    between atoms: C14_16  and  N3_19 
REMARK    4  A    between atoms: N3_19  and  S1_20 
REMARK    5  A    between atoms: S1_20  and  C15_23 
ROOT
ATOM      1  O3  MOL d           8.006   6.645  21.584  0.00  0.00    -0.271 OA
ATOM      2  C25 MOL d           6.919   6.139  21.765  0.00  0.00     0.247 C 
ATOM      3  N2  MOL d           6.468   5.031  21.137  0.00  0.00    -0.316 N 
ATOM      4  C14 MOL d           5.875   6.612  22.752  0.00  0.00     0.187 C 
ATOM      5  C13 MOL d           4.587   5.932  22.238  0.00  0.00     0.056 C 
ATOM      6  C12 MOL d           5.096   4.670  21.523  0.00  0.00     0.135 C 
ENDROOT
BRANCH   4   7
ATOM      7  N3  MOL d           5.772   8.070  22.780  0.00  0.00    -0.301 N 
ATOM      8  H21 MOL d           5.417   8.533  21.968  0.00  0.00     0.173 HD
BRANCH   7   9
ATOM      9  S1  MOL d           6.198   8.976  24.046  0.00  0.00     0.259 S 
ATOM     10  O1  MOL d           6.036  10.277  23.507  0.00  0.00    -0.201 OA
ATOM     11  O2  MOL d           5.483   8.568  25.205  0.00  0.00    -0.201 OA
BRANCH   9  12
ATOM     12  C15 MOL d           7.918   8.701  24.374  0.00  0.00     0.080 A 
ATOM     13  C24 MOL d           8.294   8.060  25.527  0.00  0.00     0.037 A 
ATOM     14  C23 MOL d           9.671   7.826  25.784  0.00  0.00    -0.024 A 
ATOM     15  C18 MOL d          10.625   8.265  24.818  0.00  0.00    -0.024 A 
ATOM     16  C22 MOL d          10.115   7.177  26.959  0.00  0.00     0.014 A 
ATOM     17  C17 MOL d          10.195   8.906  23.637  0.00  0.00     0.014 A 
ATOM     18  C19 MOL d          11.992   8.028  25.057  0.00  0.00     0.036 A 
ATOM     19  C16 MOL d           8.861   9.126  23.432  0.00  0.00     0.026 A 
ATOM     20  C20 MOL d          12.377   7.402  26.203  0.00  0.00     0.034 A 
ATOM     21  C21 MOL d          11.456   6.971  27.153  0.00  0.00     0.024 A 
ATOM     22 CL1  MOL d          14.084   7.140  26.437  0.00  0.00    -0.084 Cl
ENDBRANCH   9  12
ENDBRANCH   7   9
ENDBRANCH   4   7
BRANCH   3  23
ATOM     23  C8  MOL d           7.206   4.239  20.247  0.00  0.00     0.037 A 
ATOM     24  C7  MOL d           7.235   2.865  20.460  0.00  0.00     0.037 A 
ATOM     25  C6  MOL d           7.950   2.036  19.614  0.00  0.00    -0.048 A 
ATOM     26  C11 MOL d           8.645   2.563  18.537  0.00  0.00    -0.021 A 
ATOM     27  C5  MOL d           8.123   0.534  19.659  0.00  0.00     0.041 C 
ATOM     28  C10 MOL d           8.624   3.949  18.323  0.00  0.00     0.012 A 
ATOM     29  C3  MOL d           9.343   1.444  17.768  0.00  0.00     0.221 C 
ATOM     30  C9  MOL d           7.906   4.784  19.167  0.00  0.00     0.030 A 
ATOM     31  C4  MOL d           9.356   0.271  18.771  0.00  0.00     0.042 C 
BRANCH  29  32
ATOM     32  N1  MOL d           8.785   1.127  16.431  0.00  0.00    -0.070 N 
ATOM     33  C2  MOL d           9.143   2.228  15.520  0.00  0.00     0.270 C 
ATOM     34  C1  MOL d           7.306   1.041  16.452  0.00  0.00     0.270 C 
ATOM     35  H9  MOL d           9.171   0.256  16.102  0.00  0.00     0.279 HD
ENDBRANCH  29  32
ENDBRANCH   3  23
TORSDOF 5
