REMARK  0 active torsions:
REMARK  status: ('A' for Active; 'I' for Inactive)
ROOT
ATOM      1  N1  SB1 d           8.200 -38.372   0.877  0.00  0.00    -0.332 N 
ATOM      2  C2  SB1 d           8.783 -39.384   1.549  0.00  0.00     0.291 C 
ATOM      3  O2  SB1 d           9.495 -39.146   2.542  0.00  0.00    -0.264 OA
ATOM      4  C3  SB1 d           8.557 -40.841   1.126  0.00  0.00     0.226 C 
ATOM      5  O3  SB1 d           9.003 -41.219   0.039  0.00  0.00    -0.286 OA
ATOM      6  C4  SB1 d           7.751 -41.817   2.015  0.00  0.00     0.045 C 
ATOM      7  C5  SB1 d           7.098 -42.936   1.222  0.00  0.00     0.195 C 
ATOM      8  O6  SB1 d           6.313 -42.204   0.275  0.00  0.00    -0.320 OA
ATOM      9  C7  SB1 d           5.449 -42.809  -0.501  0.00  0.00     0.258 C 
ATOM     10  O7  SB1 d           5.303 -44.024  -0.461  0.00  0.00    -0.265 OA
ATOM     11  C8  SB1 d           4.720 -41.923  -1.477  0.00  0.00     0.111 C 
ATOM     12  C9  SB1 d           3.401 -42.460  -1.957  0.00  0.00     0.010 C 
ATOM     13  C10 SB1 d           2.831 -41.556  -3.058  0.00  0.00     0.000 C 
ATOM     14  C11 SB1 d           2.190 -40.262  -2.534  0.00  0.00     0.000 C 
ATOM     15  C12 SB1 d           1.374 -40.438  -1.261  0.00  0.00     0.000 C 
ATOM     16  C13 SB1 d           1.128 -39.091  -0.627  0.00  0.00     0.000 C 
ATOM     17  C14 SB1 d           2.313 -38.672   0.217  0.00  0.00     0.000 C 
ATOM     18  C15 SB1 d           2.055 -37.273   0.752  0.00  0.00     0.000 C 
ATOM     19  C16 SB1 d           3.296 -36.725   1.430  0.00  0.00     0.002 C 
ATOM     20  C17 SB1 d           3.695 -37.512   2.681  0.00  0.00     0.027 C 
ATOM     21  C18 SB1 d           4.939 -36.937   3.345  0.00  0.00     0.178 C 
ATOM     22  O19 SB1 d           6.073 -37.352   2.518  0.00  0.00    -0.320 OA
ATOM     23  C20 SB1 d           7.091 -36.526   2.258  0.00  0.00     0.282 C 
ATOM     24  O20 SB1 d           7.131 -35.372   2.674  0.00  0.00    -0.263 OA
ATOM     25  C21 SB1 d           8.258 -37.016   1.419  0.00  0.00     0.187 C 
ATOM     26  C22 SB1 d           8.483 -36.078   0.249  0.00  0.00     0.035 C 
ATOM     27  C23 SB1 d           7.465 -36.233  -0.849  0.00  0.00     0.004 C 
ATOM     28  C24 SB1 d           7.391 -37.691  -1.256  0.00  0.00     0.020 C 
ATOM     29  C25 SB1 d           7.081 -38.570  -0.056  0.00  0.00     0.127 C 
ATOM     30  C26 SB1 d           6.581 -41.127   2.774  0.00  0.00     0.026 C 
ATOM     31  C27 SB1 d           8.663 -42.462   3.096  0.00  0.00     0.026 C 
ENDROOT
TORSDOF 0
