REMARK  14 active torsions:
REMARK  status: ('A' for Active; 'I' for Inactive)
REMARK    1  A    between atoms: S02_2  and  C03_3 
REMARK    2  A    between atoms: S02_2  and  N38_38 
REMARK    3  A    between atoms: C06_6  and  N07_7 
REMARK    4  A    between atoms: N07_7  and  C08_8 
REMARK    5  A    between atoms: N07_7  and  C20_20 
REMARK    6  A    between atoms: C08_8  and  C09_9 
REMARK    7  A    between atoms: N11_11  and  C12_12 
REMARK    8  A    between atoms: C20_20  and  C21_21 
REMARK    9  A    between atoms: N23_23  and  C24_24 
REMARK   10  A    between atoms: C25_25  and  O34_34 
REMARK   11  A    between atoms: C26_26  and  O33_33 
REMARK   12  A    between atoms: C27_27  and  O32_32 
REMARK   13  A    between atoms: C28_28  and  C29_29 
REMARK   14  A    between atoms: C29_29  and  O30_30 
ROOT
ATOM      1  N07 MOL d          16.387   5.734  13.455  0.00  0.00    -0.348 N 
ENDROOT
BRANCH   1   2
ATOM      2  C06 MOL d          16.401   4.538  14.272  0.00  0.00     0.183 A 
ATOM      3  N05 MOL d          17.572   3.837  14.539  0.00  0.00    -0.154 NA
ATOM      4  N04 MOL d          17.323   2.682  15.416  0.00  0.00    -0.069 NA
ATOM      5  C03 MOL d          15.956   2.629  15.706  0.00  0.00     0.278 A 
ATOM      6  S37 MOL d          15.086   3.867  15.017  0.00  0.00    -0.040 SA
BRANCH   5   7
ATOM      7  S02 MOL d          15.287   1.335  16.725  0.00  0.00     0.264 S 
ATOM      8  O01 MOL d          15.726   1.520  18.076  0.00  0.00    -0.203 OA
ATOM      9  O39 MOL d          13.867   1.476  16.663  0.00  0.00    -0.203 OA
BRANCH   7  10
ATOM     10  N38 MOL d          15.849  -0.063  16.114  0.00  0.00    -0.326 N 
ATOM     11  H23 MOL d          15.622  -0.326  15.176  0.00  0.00     0.168 HD
ATOM     12  H24 MOL d          16.422  -0.660  16.676  0.00  0.00     0.168 HD
ENDBRANCH   7  10
ENDBRANCH   5   7
ENDBRANCH   1   2
BRANCH   1  13
ATOM     13  C08 MOL d          17.521   6.081  12.596  0.00  0.00     0.187 C 
BRANCH  13  14
ATOM     14  C09 MOL d          18.390   7.145  13.323  0.00  0.00     0.087 A 
ATOM     15  C10 MOL d          18.639   8.461  12.948  0.00  0.00     0.144 A 
ATOM     16  N11 MOL d          19.430   8.997  13.895  0.00  0.00    -0.247 N 
ATOM     17  N18 MOL d          19.674   8.067  14.844  0.00  0.00     0.009 NA
ATOM     18  N19 MOL d          19.028   6.915  14.485  0.00  0.00    -0.161 NA
BRANCH  16  19
ATOM     19  C12 MOL d          19.936  10.321  13.953  0.00  0.00     0.054 A 
ATOM     20  C13 MOL d          21.163  10.561  14.560  0.00  0.00     0.031 A 
ATOM     21  C14 MOL d          21.652  11.870  14.632  0.00  0.00     0.002 A 
ATOM     22  C15 MOL d          20.909  12.932  14.105  0.00  0.00     0.000 A 
ATOM     23  C16 MOL d          19.677  12.685  13.507  0.00  0.00     0.002 A 
ATOM     24  C17 MOL d          19.190  11.377  13.436  0.00  0.00     0.031 A 
ENDBRANCH  16  19
ENDBRANCH  13  14
ENDBRANCH   1  13
BRANCH   1  25
ATOM     25  C20 MOL d          15.217   6.578  13.511  0.00  0.00     0.187 C 
BRANCH  25  26
ATOM     26  C21 MOL d          15.070   7.318  12.180  0.00  0.00     0.087 A 
ATOM     27  C22 MOL d          15.629   8.558  11.887  0.00  0.00     0.141 A 
ATOM     28  N23 MOL d          15.309   8.867  10.646  0.00  0.00    -0.252 N 
ATOM     29  N35 MOL d          14.552   7.861  10.111  0.00  0.00     0.007 NA
ATOM     30  N36 MOL d          14.426   6.900  11.077  0.00  0.00    -0.161 NA
BRANCH  28  31
ATOM     31  C24 MOL d          15.701  10.051  10.001  0.00  0.00     0.274 C 
ATOM     32  C25 MOL d          15.355   9.894   8.553  0.00  0.00     0.199 C 
ATOM     33  C26 MOL d          15.146  11.190   7.834  0.00  0.00     0.182 C 
ATOM     34  C27 MOL d          15.644  12.404   8.534  0.00  0.00     0.180 C 
ATOM     35  C28 MOL d          15.259  12.497   9.993  0.00  0.00     0.179 C 
ATOM     36  O31 MOL d          15.013  11.177  10.641  0.00  0.00    -0.352 OA
BRANCH  32  37
ATOM     37  O34 MOL d          16.414   9.129   7.927  0.00  0.00    -0.388 OA
ATOM     38  H22 MOL d          16.180   8.947   7.024  0.00  0.00     0.210 HD
ENDBRANCH  32  37
BRANCH  33  39
ATOM     39  O33 MOL d          13.720  11.344   7.553  0.00  0.00    -0.390 OA
ATOM     40  H21 MOL d          13.248  11.457   8.370  0.00  0.00     0.210 HD
ENDBRANCH  33  39
BRANCH  34  41
ATOM     41  O32 MOL d          17.103  12.446   8.437  0.00  0.00    -0.390 OA
ATOM     42  H20 MOL d          17.360  12.388   7.524  0.00  0.00     0.210 HD
ENDBRANCH  34  41
BRANCH  35  43
ATOM     43  C29 MOL d          14.047  13.367  10.176  0.00  0.00     0.198 C 
BRANCH  43  44
ATOM     44  O30 MOL d          12.994  12.984   9.299  0.00  0.00    -0.398 OA
ATOM     45  H19 MOL d          12.245  13.551   9.439  0.00  0.00     0.209 HD
ENDBRANCH  43  44
ENDBRANCH  35  43
ENDBRANCH  28  31
ENDBRANCH  25  26
ENDBRANCH   1  25
TORSDOF 14
