REMARK  4 active torsions:
REMARK  status: ('A' for Active; 'I' for Inactive)
REMARK    1  A    between atoms: C4_1  and  C7_4 
REMARK    2  A    between atoms: C1_9  and  C4_1 
REMARK    3  A    between atoms: C7_4  and  N10_10 
REMARK    4  A    between atoms: C8_5  and  O11_6 
ROOT
ATOM      1  C5  AEG d         -22.148  39.372  94.032  0.00  0.00     0.037 A 
ATOM      2  C6  AEG d         -22.002  41.641  93.115  0.00  0.00     0.037 A 
ATOM      3  C8  AEG d         -22.749  40.550  93.579  0.00  0.00     0.065 A 
ATOM      4  C3  AEG d         -20.609  41.536  93.112  0.00  0.00     0.010 A 
ATOM      5  C2  AEG d         -20.757  39.288  94.021  0.00  0.00     0.010 A 
ATOM      6  C1  AEG d         -19.987  40.361  93.560  0.00  0.00    -0.056 A 
ENDROOT
BRANCH   6   7
ATOM      7  C4  AEG d         -18.480  40.267  93.567  0.00  0.00     0.070 C 
BRANCH   7   8
ATOM      8  C7  AEG d         -17.901  39.274  92.551  0.00  0.00     0.183 C 
ATOM      9  C9  AEG d         -18.094  39.792  91.123  0.00  0.00     0.040 C 
BRANCH   8  10
ATOM     10  N10 AEG d         -16.432  39.032  92.830  0.00  0.00    -0.075 N 
ATOM     11  H9  AEG d         -16.065  38.379  92.156  0.00  0.00     0.274 HD
ATOM     12  H10 AEG d         -16.324  38.653  93.758  0.00  0.00     0.274 HD
ATOM     13  H11 AEG d         -15.929  39.903  92.762  0.00  0.00     0.274 HD
ENDBRANCH   8  10
ENDBRANCH   7   8
ENDBRANCH   6   7
BRANCH   3  14
ATOM     14  O11 AEG d         -24.112  40.630  93.595  0.00  0.00    -0.361 OA
ATOM     15  H6  AEG d         -24.472  39.818  93.933  0.00  0.00     0.217 HD
ENDBRANCH   3  14
TORSDOF 4
