REMARK  5 active torsions:
REMARK  status: ('A' for Active; 'I' for Inactive)
REMARK    1  A    between atoms: C1_1  and  O1_7 
REMARK    2  A    between atoms: C2_2  and  O2_8 
REMARK    3  A    between atoms: C3_3  and  O3_9 
REMARK    4  A    between atoms: C4_4  and  O4_10 
REMARK    5  A    between atoms: C5_5  and  C6_6 
ROOT
ATOM      1  C1  GCU d          18.123   7.663  54.191  0.00  0.00     0.289 C 
ATOM      2  C2  GCU d          18.943   6.672  53.353  0.00  0.00     0.204 C 
ATOM      3  C3  GCU d          19.100   7.196  51.929  0.00  0.00     0.183 C 
ATOM      4  C4  GCU d          17.728   7.444  51.327  0.00  0.00     0.189 C 
ATOM      5  C5  GCU d          16.928   8.434  52.191  0.00  0.00     0.256 C 
ATOM      6  O5  GCU d          16.880   7.973  53.548  0.00  0.00    -0.340 OA
ENDROOT
BRANCH   5   7
ATOM      7  C6  GCU d          15.506   8.615  51.654  0.00  0.00     0.206 C 
ATOM      8  O6A GCU d          15.314   8.892  50.440  0.00  0.00    -0.646 OA
ATOM      9  O6B GCU d          14.558   8.455  52.449  0.00  0.00    -0.646 OA
ENDBRANCH   5   7
BRANCH   4  10
ATOM     10  O4  GCU d          17.876   7.894  49.996  0.00  0.00    -0.390 OA
ATOM     11  H9  GCU d          17.018   8.003  49.602  0.00  0.00     0.210 HD
ENDBRANCH   4  10
BRANCH   3  12
ATOM     12  O3  GCU d          19.824   6.273  51.142  0.00  0.00    -0.390 OA
ATOM     13  H8  GCU d          19.929   6.621  50.264  0.00  0.00     0.210 HD
ENDBRANCH   3  12
BRANCH   1  14
ATOM     14  O1  GCU d          18.882   8.840  54.366  0.00  0.00    -0.368 OA
ATOM     15  H6  GCU d          19.703   8.625  54.792  0.00  0.00     0.212 HD
ENDBRANCH   1  14
BRANCH   2  16
ATOM     16  O2  GCU d          20.217   6.444  53.916  0.00  0.00    -0.388 OA
ATOM     17  H7  GCU d          20.706   7.258  53.931  0.00  0.00     0.210 HD
ENDBRANCH   2  16
TORSDOF 5
