REMARK  18 active torsions:
REMARK  status: ('A' for Active; 'I' for Inactive)
REMARK    1  A    between atoms: C2_4  and  C1_1 
REMARK    2  A    between atoms: C2_4  and  O2_16 
REMARK    3  A    between atoms: O4_7  and  C4_6 
REMARK    4  A    between atoms: C2_23  and  O4_7 
REMARK    5  A    between atoms: C5_8  and  O5_9 
REMARK    6  A    between atoms: C6_10  and  C7_12 
REMARK    7  A    between atoms: C7_12  and  O7_13 
REMARK    8  A    between atoms: C7_12  and  C8_14 
REMARK    9  A    between atoms: C8_14  and  O8_15 
REMARK   10  A    between atoms: O2_16  and  C9_17 
REMARK   11  A    between atoms: C9_17  and  C10_18 
REMARK   12  A    between atoms: C1_20  and  C2_23 
REMARK   13  A    between atoms: C4_25  and  O4_26 
REMARK   14  A    between atoms: C5_27  and  O5_28 
REMARK   15  A    between atoms: C6_29  and  C7_31 
REMARK   16  A    between atoms: C7_31  and  O7_32 
REMARK   17  A    between atoms: C7_31  and  C8_33 
REMARK   18  A    between atoms: C8_33  and  O8_34 
ROOT
ATOM      1  C2  KDA d          -6.873   0.546   5.443  0.00  0.00     0.258 C 
ATOM      2  C3  KDA d          -6.746   0.257   3.952  0.00  0.00     0.115 C 
ATOM      3  C4  KDA d          -7.780   1.031   3.175  0.00  0.00     0.162 C 
ATOM      4  C5  KDA d          -9.183   0.651   3.690  0.00  0.00     0.179 C 
ATOM      5  C6  KDA d          -9.235   1.025   5.169  0.00  0.00     0.187 C 
ATOM      6  O6  KDA d          -8.218   0.300   5.881  0.00  0.00    -0.336 OA
ENDROOT
BRANCH   3   7
ATOM      7  O4  KDA d          -7.595   0.723   1.785  0.00  0.00    -0.338 OA
BRANCH   7   8
ATOM      8  C2  KDA d          -8.504   1.123   0.729  0.00  0.00     0.259 C 
ATOM      9  C3  KDA d          -7.714   1.053  -0.589  0.00  0.00     0.115 C 
ATOM     10  C4  KDA d          -6.524   2.029  -0.522  0.00  0.00     0.155 C 
ATOM     11  C5  KDA d          -7.158   3.407  -0.312  0.00  0.00     0.178 C 
ATOM     12  C6  KDA d          -7.970   3.426   0.974  0.00  0.00     0.187 C 
ATOM     13  O6  KDA d          -8.995   2.444   0.939  0.00  0.00    -0.336 OA
BRANCH   8  14
ATOM     14  C1  KDA d          -9.736   0.230   0.598  0.00  0.00     0.239 C 
ATOM     15  O1A KDA d         -10.768   0.797   0.182  0.00  0.00    -0.644 OA
ATOM     16  O1B KDA d          -9.621  -0.979   0.888  0.00  0.00    -0.644 OA
ENDBRANCH   8  14
BRANCH  10  17
ATOM     17  O4  KDA d          -5.812   2.012  -1.755  0.00  0.00    -0.393 OA
ATOM     18  H22 KDA d          -6.394   2.275  -2.459  0.00  0.00     0.210 HD
ENDBRANCH  10  17
BRANCH  11  19
ATOM     19  O5  KDA d          -7.994   3.755  -1.426  0.00  0.00    -0.390 OA
ATOM     20  H24 KDA d          -7.471   3.774  -2.219  0.00  0.00     0.210 HD
ENDBRANCH  11  19
BRANCH  12  21
ATOM     21  C7  KDA d          -8.631   4.789   1.192  0.00  0.00     0.173 C 
BRANCH  21  22
ATOM     22  O7  KDA d          -7.684   5.857   1.090  0.00  0.00    -0.391 OA
ATOM     23  H27 KDA d          -8.127   6.686   1.230  0.00  0.00     0.210 HD
ENDBRANCH  21  22
BRANCH  21  24
ATOM     24  C8  KDA d          -9.377   4.827   2.536  0.00  0.00     0.198 C 
BRANCH  24  25
ATOM     25  O8  KDA d         -10.143   6.030   2.551  0.00  0.00    -0.398 OA
ATOM     26  H30 KDA d          -9.561   6.776   2.468  0.00  0.00     0.209 HD
ENDBRANCH  24  25
ENDBRANCH  21  24
ENDBRANCH  12  21
ENDBRANCH   7   8
ENDBRANCH   3   7
BRANCH   4  27
ATOM     27  O5  KDA d          -9.430  -0.762   3.543  0.00  0.00    -0.390 OA
ATOM     28  H5  KDA d          -9.370  -0.999   2.625  0.00  0.00     0.210 HD
ENDBRANCH   4  27
BRANCH   1  29
ATOM     29  C1  KDA d          -5.898  -0.364   6.196  0.00  0.00     0.239 C 
ATOM     30  O1A KDA d          -6.344  -1.466   6.593  0.00  0.00    -0.644 OA
ATOM     31  O1B KDA d          -4.732   0.040   6.334  0.00  0.00    -0.644 OA
ENDBRANCH   1  29
BRANCH   1  32
ATOM     32  O2  KDA d          -6.656   1.980   5.636  0.00  0.00    -0.346 OA
BRANCH  32  33
ATOM     33  C9  KDA d          -6.957   2.555   6.942  0.00  0.00     0.171 C 
BRANCH  33  34
ATOM     34  C10 KDA d          -6.278   1.820   8.097  0.00  0.00     0.022 C 
ATOM     35  C11 KDA d          -6.924   2.049   9.470  0.00  0.00     0.007 C 
ENDBRANCH  33  34
ENDBRANCH  32  33
ENDBRANCH   1  32
BRANCH   5  36
ATOM     36  C7  KDA d         -10.572   0.708   5.837  0.00  0.00     0.173 C 
BRANCH  36  37
ATOM     37  O7  KDA d         -11.659   1.374   5.190  0.00  0.00    -0.391 OA
ATOM     38  H8  KDA d         -12.471   1.154   5.631  0.00  0.00     0.210 HD
ENDBRANCH  36  37
BRANCH  36  39
ATOM     39  C8  KDA d         -10.475   1.178   7.295  0.00  0.00     0.198 C 
BRANCH  39  40
ATOM     40  O8  KDA d         -11.698   0.914   7.990  0.00  0.00    -0.398 OA
ATOM     41  H11 KDA d         -12.410   1.376   7.563  0.00  0.00     0.209 HD
ENDBRANCH  39  40
ENDBRANCH  36  39
ENDBRANCH   5  36
TORSDOF 18
