REMARK  2 active torsions:
REMARK  status: ('A' for Active; 'I' for Inactive)
REMARK    1  A    between atoms: C14_6  and  N2_7 
REMARK    2  A    between atoms: C9_8  and  C8_9 
REMARK       I    between atoms: C8_9  and  N1_11 
ROOT
ATOM      1 BR1  SX3 d         -19.283   9.230 -14.406  0.00  0.00    -0.051 Br
ATOM      2  C11 SX3 d         -20.816   8.587 -15.311  0.00  0.00     0.012 A 
ATOM      3  C10 SX3 d         -21.821   9.508 -15.625  0.00  0.00     0.038 A 
ATOM      4  C12 SX3 d         -20.937   7.232 -15.640  0.00  0.00     0.021 A 
ATOM      5  C13 SX3 d         -22.108   6.804 -16.295  0.00  0.00     0.031 A 
ATOM      6  C14 SX3 d         -23.137   7.708 -16.638  0.00  0.00     0.041 A 
ATOM      7  C9  SX3 d         -22.980   9.076 -16.284  0.00  0.00     0.059 A 
ENDROOT
BRANCH   7   8
ATOM      8  C8  SX3 d         -23.974  10.127 -16.615  0.00  0.00     0.256 C 
ATOM      9  O1  SX3 d         -23.597  10.945 -17.454  0.00  0.00    -0.267 OA
ATOM     10  N1  SX3 d         -25.272  10.225 -16.088  0.00  0.00    -0.347 N 
ATOM     11  C6  SX3 d         -25.652   9.382 -14.948  0.00  0.00     0.130 C 
ATOM     12  C7  SX3 d         -26.200  11.327 -16.414  0.00  0.00     0.130 C 
ATOM     13  C4  SX3 d         -26.128  10.176 -13.739  0.00  0.00    -0.000 C 
ATOM     14  C5  SX3 d         -26.581   9.209 -12.666  0.00  0.00     0.011 C 
ATOM     15  C3  SX3 d         -27.244  11.131 -14.137  0.00  0.00     0.011 C 
ATOM     16  C2  SX3 d         -26.780  12.080 -15.234  0.00  0.00    -0.000 C 
ATOM     17  C1  SX3 d         -27.956  12.943 -15.686  0.00  0.00     0.011 C 
ENDBRANCH   7   8
BRANCH   6  18
ATOM     18  N2  SX3 d         -24.269   7.219 -17.310  0.00  0.00    -0.398 N 
ATOM     19  H4  SX3 d         -24.336   6.218 -17.545  0.00  0.00     0.156 HD
ATOM     20  H5  SX3 d         -25.032   7.861 -17.568  0.00  0.00     0.156 HD
ENDBRANCH   6  18
TORSDOF 2
