REMARK  5 active torsions:
REMARK  status: ('A' for Active; 'I' for Inactive)
REMARK    1  A    between atoms: N2_3  and  C8_4 
REMARK    2  A    between atoms: C3_12  and  N1_13 
REMARK    3  A    between atoms: C14_16  and  N3_19 
REMARK    4  A    between atoms: N3_19  and  S1_20 
REMARK    5  A    between atoms: S1_20  and  C15_23 
ROOT
ATOM      1  O3  C0Z d           7.974   6.345  21.750  0.00  0.00    -0.271 OA
ATOM      2  C25 C0Z d           6.862   5.937  22.018  0.00  0.00     0.247 C 
ATOM      3  N2  C0Z d           6.300   4.785  21.561  0.00  0.00    -0.316 N 
ATOM      4  C14 C0Z d           5.903   6.616  22.965  0.00  0.00     0.187 C 
ATOM      5  C13 C0Z d           4.543   5.979  22.600  0.00  0.00     0.056 C 
ATOM      6  C12 C0Z d           4.956   4.577  22.129  0.00  0.00     0.135 C 
ENDROOT
BRANCH   4   7
ATOM      7  N3  C0Z d           5.904   8.066  22.805  0.00  0.00    -0.301 N 
ATOM      8  H21 C0Z d           5.645   8.458  21.922  0.00  0.00     0.173 HD
BRANCH   7   9
ATOM      9  S1  C0Z d           6.311   9.051  24.010  0.00  0.00     0.259 S 
ATOM     10  O1  C0Z d           6.174  10.342  23.447  0.00  0.00    -0.201 OA
ATOM     11  O2  C0Z d           5.583   8.737  25.192  0.00  0.00    -0.201 OA
BRANCH   9  12
ATOM     12  C15 C0Z d           8.020   8.775  24.366  0.00  0.00     0.080 A 
ATOM     13  C24 C0Z d           8.371   8.106  25.510  0.00  0.00     0.037 A 
ATOM     14  C23 C0Z d           9.735   7.874  25.801  0.00  0.00    -0.024 A 
ATOM     15  C18 C0Z d          10.717   8.344  24.876  0.00  0.00    -0.024 A 
ATOM     16  C22 C0Z d          10.146   7.191  26.970  0.00  0.00     0.014 A 
ATOM     17  C17 C0Z d          10.315   9.022  23.706  0.00  0.00     0.014 A 
ATOM     18  C19 C0Z d          12.078   8.114  25.148  0.00  0.00     0.036 A 
ATOM     19  C16 C0Z d           8.986   9.236  23.467  0.00  0.00     0.026 A 
ATOM     20  C20 C0Z d          12.439   7.456  26.293  0.00  0.00     0.034 A 
ATOM     21  C21 C0Z d          11.488   6.985  27.202  0.00  0.00     0.024 A 
ATOM     22 CL1  C0Z d          14.138   7.193  26.572  0.00  0.00    -0.084 Cl
ENDBRANCH   9  12
ENDBRANCH   7   9
ENDBRANCH   4   7
BRANCH   3  23
ATOM     23  C8  C0Z d           6.908   3.835  20.720  0.00  0.00     0.037 A 
ATOM     24  C7  C0Z d           7.971   4.143  19.870  0.00  0.00     0.037 A 
ATOM     25  C6  C0Z d           8.537   3.145  19.081  0.00  0.00    -0.048 A 
ATOM     26  C11 C0Z d           8.045   1.847  19.117  0.00  0.00    -0.021 A 
ATOM     27  C5  C0Z d           9.672   3.227  18.095  0.00  0.00     0.041 C 
ATOM     28  C10 C0Z d           6.999   1.538  19.975  0.00  0.00     0.012 A 
ATOM     29  C3  C0Z d           8.815   0.948  18.159  0.00  0.00     0.221 C 
ATOM     30  C9  C0Z d           6.434   2.517  20.764  0.00  0.00     0.030 A 
ATOM     31  C4  C0Z d          10.107   1.758  17.907  0.00  0.00     0.042 C 
BRANCH  29  32
ATOM     32  N1  C0Z d           8.121   0.609  16.873  0.00  0.00    -0.070 N 
ATOM     33  C2  C0Z d           7.710   1.800  16.097  0.00  0.00     0.270 C 
ATOM     34  C1  C0Z d           6.871  -0.123  17.164  0.00  0.00     0.270 C 
ATOM     35  H9  C0Z d           8.737   0.040  16.314  0.00  0.00     0.279 HD
ENDBRANCH  29  32
ENDBRANCH   3  23
TORSDOF 5
