REMARK  12 active torsions:
REMARK  status: ('A' for Active; 'I' for Inactive)
REMARK    1  A    between atoms: C1_1  and  SBN_15 
REMARK    2  A    between atoms: C2_2  and  O2_7 
REMARK    3  A    between atoms: C3_3  and  O3_8 
REMARK    4  A    between atoms: C4_4  and  O4_9 
REMARK    5  A    between atoms: C6_6  and  O6_10 
REMARK    6  A    between atoms: O6_10  and  CAZ_11 
REMARK    7  A    between atoms: SBN_15  and  N_18 
REMARK    8  A    between atoms: CG_20  and  OD2_21 
REMARK    9  A    between atoms: OD2_21  and  SBM_22 
REMARK   10  A    between atoms: SBM_22  and  NAF_25 
REMARK   11  A    between atoms: CA_27  and  C_28 
REMARK   12  A    between atoms: C_28  and  OAS_30 
ROOT
ATOM      1  SBN MOL d          -2.881   5.778  13.576  0.00  0.00     0.260 S 
ATOM      2  OAN MOL d          -1.817   5.815  14.692  0.00  0.00    -0.203 OA
ATOM      3  OAO MOL d          -3.473   7.143  13.182  0.00  0.00    -0.203 OA
ENDROOT
BRANCH   1   4
ATOM      4  C1  MOL d          -2.112   5.275  11.985  0.00  0.00     0.302 C 
ATOM      5  C2  MOL d          -0.775   5.895  11.933  0.00  0.00     0.196 C 
ATOM      6  C3  MOL d           0.199   5.152  11.081  0.00  0.00     0.185 C 
ATOM      7  C4  MOL d          -0.008   3.746  10.672  0.00  0.00     0.208 C 
ATOM      8  C5  MOL d          -1.105   3.043  11.463  0.00  0.00     0.102 C 
ATOM      9  C6  MOL d          -1.369   1.716  11.160  0.00  0.00     0.180 C 
ATOM     10  O5  MOL d          -2.155   3.872  12.090  0.00  0.00    -0.326 OA
BRANCH   5  11
ATOM     11  O2  MOL d          -0.844   7.345  11.664  0.00  0.00    -0.389 OA
ATOM     12  H6  MOL d          -1.483   7.743  12.243  0.00  0.00     0.210 HD
ENDBRANCH   5  11
BRANCH   6  13
ATOM     13  O3  MOL d           1.056   5.855  10.159  0.00  0.00    -0.390 OA
ATOM     14  H7  MOL d           1.167   6.752  10.452  0.00  0.00     0.210 HD
ENDBRANCH   6  13
BRANCH   7  15
ATOM     15  O4  MOL d           0.159   3.416   9.327  0.00  0.00    -0.386 OA
ATOM     16  H8  MOL d           0.872   3.927   8.963  0.00  0.00     0.210 HD
ENDBRANCH   7  15
BRANCH   9  17
ATOM     17  O6  MOL d          -2.611   1.399  11.702  0.00  0.00    -0.289 OA
BRANCH  17  18
ATOM     18  CAZ MOL d          -3.383   0.486  11.003  0.00  0.00     0.259 C 
ATOM     19  OAG MOL d          -3.221   0.287   9.867  0.00  0.00    -0.265 OA
ATOM     20  CAB MOL d          -4.431  -0.242  11.844  0.00  0.00     0.126 C 
ENDBRANCH  17  18
ENDBRANCH   9  17
ENDBRANCH   1   4
BRANCH   1  21
ATOM     21  N   MOL d          -3.937   4.921  13.968  0.00  0.00    -0.292 N 
ATOM     22  CD1 MOL d          -3.727   3.906  14.562  0.00  0.00     0.169 C 
ATOM     23  CG  MOL d          -5.173   3.140  14.586  0.00  0.00     0.165 C 
ATOM     24  CB  MOL d          -5.525   3.256  13.479  0.00  0.00     0.071 C 
ATOM     25  CA  MOL d          -5.047   4.657  13.034  0.00  0.00     0.198 C 
BRANCH  23  26
ATOM     26  OD2 MOL d          -4.983   1.709  15.096  0.00  0.00    -0.253 OA
BRANCH  26  27
ATOM     27  SBM MOL d          -5.687   1.049  16.481  0.00  0.00     0.356 S 
ATOM     28  OAL MOL d          -4.797   1.576  17.579  0.00  0.00    -0.176 OA
ATOM     29  OAM MOL d          -7.181   1.370  16.665  0.00  0.00    -0.176 OA
BRANCH  27  30
ATOM     30  NAF MOL d          -5.255  -0.496  16.473  0.00  0.00    -0.306 N 
ATOM     31  H15 MOL d          -5.557  -1.103  17.208  0.00  0.00     0.171 HD
ATOM     32  H16 MOL d          -4.684  -0.852  15.733  0.00  0.00     0.171 HD
ENDBRANCH  27  30
ENDBRANCH  26  27
ENDBRANCH  23  26
BRANCH  25  33
ATOM     33  C   MOL d          -6.149   5.668  13.183  0.00  0.00     0.282 C 
ATOM     34  O   MOL d          -6.622   5.829  14.198  0.00  0.00    -0.263 OA
BRANCH  33  35
ATOM     35  OAS MOL d          -6.476   6.396  12.066  0.00  0.00    -0.325 OA
ATOM     36  CAA MOL d          -7.336   7.468  12.182  0.00  0.00     0.213 C 
ENDBRANCH  33  35
ENDBRANCH  25  33
ENDBRANCH   1  21
TORSDOF 12
