REMARK  8 active torsions:
REMARK  status: ('A' for Active; 'I' for Inactive)
REMARK    1  A    between atoms: N1_1  and  C1'_9 
REMARK    2  A    between atoms: C2'_10  and  O2'_11 
REMARK    3  A    between atoms: C3'_12  and  O3'_15 
REMARK    4  A    between atoms: C4'_13  and  C5'_16 
REMARK    5  A    between atoms: C5'_16  and  O5'_17 
REMARK    6  A    between atoms: O5'_17  and  PA_18 
REMARK    7  A    between atoms: PA_18  and  O3A_21 
REMARK    8  A    between atoms: O3A_21  and  PB_22 
ROOT
ATOM      1  C1' UDP d          37.147  -0.724  11.756  0.00  0.00     0.263 C 
ATOM      2  C2' UDP d          36.693   0.406  12.671  0.00  0.00     0.198 C 
ATOM      3  C3' UDP d          37.852   0.481  13.624  0.00  0.00     0.182 C 
ATOM      4  C4' UDP d          39.050   0.133  12.735  0.00  0.00     0.180 C 
ATOM      5  O4' UDP d          38.551  -0.905  11.907  0.00  0.00    -0.353 OA
ENDROOT
BRANCH   4   6
ATOM      6  C5' UDP d          40.294  -0.326  13.486  0.00  0.00     0.216 C 
BRANCH   6   7
ATOM      7  O5' UDP d          39.884  -0.969  14.669  0.00  0.00    -0.287 OA
BRANCH   7   8
ATOM      8  PA  UDP d          40.100  -0.294  16.120  0.00  0.00     0.418 P 
ATOM      9  O1A UDP d          40.109   1.190  16.024  0.00  0.00    -0.624 OA
ATOM     10  O2A UDP d          39.041  -0.711  17.068  0.00  0.00    -0.624 OA
BRANCH   8  11
ATOM     11  O3A UDP d          41.537  -0.831  16.605  0.00  0.00    -0.173 OA
BRANCH  11  12
ATOM     12  PB  UDP d          42.098  -2.271  16.150  0.00  0.00     0.431 P 
ATOM     13  O1B UDP d          40.980  -3.231  15.987  0.00  0.00    -0.616 OA
ATOM     14  O2B UDP d          42.786  -2.122  14.843  0.00  0.00    -0.616 OA
ATOM     15  O3B UDP d          43.037  -2.777  17.183  0.00  0.00    -0.616 OA
ENDBRANCH  11  12
ENDBRANCH   8  11
ENDBRANCH   7   8
ENDBRANCH   6   7
ENDBRANCH   4   6
BRANCH   3  16
ATOM     16  O3' UDP d          37.933   1.741  14.266  0.00  0.00    -0.390 OA
ATOM     17  H9  UDP d          38.703   1.763  14.823  0.00  0.00     0.210 HD
ENDBRANCH   3  16
BRANCH   2  18
ATOM     18  O2' UDP d          36.616   1.617  11.921  0.00  0.00    -0.388 OA
ATOM     19  H6  UDP d          36.333   2.323  12.490  0.00  0.00     0.210 HD
ENDBRANCH   2  18
BRANCH   1  20
ATOM     20  N1  UDP d          36.435  -2.005  11.987  0.00  0.00    -0.280 N 
ATOM     21  C2  UDP d          35.242  -2.171  11.344  0.00  0.00     0.331 A 
ATOM     22  N3  UDP d          34.544  -3.347  11.503  0.00  0.00    -0.275 N 
ATOM     23  O2  UDP d          34.796  -1.263  10.642  0.00  0.00    -0.246 OA
ATOM     24  C4  UDP d          35.023  -4.370  12.299  0.00  0.00     0.250 A 
ATOM     25  H1  UDP d          33.670  -3.464  11.031  0.00  0.00     0.173 HD
ATOM     26  C5  UDP d          36.246  -4.198  12.961  0.00  0.00     0.092 A 
ATOM     27  O4  UDP d          34.338  -5.401  12.393  0.00  0.00    -0.268 OA
ATOM     28  C6  UDP d          36.914  -2.978  12.832  0.00  0.00     0.104 A 
ENDBRANCH   1  20
TORSDOF 8
