3dxh_ligand

Created by X-TOOL on Fri Sep 26 17:34:44 2014
 36 37  0  0  0  0  0  0  0  0999 V2000
   36.4350   -2.0050   11.9870  N 0  0  0  1  0  3
   35.2420   -2.1710   11.3440  C 0  0  0  1  0  3
   34.5440   -3.3470   11.5030  N 0  0  0  2  0  3
   35.0230   -4.3700   12.2990  C 0  0  0  1  0  3
   36.2460   -4.1980   12.9610  C 0  0  0  2  0  3
   36.9140   -2.9780   12.8320  C 0  0  0  2  0  3
   34.7960   -1.2630   10.6420  O 0  0  0  1  0  1
   34.3380   -5.4010   12.3930  O 0  0  0  1  0  1
   37.1470   -0.7240   11.7560  C 0  0  0  2  0  4
   36.6930    0.4060   12.6710  C 0  0  0  2  0  4
   36.6160    1.6170   11.9210  O 0  0  0  2  0  2
   37.8520    0.4810   13.6240  C 0  0  0  2  0  4
   39.0500    0.1330   12.7350  C 0  0  0  2  0  4
   38.5510   -0.9050   11.9070  O 0  0  0  1  0  2
   37.9330    1.7410   14.2660  O 0  0  0  2  0  2
   40.2940   -0.3260   13.4860  C 0  0  0  3  0  4
   39.8840   -0.9690   14.6690  O 0  0  0  1  0  2
   40.1000   -0.2940   16.1200  P 0  0  0  1  0  4
   40.1090    1.1900   16.0240  O 0  0  0  1  0  1
   39.0410   -0.7110   17.0680  O 0  0  0  1  0  1
   41.5370   -0.8310   16.6050  O 0  0  0  1  0  2
   42.0980   -2.2710   16.1500  P 0  0  0  1  0  4
   40.9800   -3.2310   15.9870  O 0  0  0  1  0  1
   42.7860   -2.1220   14.8430  O 0  0  0  1  0  1
   43.0370   -2.7770   17.1830  O 0  0  0  1  0  1
   33.6699   -3.4636   11.0314  H 0  0  0  1  0  1
   36.6677   -5.0003   13.5647  H 0  0  0  1  0  1
   37.8217   -2.7961   13.4055  H 0  0  0  1  0  1
   36.9456   -0.4168   10.7192  H 0  0  0  1  0  1
   35.7395    0.1905   13.1753  H 0  0  0  1  0  1
   36.3330    2.3231   12.4900  H 0  0  0  1  0  1
   37.7442   -0.2845   14.4066  H 0  0  0  1  0  1
   39.3226    1.0087   12.1277  H 0  0  0  1  0  1
   38.7025    1.7626   14.8226  H 0  0  0  1  0  1
   40.9211    0.5432   13.7333  H 0  0  0  1  0  1
   40.8680   -1.0265   12.8617  H 0  0  0  1  0  1
  1  2  1  0  0  1
  1  6  1  0  0  1
  1  9  1  0  0  2
  2  3  1  0  0  1
  2  7  2  0  0  2
  3  4  1  0  0  1
  4  5  1  0  0  1
  4  8  2  0  0  2
  5  6  2  0  0  1
  9 10  1  0  0  1
  9 14  1  0  0  1
 10 11  1  0  0  2
 10 12  1  0  0  1
 12 13  1  0  0  1
 12 15  1  0  0  2
 13 14  1  0  0  1
 13 16  1  0  0  2
 16 17  1  0  0  2
 17 18  1  0  0  2
 18 19  2  0  0  2
 18 20  2  0  0  2
 18 21  1  0  0  2
 21 22  1  0  0  2
 22 23  2  0  0  2
 22 24  2  0  0  2
 22 25  2  0  0  2
  3 26  1  0  0  2
  5 27  1  0  0  2
  6 28  1  0  0  2
  9 29  1  0  0  2
 10 30  1  0  0  2
 11 31  1  0  0  2
 12 32  1  0  0  2
 13 33  1  0  0  2
 15 34  1  0  0  2
 16 35  1  0  0  2
 16 36  1  0  0  2
M  END
> <MOLECULAR_FORMULA>
C9H11N2O12P2

> <MOLECULAR_WEIGHT>
401.0

> <NUM_HB_ATOMS>
13 

> <NUM_ROTOR>
5  

> <XLOGP2>
-3.77

$$$$
