REMARK  2 active torsions:
REMARK  status: ('A' for Active; 'I' for Inactive)
REMARK    1  A    between atoms: CAH_6  and  NAB_7 
REMARK    2  A    between atoms: CAI_8  and  NAC_9 
ROOT
ATOM      1  CAA MOL d          12.407  -5.050   0.687  0.00  0.00     0.050 C 
ATOM      2  CAG MOL d          11.701  -4.487  -0.391  0.00  0.00    -0.034 A 
ATOM      3  CAE MOL d          12.308  -3.577  -1.270  0.00  0.00     0.009 A 
ATOM      4  CAD MOL d          11.598  -3.010  -2.335  0.00  0.00     0.003 A 
ATOM      5  CAF MOL d          10.243  -3.343  -2.560  0.00  0.00     0.031 A 
ATOM      6  CAH MOL d           9.645  -4.251  -1.669  0.00  0.00     0.052 A 
ATOM      7  CAI MOL d          10.361  -4.813  -0.615  0.00  0.00     0.058 A 
ENDROOT
BRANCH   6   8
ATOM      8  NAB MOL d           8.351  -4.614  -1.799  0.00  0.00    -0.397 N 
ATOM      9  H   MOL d           7.781  -4.224  -2.563  0.00  0.00     0.156 HD
ATOM     10  H   MOL d           7.934  -5.280  -1.134  0.00  0.00     0.156 HD
ENDBRANCH   6   8
BRANCH   7  11
ATOM     11  NAC MOL d           9.741  -5.679   0.235  0.00  0.00    -0.397 N 
ATOM     12  H   MOL d          10.265  -6.098   1.016  0.00  0.00     0.156 HD
ATOM     13  H   MOL d           8.748  -5.915   0.096  0.00  0.00     0.156 HD
ENDBRANCH   7  11
TORSDOF 2
