REMARK  7 active torsions:
REMARK  status: ('A' for Active; 'I' for Inactive)
REMARK    1  A    between atoms: N17_3  and  C20_4 
REMARK    2  A    between atoms: C14_9  and  N13_10 
REMARK    3  A    between atoms: N13_10  and  S12_11 
REMARK    4  A    between atoms: S12_11  and  C10_14 
REMARK    5  A    between atoms: C10_14  and  C9_15 
REMARK    6  A    between atoms: C9_15  and  N8_16 
REMARK       I    between atoms: N8_16  and  C7_17 
REMARK    7  A    between atoms: C7_17  and  C3_19 
ROOT
ATOM      1  S12 A7I d          49.553   6.801  55.347  0.00  0.00     0.228 S 
ATOM      2  O23 A7I d          48.142   6.514  54.929  0.00  0.00    -0.206 OA
ATOM      3  O24 A7I d          49.666   8.069  56.140  0.00  0.00    -0.206 OA
ENDROOT
BRANCH   1   4
ATOM      4  N13 A7I d          50.277   5.533  56.074  0.00  0.00    -0.315 N 
ATOM      5  H18 A7I d          51.269   5.421  56.133  0.00  0.00     0.172 HD
BRANCH   4   6
ATOM      6  C14 A7I d          49.315   4.572  56.634  0.00  0.00     0.096 C 
ATOM      7  C15 A7I d          48.800   5.058  57.992  0.00  0.00     0.053 C 
ATOM      8  C16 A7I d          47.921   3.993  58.653  0.00  0.00     0.237 C 
ATOM      9  N17 A7I d          48.684   2.740  58.788  0.00  0.00    -0.067 N 
ATOM     10  C18 A7I d          49.077   2.210  57.472  0.00  0.00     0.237 C 
ATOM     11  H5  A7I d          49.528   2.962  59.293  0.00  0.00     0.280 HD
ATOM     12  C19 A7I d          50.005   3.214  56.784  0.00  0.00     0.053 C 
BRANCH   9  13
ATOM     13  C20 A7I d          47.974   1.703  59.557  0.00  0.00     0.180 C 
ATOM     14  C22 A7I d          46.594   1.373  58.979  0.00  0.00     0.039 C 
ATOM     15  C21 A7I d          47.865   2.105  61.030  0.00  0.00     0.039 C 
ENDBRANCH   9  13
ENDBRANCH   4   6
ENDBRANCH   1   4
BRANCH   1  16
ATOM     16  C10 A7I d          50.508   7.070  53.809  0.00  0.00     0.182 C 
BRANCH  16  17
ATOM     17  C9  A7I d          50.017   8.234  52.945  0.00  0.00     0.139 C 
BRANCH  17  18
ATOM     18  N8  A7I d          48.714   7.916  52.341  0.00  0.00    -0.355 N 
ATOM     19  C7  A7I d          47.588   8.503  52.734  0.00  0.00     0.258 C 
ATOM     20  O25 A7I d          47.522   9.343  53.630  0.00  0.00    -0.267 OA
ATOM     21  H23 A7I d          48.674   7.235  51.610  0.00  0.00     0.162 HD
BRANCH  19  22
ATOM     22  C3  A7I d          46.323   8.060  51.995  0.00  0.00     0.074 A 
ATOM     23  C2  A7I d          46.268   7.403  50.837  0.00  0.00     0.027 A 
ATOM     24  C1  A7I d          45.033   7.127  50.404  0.00  0.00     0.033 A 
ATOM     25  C5  A7I d          44.049   7.554  51.196  0.00  0.00     0.075 A 
ATOM     26 CL6  A7I d          42.355   7.298  50.952  0.00  0.00    -0.076 Cl
ATOM     27  S4  A7I d          44.730   8.347  52.550  0.00  0.00    -0.072 SA
ENDBRANCH  19  22
ENDBRANCH  17  18
ENDBRANCH  16  17
ENDBRANCH   1  16
TORSDOF 7
