REMARK  4 active torsions:
REMARK  status: ('A' for Active; 'I' for Inactive)
REMARK    1  A    between atoms: C15_2  and  C9_5 
REMARK    2  A    between atoms: C11_7  and  N2_11 
REMARK    3  A    between atoms: N2_11  and  C1_12 
REMARK    4  A    between atoms: C2_14  and  C6_15 
ROOT
ATOM      1  N2  NFL d          10.908  13.896   2.633  0.00  0.00    -0.340 N 
ATOM      2  H5  NFL d          11.594  14.422   2.074  0.00  0.00     0.167 HD
ENDROOT
BRANCH   1   3
ATOM      3  C11 NFL d          11.449  13.295   3.763  0.00  0.00     0.034 A 
ATOM      4  C10 NFL d          10.796  12.507   4.743  0.00  0.00     0.045 A 
ATOM      5  C9  NFL d          11.515  11.989   5.852  0.00  0.00     0.050 A 
ATOM      6  C14 NFL d          12.876  12.224   5.967  0.00  0.00     0.016 A 
ATOM      7  C13 NFL d          13.520  12.986   5.011  0.00  0.00     0.003 A 
ATOM      8  C12 NFL d          12.815  13.512   3.932  0.00  0.00     0.029 A 
BRANCH   5   9
ATOM      9  C15 NFL d          10.936  11.092   6.926  0.00  0.00     0.417 C 
ATOM     10  F3  NFL d           9.637  10.869   6.725  0.00  0.00    -0.166 F 
ATOM     11  F1  NFL d          11.569   9.937   6.729  0.00  0.00    -0.166 F 
ATOM     12  F2  NFL d          11.237  11.425   8.180  0.00  0.00    -0.166 F 
ENDBRANCH   5   9
ENDBRANCH   1   3
BRANCH   1  13
ATOM     13  C1  NFL d           9.624  13.924   2.113  0.00  0.00     0.144 A 
ATOM     14  N1  NFL d           8.618  13.288   2.756  0.00  0.00    -0.242 NA
ATOM     15  C5  NFL d           7.353  13.268   2.312  0.00  0.00     0.119 A 
ATOM     16  C4  NFL d           6.980  13.911   1.145  0.00  0.00     0.020 A 
ATOM     17  C3  NFL d           7.928  14.603   0.402  0.00  0.00     0.024 A 
ATOM     18  C2  NFL d           9.260  14.654   0.830  0.00  0.00     0.086 A 
BRANCH  18  19
ATOM     19  C6  NFL d          10.227  15.437  -0.059  0.00  0.00     0.213 C 
ATOM     20  O8  NFL d          11.418  15.537   0.214  0.00  0.00    -0.644 OA
ATOM     21  O7  NFL d           9.834  15.990  -1.089  0.00  0.00    -0.644 OA
ENDBRANCH  18  19
ENDBRANCH   1  13
TORSDOF 4
