REMARK  7 active torsions:
REMARK  status: ('A' for Active; 'I' for Inactive)
REMARK    1  A    between atoms: C1_14  and  N1_15 
REMARK    2  A    between atoms: N1_15  and  C2_16 
REMARK    3  A    between atoms: C5_21  and  S_22 
REMARK    4  A    between atoms: S_22  and  N2_25 
REMARK    5  A    between atoms: N2_25  and  C6_26 
REMARK    6  A    between atoms: C6_26  and  C7_27 
REMARK    7  A    between atoms: C7_27  and  O_28 
ROOT
ATOM      1  N1  CDK d          23.713  29.977  29.109  0.00  0.00    -0.188 N 
ATOM      2  H9  CDK d          23.372  30.493  29.933  0.00  0.00     0.184 HD
ENDROOT
BRANCH   1   3
ATOM      3  C1  CDK d          24.712  30.528  28.438  0.00  0.00     0.727 A 
ATOM      4  N   CDK d          25.509  29.841  27.594  0.00  0.00    -0.061 NA
ATOM      5  C   CDK d          26.515  30.495  26.985  0.00  0.00     0.096 A 
ATOM      6  C15 CDK d          27.315  29.852  26.045  0.00  0.00     0.062 A 
ATOM      7  C12 CDK d          26.731  31.844  27.243  0.00  0.00     0.053 A 
ATOM      8  C16 CDK d          28.654  30.122  25.741  0.00  0.00     0.030 A 
ATOM      9  S1  CDK d          26.757  28.660  24.974  0.00  0.00    -0.025 SA
ATOM     10  C17 CDK d          29.498  31.152  26.493  0.00  0.00     0.070 C 
ATOM     11  N4  CDK d          29.141  29.367  24.743  0.00  0.00    -0.316 N 
ATOM     12  C13 CDK d          30.545  29.456  24.286  0.00  0.00     0.160 C 
ATOM     13  C14 CDK d          28.263  28.515  24.193  0.00  0.00     0.291 A 
ATOM     14  O3  CDK d          28.509  27.722  23.286  0.00  0.00    -0.259 OA
ATOM     15  C11 CDK d          25.906  32.494  28.146  0.00  0.00     0.139 A 
ATOM     16  N3  CDK d          24.924  31.821  28.718  0.00  0.00    -0.075 NA
ENDBRANCH   1   3
BRANCH   1  17
ATOM     17  C2  CDK d          23.106  28.833  28.834  0.00  0.00     0.049 A 
ATOM     18  C9  CDK d          22.178  28.425  29.784  0.00  0.00     0.031 A 
ATOM     19  C10 CDK d          21.438  27.268  29.619  0.00  0.00     0.027 A 
ATOM     20  C5  CDK d          21.629  26.523  28.464  0.00  0.00     0.079 A 
ATOM     21  C4  CDK d          22.545  26.933  27.492  0.00  0.00     0.027 A 
ATOM     22  C3  CDK d          23.298  28.095  27.674  0.00  0.00     0.031 A 
BRANCH  20  23
ATOM     23  S   CDK d          20.635  25.097  28.284  0.00  0.00     0.258 S 
ATOM     24  O1  CDK d          19.484  25.445  27.385  0.00  0.00    -0.201 OA
ATOM     25  O2  CDK d          20.062  24.747  29.637  0.00  0.00    -0.201 OA
BRANCH  23  26
ATOM     26  N2  CDK d          21.476  23.829  27.668  0.00  0.00    -0.313 N 
ATOM     27  H14 CDK d          22.429  23.865  27.368  0.00  0.00     0.172 HD
BRANCH  26  28
ATOM     28  C6  CDK d          20.620  22.629  27.621  0.00  0.00     0.158 C 
BRANCH  28  29
ATOM     29  C7  CDK d          20.743  21.803  28.910  0.00  0.00     0.187 C 
BRANCH  29  30
ATOM     30  O   CDK d          19.601  21.943  29.794  0.00  0.00    -0.394 OA
ATOM     31  C8  CDK d          19.251  20.670  30.331  0.00  0.00     0.201 C 
ENDBRANCH  29  30
ENDBRANCH  28  29
ENDBRANCH  26  28
ENDBRANCH  23  26
ENDBRANCH  20  23
ENDBRANCH   1  17
TORSDOF 7
