REMARK  3 active torsions:
REMARK  status: ('A' for Active; 'I' for Inactive)
REMARK    1  A    between atoms: C08_15  and  C10_1 
REMARK       I    between atoms: C10_1  and  N11_17 
REMARK    2  A    between atoms: N11_17  and  C13_2 
REMARK    3  A    between atoms: N07_14  and  C05_12 
REMARK       I    between atoms: N07_14  and  C08_15 
ROOT
ATOM      1  C10 MOL d          28.102 -15.454  37.470  0.00  0.00     0.310 C 
ATOM      2  N11 MOL d          27.754 -14.935  36.183  0.00  0.00    -0.348 N 
ATOM      3  O12 MOL d          29.014 -16.257  37.606  0.00  0.00    -0.262 OA
ATOM      4  H15 MOL d          27.005 -14.275  36.124  0.00  0.00     0.163 HD
ENDROOT
BRANCH   1   5
ATOM      5  C08 MOL d          27.340 -15.009  38.674  0.00  0.00     0.313 C 
ATOM      6  N07 MOL d          27.705 -15.529  39.959  0.00  0.00    -0.319 N 
ATOM      7  H14 MOL d          28.467 -16.175  39.998  0.00  0.00     0.169 HD
ATOM      8  O09 MOL d          26.428 -14.207  38.542  0.00  0.00    -0.262 OA
BRANCH   6   9
ATOM      9  C05 MOL d          27.054 -15.189  41.196  0.00  0.00     0.038 A 
ATOM     10  C04 MOL d          25.673 -15.043  41.275  0.00  0.00     0.073 A 
ATOM     11  C03 MOL d          25.072 -14.723  42.484  0.00  0.00     0.140 A 
ATOM     12  C02 MOL d          25.846 -14.556  43.623  0.00  0.00     0.072 A 
ATOM     13  F25 MOL d          23.752 -14.577  42.556  0.00  0.00    -0.204 F 
ATOM     14  C01 MOL d          27.223 -14.708  43.551  0.00  0.00     0.029 A 
ATOM     15 CL   MOL d          25.091 -14.158  45.126  0.00  0.00    -0.081 Cl
ATOM     16  C06 MOL d          27.823 -15.028  42.340  0.00  0.00     0.031 A 
ENDBRANCH   6   9
ENDBRANCH   1   5
BRANCH   2  17
ATOM     17  C13 MOL d          28.459 -15.332  34.913  0.00  0.00     0.089 C 
ATOM     18  C14 MOL d          27.811 -14.722  33.786  0.00  0.00     0.063 C 
ATOM     19  C15 MOL d          28.224 -13.316  33.459  0.00  0.00     0.123 C 
ATOM     20  C21 MOL d          27.324 -12.348  34.147  0.00  0.00     0.046 C 
ATOM     21  C22 MOL d          27.976 -13.116  31.998  0.00  0.00     0.046 C 
ATOM     22  N16 MOL d          29.620 -12.959  33.709  0.00  0.00    -0.059 N 
ATOM     23  C17 MOL d          30.338 -13.671  34.748  0.00  0.00     0.123 C 
ATOM     24  C23 MOL d          30.105 -11.655  33.359  0.00  0.00     0.271 C 
ATOM     25  H18 MOL d          30.011 -13.451  32.921  0.00  0.00     0.281 HD
ATOM     26  C20 MOL d          31.785 -13.689  34.380  0.00  0.00     0.046 C 
ATOM     27  C18 MOL d          29.916 -15.081  34.943  0.00  0.00     0.063 C 
ATOM     28  C19 MOL d          30.224 -12.940  36.045  0.00  0.00     0.046 C 
ENDBRANCH   2  17
TORSDOF 3
