REMARK  2 active torsions:
REMARK  status: ('A' for Active; 'I' for Inactive)
REMARK    1  A    between atoms: C1_12  and  S1_13 
REMARK    2  A    between atoms: S1_13  and  N1_16 
ROOT
ATOM      1  C2  IL5 d          -5.723   3.301  15.407  0.00  0.00     0.051 A 
ATOM      2  C3  IL5 d          -5.065   4.335  14.735  0.00  0.00     0.097 A 
ATOM      3  S2  IL5 d          -5.583   5.926  14.193  0.00  0.00     0.266 S 
ATOM      4  O3  IL5 d          -5.950   6.713  15.343  0.00  0.00    -0.200 OA
ATOM      5  O4  IL5 d          -6.602   5.844  13.177  0.00  0.00    -0.200 OA
ATOM      6  N2  IL5 d          -4.172   6.395  13.561  0.00  0.00    -0.246 N 
ATOM      7  C7  IL5 d          -3.223   5.440  13.690  0.00  0.00     0.266 A 
ATOM      8  O5  IL5 d          -2.058   5.571  13.289  0.00  0.00    -0.267 OA
ATOM      9  C4  IL5 d          -3.719   4.203  14.377  0.00  0.00     0.056 A 
ATOM     10  C5  IL5 d          -3.023   3.027  14.673  0.00  0.00     0.020 A 
ATOM     11  C6  IL5 d          -3.673   1.993  15.354  0.00  0.00     0.026 A 
ATOM     12  C1  IL5 d          -5.017   2.136  15.719  0.00  0.00     0.080 A 
ATOM     13  H2  IL5 d          -4.019   7.283  13.127  0.00  0.00     0.182 HD
ENDROOT
BRANCH  12  14
ATOM     14  S1  IL5 d          -5.825   0.833  16.575  0.00  0.00     0.256 S 
ATOM     15  O1  IL5 d          -5.309   0.908  17.907  0.00  0.00    -0.201 OA
ATOM     16  O2  IL5 d          -7.232   0.989  16.369  0.00  0.00    -0.201 OA
BRANCH  14  17
ATOM     17  N1  IL5 d          -5.341  -0.526  15.935  0.00  0.00    -0.324 N 
ATOM     18  H5  IL5 d          -5.689  -1.396  16.285  0.00  0.00     0.169 HD
ATOM     19  H6  IL5 d          -4.686  -0.517  15.179  0.00  0.00     0.169 HD
ENDBRANCH  14  17
ENDBRANCH  12  14
TORSDOF 2
