REMARK  9 active torsions:
REMARK  status: ('A' for Active; 'I' for Inactive)
REMARK    1  A    between atoms: PB_1  and  O3A_5 
REMARK    2  A    between atoms: O3A_5  and  PA_6 
REMARK    3  A    between atoms: PA_6  and  O5_9 
REMARK    4  A    between atoms: O5_9  and  C5_10 
REMARK    5  A    between atoms: C5_10  and  C4_11 
REMARK    6  A    between atoms: C3_13  and  O3_14 
REMARK    7  A    between atoms: C2_15  and  O2_16 
REMARK    8  A    between atoms: C1_17  and  N9_18 
REMARK    9  A    between atoms: C2_25  and  N2_26 
ROOT
ATOM      1  C4  GDP d          13.660 -14.293  48.589  0.00  0.00     0.180 C 
ATOM      2  O4  GDP d          12.779 -13.798  47.537  0.00  0.00    -0.353 OA
ATOM      3  C3  GDP d          14.841 -14.945  47.880  0.00  0.00     0.182 C 
ATOM      4  C2  GDP d          14.796 -14.246  46.501  0.00  0.00     0.198 C 
ATOM      5  C1  GDP d          13.311 -14.089  46.250  0.00  0.00     0.262 C 
ENDROOT
BRANCH   5   6
ATOM      6  N9  GDP d          13.031 -12.964  45.310  0.00  0.00    -0.293 N 
ATOM      7  C8  GDP d          13.523 -11.660  45.296  0.00  0.00     0.214 A 
ATOM      8  N7  GDP d          13.081 -10.913  44.305  0.00  0.00    -0.234 NA
ATOM      9  C5  GDP d          12.237 -11.783  43.618  0.00  0.00     0.173 A 
ATOM     10  C6  GDP d          11.450 -11.602  42.449  0.00  0.00     0.292 A 
ATOM     11  C4  GDP d          12.201 -13.046  44.238  0.00  0.00     0.186 A 
ATOM     12  O6  GDP d          11.341 -10.570  41.741  0.00  0.00    -0.265 OA
ATOM     13  N1  GDP d          10.729 -12.743  42.081  0.00  0.00    -0.152 N 
ATOM     14  C2  GDP d          10.753 -13.957  42.763  0.00  0.00     0.703 A 
ATOM     15  H10 GDP d          10.152 -12.682  41.266  0.00  0.00     0.187 HD
ATOM     16  N3  GDP d          11.494 -14.154  43.866  0.00  0.00    -0.044 NA
BRANCH  14  17
ATOM     17  N2  GDP d          10.013 -14.950  42.296  0.00  0.00    -0.233 N 
ATOM     18  H11 GDP d          10.009 -15.860  42.778  0.00  0.00     0.174 HD
ATOM     19  H12 GDP d           9.441 -14.812  41.451  0.00  0.00     0.174 HD
ENDBRANCH  14  17
ENDBRANCH   5   6
BRANCH   4  20
ATOM     20  O2  GDP d          15.436 -15.005  45.461  0.00  0.00    -0.388 OA
ATOM     21  H7  GDP d          15.003 -15.846  45.372  0.00  0.00     0.210 HD
ENDBRANCH   4  20
BRANCH   1  22
ATOM     22  C5  GDP d          14.032 -13.103  49.463  0.00  0.00     0.216 C 
BRANCH  22  23
ATOM     23  O5  GDP d          14.657 -12.058  48.694  0.00  0.00    -0.287 OA
BRANCH  23  24
ATOM     24  PA  GDP d          15.705 -11.087  49.388  0.00  0.00     0.418 P 
ATOM     25  O1A GDP d          16.718 -11.766  50.183  0.00  0.00    -0.624 OA
ATOM     26  O2A GDP d          16.167 -10.130  48.371  0.00  0.00    -0.624 OA
BRANCH  24  27
ATOM     27  O3A GDP d          14.719 -10.352  50.430  0.00  0.00    -0.173 OA
BRANCH  27  28
ATOM     28  PB  GDP d          15.011  -9.255  51.585  0.00  0.00     0.431 P 
ATOM     29  O1B GDP d          13.950  -8.227  51.431  0.00  0.00    -0.616 OA
ATOM     30  O2B GDP d          16.397  -8.809  51.394  0.00  0.00    -0.616 OA
ATOM     31  O3B GDP d          14.926  -9.960  52.864  0.00  0.00    -0.616 OA
ENDBRANCH  27  28
ENDBRANCH  24  27
ENDBRANCH  23  24
ENDBRANCH  22  23
ENDBRANCH   1  22
BRANCH   3  32
ATOM     32  O3  GDP d          14.513 -16.339  47.837  0.00  0.00    -0.390 OA
ATOM     33  H5  GDP d          15.212 -16.814  47.404  0.00  0.00     0.210 HD
ENDBRANCH   3  32
TORSDOF 9
