2xpc_ligand

Created by X-TOOL on Fri Sep 26 17:34:50 2014
 58 61  0  0  0  0  0  0  0  0999 V2000
   21.6620   34.4520   46.6590  N 0  0  0  1  0  1
   20.5700   34.4340   47.0450  C 0  0  0  1  0  2
   19.3770   34.3900   47.5450  C 0  0  0  1  0  3
   18.2940   34.8570   46.8040  C 0  0  0  2  0  3
   17.0190   34.8210   47.3460  C 0  0  0  1  0  3
   15.9530   35.2620   46.6420  F 0  0  0  1  0  1
   19.1840   33.8970   48.8300  C 0  0  0  2  0  3
   17.9060   33.8680   49.3770  C 0  0  0  2  0  3
   16.8380   34.3380   48.6270  C 0  0  0  1  0  3
   15.4910   34.3480   49.2360  C 0  0  0  3  0  4
   15.2960   33.7410   50.5430  O 0  0  0  1  0  2
   14.5590   32.6010   50.2460  C 0  0  0  1  0  3
   13.9960   32.4540   48.9670  C 0  0  0  2  0  3
   13.1540   31.3640   48.6680  C 0  0  0  1  0  3
   12.6000   31.2170   47.3910  C 0  0  0  2  0  3
   11.7450   30.1400   47.1110  C 0  0  0  2  0  3
   14.3120   31.6300   51.2170  C 0  0  0  2  0  3
   13.4820   30.5350   50.9100  C 0  0  0  2  0  3
   12.8920   30.3910   49.6640  C 0  0  0  1  0  3
   12.0870   29.2850   49.3450  C 0  0  0  2  0  3
   11.4910   29.1560   48.0770  C 0  0  0  1  0  3
   10.4330   27.9730   47.6600  S 0  0  0  1  0  4
   10.5270   27.5510   46.2550  O 0  0  0  1  0  1
   10.4780   26.8760   48.6560  O 0  0  0  1  0  1
    9.0530   28.6860   47.7600  N 0  0  0  2  0  3
    8.3880   28.9830   49.0400  C 0  0  0  2  0  4
    8.6760   30.3440   49.6830  C 0  0  0  3  0  4
    7.8240   31.3700   48.9230  C 0  0  0  3  0  4
    6.3610   30.9510   49.1420  C 0  0  0  2  0  4
    5.4350   31.9900   48.5960  C 0  5  0  1  0  3
    5.2820   33.0190   49.3070  O 0  0  0  1  0  1
    4.8720   31.7690   47.4960  O 0  0  0  1  0  1
    6.0340   29.5550   48.5770  C 0  0  0  3  0  4
    6.9940   28.5430   49.2020  C 0  0  0  2  0  4
    6.7950   27.2520   48.8220  C 0  5  0  1  0  3
    7.0870   26.3140   49.6110  O 0  0  0  1  0  1
    6.3510   27.0520   47.6880  O 0  0  0  1  0  1
   18.4482   35.2480   45.8048  H 0  0  0  1  0  1
   20.0288   33.5355   49.4051  H 0  0  0  1  0  1
   17.7462   33.4827   50.3775  H 0  0  0  1  0  1
   14.8191   33.8280   48.5373  H 0  0  0  1  0  1
   15.1859   35.4013   49.3227  H 0  0  0  1  0  1
   14.2122   33.1888   48.1999  H 0  0  0  1  0  1
   12.8323   31.9378   46.6154  H 0  0  0  1  0  1
   11.2755   30.0680   46.1366  H 0  0  0  1  0  1
   14.7564   31.7182   52.2018  H 0  0  0  1  0  1
   13.2992   29.7834   51.6694  H 0  0  0  1  0  1
   11.9217   28.5156   50.0905  H 0  0  0  1  0  1
    8.5952   28.9558   46.9129  H 0  0  0  1  0  1
    8.9192   28.2975   49.7167  H 0  0  0  1  0  1
    9.7437   30.5913   49.5886  H 0  0  0  1  0  1
    8.3956   30.3295   50.7465  H 0  0  0  1  0  1
    8.0702   31.3524   47.8511  H 0  0  0  1  0  1
    7.9960   32.3805   49.3222  H 0  0  0  1  0  1
    6.1983   30.9018   50.2288  H 0  0  0  1  0  1
    6.1581   29.5584   47.4840  H 0  0  0  1  0  1
    4.9971   29.2867   48.8275  H 0  0  0  1  0  1
    6.7894   28.5633   50.2826  H 0  0  0  1  0  1
  1  2  3  0  0  2
  2  3  1  0  0  2
  3  4  4  0  0  1
  3  7  4  0  0  1
  4  5  4  0  0  1
  5  6  1  0  0  2
  5  9  4  0  0  1
  7  8  4  0  0  1
  8  9  4  0  0  1
  9 10  1  0  0  2
 10 11  1  0  0  2
 11 12  1  0  0  2
 12 13  4  0  0  1
 12 17  4  0  0  1
 13 14  4  0  0  1
 14 15  4  0  0  1
 14 19  4  0  0  1
 15 16  4  0  0  1
 16 21  4  0  0  1
 17 18  4  0  0  1
 18 19  4  0  0  1
 19 20  4  0  0  1
 20 21  4  0  0  1
 21 22  1  0  0  2
 22 23  2  0  0  2
 22 24  2  0  0  2
 22 25  1  0  0  2
 25 26  1  0  0  2
 26 27  1  0  0  1
 26 34  1  0  0  1
 27 28  1  0  0  1
 28 29  1  0  0  1
 29 30  1  0  0  2
 29 33  1  0  0  1
 30 31  2  0  0  2
 30 32  2  0  0  2
 33 34  1  0  0  1
 34 35  1  0  0  2
 35 36  2  0  0  2
 35 37  2  0  0  2
  4 38  1  0  0  2
  7 39  1  0  0  2
  8 40  1  0  0  2
 10 41  1  0  0  2
 10 42  1  0  0  2
 13 43  1  0  0  2
 15 44  1  0  0  2
 16 45  1  0  0  2
 17 46  1  0  0  2
 18 47  1  0  0  2
 20 48  1  0  0  2
 25 49  1  0  0  2
 26 50  1  0  0  2
 27 51  1  0  0  2
 27 52  1  0  0  2
 28 53  1  0  0  2
 28 54  1  0  0  2
 29 55  1  0  0  2
 33 56  1  0  0  2
 33 57  1  0  0  2
 34 58  1  0  0  2
M  END
> <MOLECULAR_FORMULA>
C26H21N2O7SF

> <MOLECULAR_WEIGHT>
524.4

> <NUM_HB_ATOMS>
9  

> <NUM_ROTOR>
5  

> <XLOGP2>
3.36 

$$$$
