REMARK  10 active torsions:
REMARK  status: ('A' for Active; 'I' for Inactive)
REMARK    1  A    between atoms: S_1  and  N2_16 
REMARK    2  A    between atoms: N2_16  and  P_5 
REMARK    3  A    between atoms: P_5  and  N1_8 
REMARK    4  A    between atoms: P_5  and  N_6 
REMARK    5  A    between atoms: N1_8  and  C4_15 
REMARK    6  A    between atoms: C1_12  and  C_9 
REMARK    7  A    between atoms: C2_13  and  C1_12 
REMARK    8  A    between atoms: C1_12  and  N3_17 
REMARK    9  A    between atoms: C3_14  and  C2_13 
REMARK   10  A    between atoms: C4_15  and  C3_14 
ROOT
ATOM      1  N1  PSQ d          27.446  13.206  24.490  0.00  0.00    -0.339 N 
ATOM      2  H3  PSQ d          28.097  13.359  23.746  0.00  0.00     0.164 HD
ENDROOT
BRANCH   1   3
ATOM      3  P   PSQ d          26.319  14.301  24.857  0.00  0.00     0.354 P 
ATOM      4  O3  PSQ d          26.632  14.749  26.273  0.00  0.00    -0.249 OA
BRANCH   3   5
ATOM      5  N2  PSQ d          26.394  15.535  23.707  0.00  0.00    -0.213 N 
ATOM      6  H11 PSQ d          25.600  15.675  23.116  0.00  0.00     0.186 HD
BRANCH   5   7
ATOM      7  S   PSQ d          27.657  16.491  23.507  0.00  0.00     0.212 S 
ATOM      8  O2  PSQ d          27.722  17.466  24.742  0.00  0.00    -0.578 OA
ATOM      9  O1  PSQ d          28.792  15.787  23.418  0.00  0.00    -0.578 OA
ATOM     10  O   PSQ d          27.300  17.298  22.281  0.00  0.00    -0.578 OA
ENDBRANCH   5   7
ENDBRANCH   3   5
BRANCH   3  11
ATOM     11  N   PSQ d          24.669  13.823  24.863  0.00  0.00    -0.348 N 
ATOM     12  H1  PSQ d          23.957  14.488  25.088  0.00  0.00     0.160 HD
ATOM     13  H2  PSQ d          24.421  12.880  24.642  0.00  0.00     0.160 HD
ENDBRANCH   3  11
ENDBRANCH   1   3
BRANCH   1  14
ATOM     14  C4  PSQ d          27.479  11.964  25.298  0.00  0.00     0.124 C 
BRANCH  14  15
ATOM     15  C3  PSQ d          28.530  11.103  24.604  0.00  0.00     0.022 C 
BRANCH  15  16
ATOM     16  C2  PSQ d          28.676   9.706  25.253  0.00  0.00     0.045 C 
BRANCH  16  17
ATOM     17  C1  PSQ d          29.754   8.802  24.593  0.00  0.00     0.283 C 
BRANCH  17  18
ATOM     18  N3  PSQ d          29.772   7.471  25.247  0.00  0.00    -0.065 N 
ATOM     19  H12 PSQ d          30.474   6.893  24.812  0.00  0.00     0.275 HD
ATOM     20  H13 PSQ d          28.869   7.035  25.147  0.00  0.00     0.275 HD
ATOM     21  H14 PSQ d          29.986   7.580  26.226  0.00  0.00     0.275 HD
ENDBRANCH  17  18
BRANCH  17  22
ATOM     22  C   PSQ d          31.192   9.380  24.643  0.00  0.00     0.204 C 
ATOM     23  O5  PSQ d          31.802   9.397  25.744  0.00  0.00    -0.646 OA
ATOM     24  O4  PSQ d          31.735   9.776  23.575  0.00  0.00    -0.646 OA
ENDBRANCH  17  22
ENDBRANCH  16  17
ENDBRANCH  15  16
ENDBRANCH  14  15
ENDBRANCH   1  14
TORSDOF 10
