REMARK  13 active torsions:
REMARK  status: ('A' for Active; 'I' for Inactive)
REMARK    1  A    between atoms: S8_10  and  C5_7 
REMARK    2  A    between atoms: N11_13  and  S8_10 
REMARK    3  A    between atoms: N11_13  and  C12_14 
REMARK    4  A    between atoms: C16_18  and  N11_13 
REMARK    5  A    between atoms: C12_14  and  C13_15 
REMARK    6  A    between atoms: C17_19  and  C16_18 
REMARK    7  A    between atoms: C17_19  and  O18_20 
REMARK    8  A    between atoms: C19_21  and  C17_19 
REMARK    9  A    between atoms: C19_21  and  N20_22 
REMARK   10  A    between atoms: C32_34  and  C19_21 
REMARK       I    between atoms: N20_22  and  C21_23 
REMARK   11  A    between atoms: C21_23  and  O23_25 
REMARK   12  A    between atoms: O23_25  and  C24_26 
REMARK   13  A    between atoms: C38_40  and  C32_34 
ROOT
ATOM      1  C17 MOL d          20.113  29.517  15.990  0.00  0.00     0.160 C 
ENDROOT
BRANCH   1   2
ATOM      2  C16 MOL d          19.278  30.678  16.548  0.00  0.00     0.169 C 
BRANCH   2   3
ATOM      3  N11 MOL d          19.545  31.921  15.858  0.00  0.00    -0.304 N 
BRANCH   3   4
ATOM      4  S8  MOL d          18.331  32.553  14.941  0.00  0.00     0.261 S 
ATOM      5  O9  MOL d          17.545  31.452  14.434  0.00  0.00    -0.200 OA
ATOM      6  O10 MOL d          18.980  33.460  14.014  0.00  0.00    -0.200 OA
BRANCH   4   7
ATOM      7  C5  MOL d          17.282  33.530  15.964  0.00  0.00     0.082 A 
ATOM      8  C4  MOL d          17.559  34.870  16.109  0.00  0.00     0.065 A 
ATOM      9  C3  MOL d          16.781  35.543  17.040  0.00  0.00     0.106 A 
ATOM     10  C2  MOL d          15.799  34.901  17.793  0.00  0.00     0.105 A 
ATOM     11  O41 MOL d          16.799  36.868  17.367  0.00  0.00    -0.323 OA
ATOM     12  O39 MOL d          15.265  35.815  18.645  0.00  0.00    -0.323 OA
ATOM     13  C7  MOL d          15.496  33.580  17.609  0.00  0.00     0.041 A 
ATOM     14  C40 MOL d          15.894  37.015  18.389  0.00  0.00     0.352 A 
ATOM     15  C6  MOL d          16.326  32.906  16.724  0.00  0.00     0.028 A 
ENDBRANCH   4   7
ENDBRANCH   3   4
BRANCH   3  16
ATOM     16  C12 MOL d          20.405  32.877  16.537  0.00  0.00     0.139 C 
BRANCH  16  17
ATOM     17  C13 MOL d          21.888  32.520  16.577  0.00  0.00    -0.004 C 
ATOM     18  C14 MOL d          22.458  32.466  15.151  0.00  0.00     0.011 C 
ATOM     19  C15 MOL d          22.643  33.545  17.422  0.00  0.00     0.011 C 
ENDBRANCH  16  17
ENDBRANCH   3  16
ENDBRANCH   2   3
ENDBRANCH   1   2
BRANCH   1  20
ATOM     20  O18 MOL d          20.008  28.405  16.907  0.00  0.00    -0.392 OA
ATOM     21  H18 MOL d          20.519  27.675  16.578  0.00  0.00     0.210 HD
ENDBRANCH   1  20
BRANCH   1  22
ATOM     22  C19 MOL d          19.705  29.058  14.609  0.00  0.00     0.121 C 
BRANCH  22  23
ATOM     23  N20 MOL d          20.695  28.164  14.084  0.00  0.00    -0.329 N 
ATOM     24  C21 MOL d          21.568  28.480  13.108  0.00  0.00     0.361 C 
ATOM     25  O22 MOL d          21.649  29.553  12.521  0.00  0.00    -0.238 OA
ATOM     26  H20 MOL d          20.741  27.242  14.469  0.00  0.00     0.165 HD
BRANCH  24  27
ATOM     27  O23 MOL d          22.393  27.438  12.872  0.00  0.00    -0.296 OA
BRANCH  27  28
ATOM     28  C24 MOL d          23.215  27.513  11.686  0.00  0.00     0.166 C 
ATOM     29  C25 MOL d          24.542  26.868  12.023  0.00  0.00     0.204 C 
ATOM     30  O26 MOL d          24.274  25.460  11.968  0.00  0.00    -0.358 OA
ATOM     31  C27 MOL d          23.307  25.235  10.957  0.00  0.00     0.266 C 
ATOM     32  O28 MOL d          22.257  24.447  11.503  0.00  0.00    -0.361 OA
ATOM     33  C31 MOL d          22.695  26.577  10.586  0.00  0.00     0.075 C 
ATOM     34  C29 MOL d          21.031  25.144  11.549  0.00  0.00     0.171 C 
ATOM     35  C30 MOL d          21.200  26.374  10.624  0.00  0.00     0.038 C 
ENDBRANCH  27  28
ENDBRANCH  24  27
ENDBRANCH  22  23
BRANCH  22  36
ATOM     36  C32 MOL d          18.350  28.380  14.514  0.00  0.00     0.066 C 
BRANCH  36  37
ATOM     37  C38 MOL d          18.013  27.939  13.106  0.00  0.00    -0.056 A 
ATOM     38  C33 MOL d          17.893  26.589  12.795  0.00  0.00     0.007 A 
ATOM     39  C34 MOL d          17.651  26.222  11.479  0.00  0.00     0.001 A 
ATOM     40  C35 MOL d          17.462  27.150  10.495  0.00  0.00     0.000 A 
ATOM     41  C36 MOL d          17.606  28.509  10.786  0.00  0.00     0.001 A 
ATOM     42  C37 MOL d          17.872  28.893  12.112  0.00  0.00     0.007 A 
ENDBRANCH  36  37
ENDBRANCH  22  36
ENDBRANCH   1  22
TORSDOF 13
