REMARK  9 active torsions:
REMARK  status: ('A' for Active; 'I' for Inactive)
REMARK    1  A    between atoms: C6_4  and  N6_32 
REMARK    2  A    between atoms: C13_6  and  C15_17 
REMARK    3  A    between atoms: C4T_12  and  N4T_13 
REMARK    4  A    between atoms: C15_17  and  N1T_16 
REMARK    5  A    between atoms: C3'_21  and  N10_20 
REMARK    6  A    between atoms: C2'_22  and  O2'_23 
REMARK    7  A    between atoms: C4'_24  and  C5'_25 
REMARK    8  A    between atoms: C5'_25  and  O5'_26 
REMARK    9  A    between atoms: C1'_28  and  N9_29 
ROOT
ATOM      1  C3' MOL d          -9.076 -14.022  18.547  0.00  0.00     0.169 C 
ATOM      2  C2' MOL d          -9.891 -13.280  19.607  0.00  0.00     0.194 C 
ATOM      3  C4' MOL d          -8.276 -12.866  17.888  0.00  0.00     0.174 C 
ATOM      4  O4' MOL d          -8.485 -11.674  18.720  0.00  0.00    -0.354 OA
ATOM      5  C1' MOL d          -8.968 -12.120  19.966  0.00  0.00     0.262 C 
ENDROOT
BRANCH   1   6
ATOM      6  N10 MOL d          -8.168 -15.029  19.151  0.00  0.00    -0.273 N 
ATOM      7  C14 MOL d          -8.235 -16.364  19.073  0.00  0.00     0.139 A 
ATOM      8  C13 MOL d          -7.207 -16.831  19.775  0.00  0.00     0.087 A 
ATOM      9  N12 MOL d          -6.514 -15.837  20.306  0.00  0.00    -0.161 NA
ATOM     10  N11 MOL d          -7.106 -14.710  19.909  0.00  0.00     0.005 NA
BRANCH   8  11
ATOM     11  C15 MOL d          -6.856 -18.308  19.991  0.00  0.00     0.195 C 
BRANCH  11  12
ATOM     12  N1T MOL d          -5.684 -18.667  19.169  0.00  0.00    -0.304 N 
ATOM     13  C2T MOL d          -5.819 -18.941  17.849  0.00  0.00     0.328 A 
ATOM     14  O2T MOL d          -6.924 -18.890  17.298  0.00  0.00    -0.246 OA
ATOM     15  N3T MOL d          -4.747 -19.297  17.106  0.00  0.00    -0.293 N 
ATOM     16  C4T MOL d          -3.509 -19.385  17.637  0.00  0.00     0.125 A 
ATOM     17  H3  MOL d          -4.875 -19.501  16.135  0.00  0.00     0.172 HD
ATOM     18  C5T MOL d          -3.303 -19.114  18.996  0.00  0.00     0.067 A 
ATOM     19  C6T MOL d          -4.404 -18.754  19.773  0.00  0.00     0.100 A 
BRANCH  16  20
ATOM     20  N4T MOL d          -2.497 -19.736  16.858  0.00  0.00    -0.284 NA
ATOM     21  H4  MOL d          -1.567 -19.806  17.241  0.00  0.00     0.188 HD
ENDBRANCH  16  20
ENDBRANCH  11  12
ENDBRANCH   8  11
ENDBRANCH   1   6
BRANCH   2  22
ATOM     22  O2' MOL d         -10.138 -14.088  20.779  0.00  0.00    -0.389 OA
ATOM     23  H11 MOL d          -9.309 -14.340  21.169  0.00  0.00     0.210 HD
ENDBRANCH   2  22
BRANCH   3  24
ATOM     24  C5' MOL d          -8.751 -12.352  16.548  0.00  0.00     0.198 C 
BRANCH  24  25
ATOM     25  O5' MOL d         -10.142 -12.634  16.320  0.00  0.00    -0.398 OA
ATOM     26  H15 MOL d         -10.663 -12.219  16.997  0.00  0.00     0.209 HD
ENDBRANCH  24  25
ENDBRANCH   3  24
BRANCH   5  27
ATOM     27  N9  MOL d          -9.616 -10.968  20.690  0.00  0.00    -0.294 N 
ATOM     28  C4  MOL d          -8.961  -9.890  21.140  0.00  0.00     0.167 A 
ATOM     29  C5  MOL d          -9.844  -9.068  21.754  0.00  0.00     0.149 A 
ATOM     30  N3  MOL d          -7.657  -9.571  21.038  0.00  0.00    -0.222 NA
ATOM     31  C6  MOL d          -9.395  -7.904  22.300  0.00  0.00     0.155 A 
ATOM     32  N7  MOL d         -11.029  -9.683  21.671  0.00  0.00    -0.236 NA
ATOM     33  N1  MOL d          -8.104  -7.557  22.234  0.00  0.00    -0.222 NA
ATOM     34  C2  MOL d          -7.192  -8.396  21.595  0.00  0.00     0.237 A 
ATOM     35  C8  MOL d         -10.891 -10.833  21.031  0.00  0.00     0.214 A 
BRANCH  31  36
ATOM     36  N6  MOL d         -10.220  -7.046  22.943  0.00  0.00    -0.382 N 
ATOM     37  H18 MOL d          -9.845  -6.174  23.344  0.00  0.00     0.157 HD
ATOM     38  H19 MOL d         -11.223  -7.264  23.032  0.00  0.00     0.157 HD
ENDBRANCH  31  36
ENDBRANCH   5  27
TORSDOF 9
