REMARK  9 active torsions:
REMARK  status: ('A' for Active; 'I' for Inactive)
REMARK    1  A    between atoms: C3'_6  and  O3'_5 
REMARK    2  A    between atoms: C4'_7  and  C5'_8 
REMARK    3  A    between atoms: C5'_8  and  S5'_9 
REMARK    4  A    between atoms: S5'_9  and  C20_10 
REMARK    5  A    between atoms: C20_10  and  C21_11 
REMARK    6  A    between atoms: C21_11  and  C22_12 
REMARK    7  A    between atoms: C10_17  and  N1'_15 
REMARK    8  A    between atoms: C10_17  and  C9_22 
REMARK    9  A    between atoms: C6_19  and  N6_20 
ROOT
ATOM      1  C3' BIG d         -35.110 -44.476  10.848  0.00  0.00     0.150 C 
ATOM      2  C4' BIG d         -35.279 -45.239  12.155  0.00  0.00     0.051 C 
ATOM      3  C1' BIG d         -34.144 -46.247  12.129  0.00  0.00     0.243 C 
ATOM      4  N1' BIG d         -33.647 -46.248  10.726  0.00  0.00    -0.064 N 
ATOM      5  C2' BIG d         -34.618 -45.537   9.881  0.00  0.00     0.267 C 
ATOM      6  H19 BIG d         -32.802 -45.698  10.720  0.00  0.00     0.280 HD
ENDROOT
BRANCH   4   7
ATOM      7  C10 BIG d         -33.264 -47.550  10.228  0.00  0.00     0.277 C 
BRANCH   7   8
ATOM      8  C9  BIG d         -34.195 -48.737  10.374  0.00  0.00     0.014 A 
ATOM      9  C4  BIG d         -35.380 -49.040   9.555  0.00  0.00     0.098 A 
ATOM     10  C5  BIG d         -35.896 -50.309  10.038  0.00  0.00     0.107 A 
ATOM     11  N3  BIG d         -35.974 -48.351   8.557  0.00  0.00    -0.239 NA
ATOM     12  N7  BIG d         -35.093 -50.739  11.034  0.00  0.00    -0.360 N 
ATOM     13  C6  BIG d         -37.098 -50.807   9.366  0.00  0.00     0.151 A 
ATOM     14  C8  BIG d         -34.079 -49.834  11.259  0.00  0.00     0.099 A 
ATOM     15  H24 BIG d         -35.220 -51.620  11.553  0.00  0.00     0.165 HD
ATOM     16  N1  BIG d         -37.644 -50.051   8.382  0.00  0.00    -0.223 NA
ATOM     17  C2  BIG d         -37.093 -48.868   7.983  0.00  0.00     0.236 A 
BRANCH  13  18
ATOM     18  N6  BIG d         -37.633 -51.999   9.783  0.00  0.00    -0.382 N 
ATOM     19  H25 BIG d         -38.478 -52.372   9.327  0.00  0.00     0.157 HD
ATOM     20  H26 BIG d         -37.190 -52.522  10.552  0.00  0.00     0.157 HD
ENDBRANCH  13  18
ENDBRANCH   7   8
ENDBRANCH   4   7
BRANCH   2  21
ATOM     21  C5' BIG d         -36.598 -46.003  12.247  0.00  0.00     0.082 C 
BRANCH  21  22
ATOM     22  S5' BIG d         -37.971 -44.941  12.493  0.00  0.00    -0.169 SA
BRANCH  22  23
ATOM     23  C20 BIG d         -37.983 -44.741  14.255  0.00  0.00     0.073 C 
BRANCH  23  24
ATOM     24  C21 BIG d         -39.065 -43.727  14.622  0.00  0.00     0.010 C 
BRANCH  24  25
ATOM     25  C22 BIG d         -39.346 -43.647  16.113  0.00  0.00    -0.004 C 
ATOM     26  C23 BIG d         -38.101 -43.351  16.900  0.00  0.00     0.005 C 
ENDBRANCH  24  25
ENDBRANCH  23  24
ENDBRANCH  22  23
ENDBRANCH  21  22
ENDBRANCH   2  21
BRANCH   1  27
ATOM     27  O3' BIG d         -34.102 -43.468  10.979  0.00  0.00    -0.393 OA
ATOM     28  H3  BIG d         -34.011 -43.004  10.155  0.00  0.00     0.210 HD
ENDBRANCH   1  27
TORSDOF 9
