REMARK  10 active torsions:
REMARK  status: ('A' for Active; 'I' for Inactive)
REMARK    1  A    between atoms: O1_1  and  C6_17 
REMARK    2  A    between atoms: O1_1  and  C11_2 
REMARK    3  A    between atoms: C13_4  and  C17_9 
REMARK    4  A    between atoms: C16_7  and  O11_8 
REMARK    5  A    between atoms: C17_9  and  N11_10 
REMARK    6  A    between atoms: C2_13  and  N31_18 
REMARK    7  A    between atoms: C4_15  and  O2_27 
REMARK    8  A    between atoms: C33_20  and  C37_24 
REMARK    9  A    between atoms: O2_27  and  C21_28 
REMARK   10  A    between atoms: C25_32  and  C27_34 
ROOT
ATOM      1  C1  MOL d          10.922  37.763  13.997  0.00  0.00     0.199 A 
ATOM      2  C2  MOL d          10.868  39.018  14.670  0.00  0.00     0.117 A 
ATOM      3  C3  MOL d          11.526  40.116  14.086  0.00  0.00     0.199 A 
ATOM      4  C4  MOL d          12.203  39.942  12.872  0.00  0.00     0.214 A 
ATOM      5  N5  MOL d          12.239  38.744  12.252  0.00  0.00    -0.194 NA
ATOM      6  C6  MOL d          11.617  37.672  12.797  0.00  0.00     0.214 A 
ATOM      7  F1  MOL d          10.310  36.720  14.501  0.00  0.00    -0.199 F 
ATOM      8  F2  MOL d          11.509  41.276  14.687  0.00  0.00    -0.199 F 
ENDROOT
BRANCH   6   9
ATOM      9  O1  MOL d          11.725  36.615  12.078  0.00  0.00    -0.287 OA
BRANCH   9  10
ATOM     10  C11 MOL d          12.552  36.164  11.099  0.00  0.00     0.112 A 
ATOM     11  C16 MOL d          13.947  35.886  11.309  0.00  0.00     0.099 A 
ATOM     12  C15 MOL d          14.755  35.430  10.239  0.00  0.00     0.040 A 
ATOM     13  C14 MOL d          14.207  35.271   8.965  0.00  0.00     0.018 A 
ATOM     14  C13 MOL d          12.858  35.561   8.730  0.00  0.00     0.010 A 
ATOM     15  C12 MOL d          12.047  35.979   9.792  0.00  0.00     0.055 A 
BRANCH  11  16
ATOM     16  O11 MOL d          14.542  36.035  12.529  0.00  0.00    -0.358 OA
ATOM     17  H4  MOL d          13.900  36.344  13.158  0.00  0.00     0.217 HD
ENDBRANCH  11  16
BRANCH  14  18
ATOM     18  C17 MOL d          12.206  35.388   7.495  0.00  0.00     0.102 C 
ATOM     19  N12 MOL d          12.790  34.912   6.405  0.00  0.00    -0.385 N 
ATOM     20  H7  MOL d          13.790  34.666   6.422  0.00  0.00     0.157 HD
ATOM     21  H8  MOL d          12.244  34.788   5.540  0.00  0.00     0.157 HD
BRANCH  18  22
ATOM     22  N11 MOL d          10.911  35.654   7.296  0.00  0.00    -0.385 N 
ATOM     23  H5  MOL d          10.492  35.506   6.367  0.00  0.00     0.157 HD
ATOM     24  H6  MOL d          10.332  36.007   8.072  0.00  0.00     0.157 HD
ENDBRANCH  18  22
ENDBRANCH  14  18
ENDBRANCH   9  10
ENDBRANCH   6   9
BRANCH   4  25
ATOM     25  O2  MOL d          12.878  40.885  12.228  0.00  0.00    -0.289 OA
BRANCH  25  26
ATOM     26  C21 MOL d          12.556  42.116  11.829  0.00  0.00     0.079 A 
ATOM     27  C26 MOL d          13.522  43.133  11.925  0.00  0.00     0.052 A 
ATOM     28  C25 MOL d          13.198  44.424  11.488  0.00  0.00     0.013 A 
ATOM     29  C24 MOL d          11.903  44.682  10.995  0.00  0.00     0.015 A 
ATOM     30  C23 MOL d          10.936  43.662  10.917  0.00  0.00     0.004 A 
ATOM     31  C22 MOL d          11.274  42.363  11.340  0.00  0.00     0.037 A 
BRANCH  28  32
ATOM     32  C27 MOL d          14.137  45.467  11.605  0.00  0.00     0.139 A 
ATOM     33  N22 MOL d          14.745  45.712  12.787  0.00  0.00    -0.241 NA
ATOM     34  C29 MOL d          15.615  46.811  12.719  0.00  0.00     0.136 A 
ATOM     35  C28 MOL d          15.490  47.254  11.246  0.00  0.00     0.111 A 
ATOM     36  N21 MOL d          14.557  46.353  10.667  0.00  0.00    -0.344 N 
ATOM     37  C30 MOL d          14.167  46.461   9.282  0.00  0.00     0.157 C 
ENDBRANCH  28  32
ENDBRANCH  25  26
ENDBRANCH   4  25
BRANCH   2  38
ATOM     38  N31 MOL d          10.196  39.162  15.844  0.00  0.00    -0.375 N 
ATOM     39  C36 MOL d           9.250  40.234  16.049  0.00  0.00     0.123 C 
ATOM     40  C35 MOL d           9.324  40.820  17.483  0.00  0.00     0.021 C 
ATOM     41  C34 MOL d           9.283  39.670  18.553  0.00  0.00     0.019 C 
ATOM     42  C33 MOL d          10.445  38.655  18.236  0.00  0.00     0.105 C 
ATOM     43  C32 MOL d          10.226  38.068  16.805  0.00  0.00     0.138 C 
BRANCH  42  44
ATOM     44  C37 MOL d          10.598  37.651  19.316  0.00  0.00     0.178 C 
ATOM     45  O32 MOL d          11.712  37.451  19.875  0.00  0.00    -0.648 OA
ATOM     46  O31 MOL d           9.575  37.381  20.006  0.00  0.00    -0.648 OA
ENDBRANCH  42  44
ENDBRANCH   2  38
TORSDOF 10
