REMARK  3 active torsions:
REMARK  status: ('A' for Active; 'I' for Inactive)
REMARK    1  A    between atoms: C3_5  and  C4_6 
REMARK    2  A    between atoms: C4_6  and  N2_7 
REMARK    3  A    between atoms: C8_11  and  N4_15 
ROOT
ATOM      1  N2  N1Y d          57.958 -12.459 -25.731  0.00  0.00    -0.360 N 
ATOM      2  C7  N1Y d          58.019 -13.605 -24.917  0.00  0.00     0.121 A 
ATOM      3  C8  N1Y d          58.524 -14.807 -25.280  0.00  0.00     0.215 C 
ATOM      4  N3  N1Y d          57.481 -13.274 -23.702  0.00  0.00    -0.374 N 
ATOM      5  C9  N1Y d          57.024 -11.905 -23.608  0.00  0.00     0.141 A 
ATOM      6  C10 N1Y d          57.346 -11.325 -25.006  0.00  0.00     0.144 A 
ATOM      7  H7  N1Y d          57.408 -13.943 -22.922  0.00  0.00     0.161 HD
ENDROOT
BRANCH   1   8
ATOM      8  C4  N1Y d          58.392 -12.246 -27.109  0.00  0.00     0.164 C 
BRANCH   8   9
ATOM      9  C3  N1Y d          57.482 -12.847 -28.172  0.00  0.00    -0.023 A 
ATOM     10  C2  N1Y d          56.142 -12.416 -28.363  0.00  0.00     0.127 A 
ATOM     11  N1  N1Y d          55.304 -12.930 -29.319  0.00  0.00    -0.248 NA
ATOM     12  C1  N1Y d          55.807 -13.915 -30.129  0.00  0.00     0.125 A 
ATOM     13 CL   N1Y d          54.725 -14.497 -31.290  0.00  0.00    -0.062 Cl
ATOM     14  C6  N1Y d          57.113 -14.427 -30.037  0.00  0.00     0.045 A 
ATOM     15  C5  N1Y d          57.955 -13.876 -29.039  0.00  0.00     0.013 A 
ENDBRANCH   8   9
ENDBRANCH   1   8
BRANCH   3  16
ATOM     16  N4  N1Y d          58.573 -15.980 -24.426  0.00  0.00    -0.124 N 
ATOM     17  O1  N1Y d          58.130 -15.956 -23.262  0.00  0.00    -0.532 OA
ATOM     18  O2  N1Y d          59.082 -16.977 -24.957  0.00  0.00    -0.532 OA
ENDBRANCH   3  16
TORSDOF 3
