REMARK  0 active torsions:
REMARK  status: ('A' for Active; 'I' for Inactive)
ROOT
ATOM      1  C1  K44 d          22.709   8.055  18.103  0.00  0.00     0.049 A 
ATOM      2  C2  K44 d          21.685   8.671  18.836  0.00  0.00     0.049 A 
ATOM      3  C3  K44 d          21.385   8.185  20.101  0.00  0.00     0.059 A 
ATOM      4  C4  K44 d          23.412   6.993  18.633  0.00  0.00     0.061 A 
ATOM      5  N5  K44 d          23.651   5.483  20.531  0.00  0.00    -0.061 NA
ATOM      6  C6  K44 d          23.091   6.516  19.887  0.00  0.00     0.123 A 
ATOM      7  C7  K44 d          22.116   7.129  20.635  0.00  0.00     0.101 A 
ATOM      8  N8  K44 d          22.099   6.445  21.764  0.00  0.00    -0.176 N 
ATOM      9  C9  K44 d          22.974   5.485  21.670  0.00  0.00     0.705 A 
ATOM     10  N10 K44 d          23.049   4.718  22.777  0.00  0.00    -0.218 N 
ATOM     11  C11 K44 d          23.613   3.382  22.705  0.00  0.00     0.169 C 
ATOM     12  C12 K44 d          21.367   6.473  22.994  0.00  0.00     0.168 C 
ATOM     13  C14 K44 d          21.895   5.066  23.641  0.00  0.00     0.161 C 
ATOM     14 BR10 K44 d          24.784   6.134  17.655  0.00  0.00    -0.047 Br
ATOM     15 BR11 K44 d          23.167   8.741  16.407  0.00  0.00    -0.048 Br
ATOM     16 BR12 K44 d          20.744  10.106  18.018  0.00  0.00    -0.048 Br
ATOM     17 BR13 K44 d          20.034   9.039  21.112  0.00  0.00    -0.047 Br
ENDROOT
TORSDOF 0
