REMARK  4 active torsions:
REMARK  status: ('A' for Active; 'I' for Inactive)
REMARK    1  A    between atoms: C03_3  and  S11_11 
REMARK    2  A    between atoms: C06_6  and  C07_7 
REMARK       I    between atoms: C07_7  and  N09_9 
REMARK    3  A    between atoms: N09_9  and  C10_10 
REMARK    4  A    between atoms: S11_11  and  NP2_12 
ROOT
ATOM      1  C07 F6B d          -4.231   5.651  13.491  0.00  0.00     0.251 C 
ATOM      2  O08 F6B d          -5.120   6.461  13.262  0.00  0.00    -0.268 OA
ATOM      3  N09 F6B d          -2.935   5.918  12.943  0.00  0.00    -0.352 N 
ATOM      4  H5  F6B d          -2.279   5.195  12.726  0.00  0.00     0.163 HD
ENDROOT
BRANCH   1   5
ATOM      5  C06 F6B d          -4.661   4.445  14.331  0.00  0.00     0.032 A 
ATOM      6  C01 F6B d          -3.768   3.425  14.674  0.00  0.00     0.018 A 
ATOM      7  C02 F6B d          -4.157   2.316  15.432  0.00  0.00     0.026 A 
ATOM      8  C03 F6B d          -5.508   2.212  15.860  0.00  0.00     0.079 A 
ATOM      9  C04 F6B d          -6.388   3.244  15.508  0.00  0.00     0.026 A 
ATOM     10  C05 F6B d          -5.963   4.337  14.763  0.00  0.00     0.018 A 
BRANCH   8  11
ATOM     11  S11 F6B d          -6.010   0.777  16.816  0.00  0.00     0.256 S 
ATOM     12  O14 F6B d          -5.374   0.989  18.106  0.00  0.00    -0.201 OA
ATOM     13  O13 F6B d          -7.439   1.009  16.951  0.00  0.00    -0.201 OA
BRANCH  11  14
ATOM     14  NP2 F6B d          -5.521  -0.615  16.061  0.00  0.00    -0.324 N 
ATOM     15  H8  F6B d          -5.726  -1.504  16.470  0.00  0.00     0.169 HD
ATOM     16  H9  F6B d          -5.021  -0.566  15.196  0.00  0.00     0.169 HD
ENDBRANCH  11  14
ENDBRANCH   8  11
ENDBRANCH   1   5
BRANCH   3  17
ATOM     17  C10 F6B d          -2.653   7.329  12.728  0.00  0.00     0.167 C 
ATOM     18  C15 F6B d          -1.561   7.955  13.349  0.00  0.00     0.037 A 
ATOM     19  C20 F6B d          -1.746   8.584  14.645  0.00  0.00     0.127 A 
ATOM     20  C16 F6B d          -0.295   7.954  12.683  0.00  0.00     0.127 A 
ATOM     21  C19 F6B d          -0.659   9.219  15.275  0.00  0.00     0.043 A 
ATOM     22  F22 F6B d          -2.934   8.582  15.266  0.00  0.00    -0.205 F 
ATOM     23  C18 F6B d           0.624   9.231  14.624  0.00  0.00     0.006 A 
ATOM     24  C17 F6B d           0.812   8.602  13.333  0.00  0.00     0.043 A 
ATOM     25  F21 F6B d          -0.138   7.368  11.488  0.00  0.00    -0.205 F 
ENDBRANCH   3  17
TORSDOF 4
