REMARK  3 active torsions:
REMARK  status: ('A' for Active; 'I' for Inactive)
REMARK    1  A    between atoms: C1_1  and  S1_12 
REMARK    2  A    between atoms: C2_2  and  N4_8 
REMARK       I    between atoms: N4_8  and  C3_3 
REMARK    3  A    between atoms: S1_12  and  N1_5 
ROOT
ATOM      1  C1  AZM d          -5.354   2.115  15.497  0.00  0.00     0.237 A 
ATOM      2  C2  AZM d          -4.814   4.030  14.177  0.00  0.00     0.197 A 
ATOM      3  N2  AZM d          -3.696   3.250  14.449  0.00  0.00    -0.122 NA
ATOM      4  N3  AZM d          -4.007   2.133  15.207  0.00  0.00    -0.126 NA
ATOM      5  S2  AZM d          -6.286   3.458  14.901  0.00  0.00    -0.015 SA
ENDROOT
BRANCH   1   6
ATOM      6  S1  AZM d          -6.103   0.789  16.400  0.00  0.00     0.282 S 
ATOM      7  O1  AZM d          -5.659   0.783  17.785  0.00  0.00    -0.199 OA
ATOM      8  O2  AZM d          -7.494   0.906  16.029  0.00  0.00    -0.199 OA
BRANCH   6   9
ATOM      9  N1  AZM d          -5.497  -0.513  15.674  0.00  0.00    -0.323 N 
ATOM     10  H4  AZM d          -5.756  -1.427  15.988  0.00  0.00     0.169 HD
ATOM     11  H5  AZM d          -4.861  -0.409  14.909  0.00  0.00     0.169 HD
ENDBRANCH   6   9
ENDBRANCH   1   6
BRANCH   2  12
ATOM     12  N4  AZM d          -4.700   5.160  13.384  0.00  0.00    -0.305 N 
ATOM     13  C3  AZM d          -5.684   5.991  13.041  0.00  0.00     0.219 C 
ATOM     14  O3  AZM d          -6.843   5.855  13.440  0.00  0.00    -0.274 OA
ATOM     15  C4  AZM d          -5.293   7.045  12.042  0.00  0.00     0.117 C 
ATOM     16  H6  AZM d          -3.788   5.374  13.034  0.00  0.00     0.171 HD
ENDBRANCH   2  12
TORSDOF 3
