REMARK  23 active torsions:
REMARK  status: ('A' for Active; 'I' for Inactive)
REMARK    1  A    between atoms: CA1_2  and  N1_1 
REMARK    2  A    between atoms: CA1_2  and  C1_3 
REMARK    3  A    between atoms: CB1_6  and  CA1_2 
REMARK    4  A    between atoms: CG1_7  and  CB1_6 
REMARK    5  A    between atoms: CD1_8  and  CG1_7 
REMARK       I    between atoms: N2_10  and  CD1_8 
REMARK    6  A    between atoms: CA2_11  and  N2_10 
REMARK    7  A    between atoms: CA2_11  and  C2_12 
REMARK    8  A    between atoms: CB2_14  and  CA2_11 
REMARK       I    between atoms: C2_12  and  N3_16 
REMARK    9  A    between atoms: SG2_15  and  CB2_14 
REMARK   10  A    between atoms: SG5_31  and  SG2_15 
REMARK   11  A    between atoms: N3_16  and  CA3_17 
REMARK   12  A    between atoms: CA3_17  and  C3_18 
REMARK   13  A    between atoms: N4_21  and  CA4_22 
REMARK       I    between atoms: C5_26  and  N4_21 
REMARK   14  A    between atoms: CA4_22  and  C4_23 
REMARK   15  A    between atoms: CA5_28  and  C5_26 
REMARK   16  A    between atoms: N5_29  and  CA5_28 
REMARK   17  A    between atoms: CA5_28  and  CB5_30 
REMARK       I    between atoms: CD6_39  and  N5_29 
REMARK   18  A    between atoms: CB5_30  and  SG5_31 
REMARK   19  A    between atoms: CA6_32  and  C6_33 
REMARK   20  A    between atoms: CA6_32  and  N6_36 
REMARK   21  A    between atoms: CB6_37  and  CA6_32 
REMARK   22  A    between atoms: CG6_38  and  CB6_37 
REMARK   23  A    between atoms: CG6_38  and  CD6_39 
ROOT
ATOM      1  SG2 GDS d          23.050   0.415   7.107  0.00  0.00    -0.095 SA
ENDROOT
BRANCH   1   2
ATOM      2  CB2 GDS d          22.132   1.272   8.399  0.00  0.00     0.120 C 
BRANCH   2   3
ATOM      3  CA2 GDS d          22.659   0.774   9.740  0.00  0.00     0.186 C 
BRANCH   3   4
ATOM      4  N2  GDS d          22.216  -0.588   9.976  0.00  0.00    -0.347 N 
ATOM      5  CD1 GDS d          23.149  -1.600  10.101  0.00  0.00     0.218 C 
ATOM      6  O1  GDS d          24.354  -1.356  10.023  0.00  0.00    -0.274 OA
ATOM      7  H9  GDS d          21.240  -0.793  10.048  0.00  0.00     0.163 HD
BRANCH   5   8
ATOM      8  CG1 GDS d          22.570  -2.988  10.329  0.00  0.00     0.105 C 
BRANCH   8   9
ATOM      9  CB1 GDS d          23.610  -3.895  10.971  0.00  0.00     0.053 C 
BRANCH   9  10
ATOM     10  CA1 GDS d          23.870  -3.437  12.433  0.00  0.00     0.283 C 
BRANCH  10  11
ATOM     11  N1  GDS d          25.048  -4.152  12.986  0.00  0.00    -0.065 N 
ATOM     12  H1  GDS d          25.852  -3.973  12.406  0.00  0.00     0.275 HD
ATOM     13  H2  GDS d          24.861  -5.142  13.005  0.00  0.00     0.275 HD
ATOM     14  H3  GDS d          25.230  -3.826  13.922  0.00  0.00     0.275 HD
ENDBRANCH  10  11
BRANCH  10  15
ATOM     15  C1  GDS d          22.621  -3.680  13.284  0.00  0.00     0.204 C 
ATOM     16  OE1 GDS d          21.748  -2.765  13.260  0.00  0.00    -0.646 OA
ATOM     17  OE2 GDS d          22.549  -4.710  13.949  0.00  0.00    -0.646 OA
ENDBRANCH  10  15
ENDBRANCH   9  10
ENDBRANCH   8   9
ENDBRANCH   5   8
ENDBRANCH   3   4
BRANCH   3  18
ATOM     18  C2  GDS d          22.112   1.725  10.782  0.00  0.00     0.241 C 
ATOM     19  O2  GDS d          21.030   1.487  11.346  0.00  0.00    -0.271 OA
ATOM     20  N3  GDS d          22.827   2.836  11.022  0.00  0.00    -0.349 N 
ATOM     21  H13 GDS d          23.695   2.994  10.551  0.00  0.00     0.163 HD
BRANCH  20  22
ATOM     22  CA3 GDS d          22.323   3.792  11.966  0.00  0.00     0.235 C 
BRANCH  22  23
ATOM     23  C3  GDS d          22.670   5.168  11.442  0.00  0.00     0.191 C 
ATOM     24  OE3 GDS d          22.671   6.082  12.311  0.00  0.00    -0.647 OA
ATOM     25  OE4 GDS d          22.914   5.292  10.245  0.00  0.00    -0.647 OA
ENDBRANCH  22  23
ENDBRANCH  20  22
ENDBRANCH   3  18
ENDBRANCH   2   3
ENDBRANCH   1   2
BRANCH   1  26
ATOM     26  SG5 GDS d          24.620   1.668   6.727  0.00  0.00    -0.095 SA
BRANCH  26  27
ATOM     27  CB5 GDS d          26.104   0.683   7.078  0.00  0.00     0.120 C 
BRANCH  27  28
ATOM     28  CA5 GDS d          26.487   0.814   8.551  0.00  0.00     0.186 C 
BRANCH  28  29
ATOM     29  C5  GDS d          27.484  -0.306   8.821  0.00  0.00     0.241 C 
ATOM     30  N4  GDS d          27.020  -1.491   9.297  0.00  0.00    -0.349 N 
ATOM     31  H16 GDS d          26.044  -1.625   9.469  0.00  0.00     0.163 HD
ATOM     32  O5  GDS d          28.694  -0.101   8.609  0.00  0.00    -0.271 OA
BRANCH  30  33
ATOM     33  CA4 GDS d          27.984  -2.575   9.554  0.00  0.00     0.235 C 
BRANCH  33  34
ATOM     34  C4  GDS d          27.675  -3.306  10.851  0.00  0.00     0.191 C 
ATOM     35  OE5 GDS d          27.010  -2.651  11.704  0.00  0.00    -0.647 OA
ATOM     36  OE6 GDS d          28.082  -4.454  10.982  0.00  0.00    -0.647 OA
ENDBRANCH  33  34
ENDBRANCH  30  33
ENDBRANCH  28  29
BRANCH  28  37
ATOM     37  N5  GDS d          27.143   2.101   8.907  0.00  0.00    -0.347 N 
ATOM     38  CD6 GDS d          26.643   2.871   9.965  0.00  0.00     0.218 C 
ATOM     39  O6  GDS d          25.644   2.481  10.572  0.00  0.00    -0.274 OA
ATOM     40  H20 GDS d          27.940   2.416   8.392  0.00  0.00     0.163 HD
BRANCH  38  41
ATOM     41  CG6 GDS d          27.379   4.163  10.293  0.00  0.00     0.105 C 
BRANCH  41  42
ATOM     42  CB6 GDS d          26.567   4.952  11.322  0.00  0.00     0.053 C 
BRANCH  42  43
ATOM     43  CA6 GDS d          27.483   6.041  11.946  0.00  0.00     0.283 C 
BRANCH  43  44
ATOM     44  C6  GDS d          27.856   7.056  10.869  0.00  0.00     0.204 C 
ATOM     45  OE7 GDS d          27.007   7.962  10.647  0.00  0.00    -0.646 OA
ATOM     46  OE8 GDS d          28.949   6.953  10.316  0.00  0.00    -0.646 OA
ENDBRANCH  43  44
BRANCH  43  47
ATOM     47  N6  GDS d          26.799   6.705  13.091  0.00  0.00    -0.065 N 
ATOM     48  H24 GDS d          26.563   6.015  13.787  0.00  0.00     0.275 HD
ATOM     49  H25 GDS d          25.958   7.154  12.765  0.00  0.00     0.275 HD
ATOM     50  H26 GDS d          27.413   7.394  13.495  0.00  0.00     0.275 HD
ENDBRANCH  43  47
ENDBRANCH  42  43
ENDBRANCH  41  42
ENDBRANCH  38  41
ENDBRANCH  28  37
ENDBRANCH  27  28
ENDBRANCH  26  27
ENDBRANCH   1  26
TORSDOF 23
