REMARK  14 active torsions:
REMARK  status: ('A' for Active; 'I' for Inactive)
REMARK    1  A    between atoms: C2_2  and  N6_6 
REMARK    2  A    between atoms: C2_2  and  C3_3 
REMARK    3  A    between atoms: N6_6  and  C7_7 
REMARK    4  A    between atoms: C7_7  and  C16_16 
REMARK    5  A    between atoms: C7_7  and  C8_8 
REMARK    6  A    between atoms: C8_8  and  C9_9 
REMARK    7  A    between atoms: C9_9  and  C10_10 
REMARK       I    between atoms: C16_16  and  N18_18 
REMARK    8  A    between atoms: N18_18  and  C19_19 
REMARK    9  A    between atoms: C19_19  and  C27_27 
REMARK   10  A    between atoms: C19_19  and  C20_20 
REMARK   11  A    between atoms: C20_20  and  C21_21 
REMARK   12  A    between atoms: C21_21  and  C22_22 
REMARK   13  A    between atoms: C22_22  and  N23_23 
REMARK       I    between atoms: N23_23  and  C24_24 
REMARK       I    between atoms: C24_24  and  N25_25 
REMARK       I    between atoms: C27_27  and  N29_29 
REMARK   14  A    between atoms: N29_29  and  C30_30 
ROOT
ATOM      1  C19 INH d         -16.688  95.026  79.334  0.00  0.00     0.177 C 
ENDROOT
BRANCH   1   2
ATOM      2  N18 INH d         -17.509  94.499  80.414  0.00  0.00    -0.346 N 
ATOM      3  C16 INH d         -17.612  93.192  80.625  0.00  0.00     0.249 C 
ATOM      4  O17 INH d         -17.052  92.348  79.924  0.00  0.00    -0.271 OA
ATOM      5  H17 INH d         -18.005  95.133  81.008  0.00  0.00     0.163 HD
BRANCH   3   6
ATOM      6  C7  INH d         -18.483  92.761  81.796  0.00  0.00     0.278 C 
BRANCH   6   7
ATOM      7  N6  INH d         -19.218  91.552  81.401  0.00  0.00    -0.049 N 
ATOM      8  H5  INH d         -18.827  91.213  80.536  0.00  0.00     0.279 HD
ATOM      9  H6  INH d         -19.094  90.857  82.121  0.00  0.00     0.279 HD
BRANCH   7  10
ATOM     10  C2  INH d         -20.674  91.761  81.203  0.00  0.00     0.282 C 
ATOM     11  C1  INH d         -20.881  92.757  80.045  0.00  0.00     0.052 C 
BRANCH  10  12
ATOM     12  C3  INH d         -21.449  92.193  82.446  0.00  0.00     0.204 C 
ATOM     13  O5  INH d         -20.968  92.052  83.600  0.00  0.00    -0.646 OA
ATOM     14  O4  INH d         -22.571  92.688  82.278  0.00  0.00    -0.646 OA
ENDBRANCH  10  12
ENDBRANCH   7  10
ENDBRANCH   6   7
BRANCH   6  15
ATOM     15  C8  INH d         -17.601  92.447  83.016  0.00  0.00     0.047 C 
BRANCH  15  16
ATOM     16  C9  INH d         -16.697  93.599  83.431  0.00  0.00     0.041 C 
BRANCH  16  17
ATOM     17  C10 INH d         -15.946  93.459  84.717  0.00  0.00    -0.058 A 
ATOM     18  C15 INH d         -15.057  92.412  84.913  0.00  0.00     0.007 A 
ATOM     19  C14 INH d         -14.343  92.304  86.099  0.00  0.00     0.001 A 
ATOM     20  C13 INH d         -14.520  93.253  87.100  0.00  0.00     0.000 A 
ATOM     21  C12 INH d         -15.404  94.298  86.913  0.00  0.00     0.001 A 
ATOM     22  C11 INH d         -16.108  94.399  85.732  0.00  0.00     0.007 A 
ENDBRANCH  16  17
ENDBRANCH  15  16
ENDBRANCH   6  15
ENDBRANCH   3   6
ENDBRANCH   1   2
BRANCH   1  23
ATOM     23  C27 INH d         -15.318  95.441  79.841  0.00  0.00     0.245 C 
ATOM     24  N29 INH d         -14.338  95.406  78.936  0.00  0.00    -0.325 N 
ATOM     25  H30 INH d         -14.621  95.110  78.024  0.00  0.00     0.169 HD
ATOM     26  O28 INH d         -15.185  95.880  80.981  0.00  0.00    -0.271 OA
BRANCH  24  27
ATOM     27  C30 INH d         -13.010  95.709  79.052  0.00  0.00     0.034 A 
ATOM     28  C35 INH d         -12.484  96.415  80.123  0.00  0.00     0.029 A 
ATOM     29  C34 INH d         -11.110  96.660  80.216  0.00  0.00     0.002 A 
ATOM     30  C33 INH d         -10.257  96.196  79.229  0.00  0.00     0.000 A 
ATOM     31  C32 INH d         -10.766  95.494  78.153  0.00  0.00     0.002 A 
ATOM     32  C31 INH d         -12.143  95.253  78.065  0.00  0.00     0.029 A 
ENDBRANCH  24  27
ENDBRANCH   1  23
BRANCH   1  33
ATOM     33  C20 INH d         -17.325  96.250  78.724  0.00  0.00     0.036 C 
BRANCH  33  34
ATOM     34  C21 INH d         -18.708  96.066  78.230  0.00  0.00     0.023 C 
BRANCH  34  35
ATOM     35  C22 INH d         -19.118  97.393  77.724  0.00  0.00     0.138 C 
BRANCH  35  36
ATOM     36  N23 INH d         -20.480  97.426  77.232  0.00  0.00    -0.227 N 
ATOM     37  C24 INH d         -21.206  98.543  77.200  0.00  0.00     0.665 C 
ATOM     38  N26 INH d         -20.681  99.684  77.654  0.00  0.00    -0.235 N 
ATOM     39  N25 INH d         -22.451  98.522  76.726  0.00  0.00    -0.235 N 
ATOM     40  H28 INH d         -19.718  99.698  78.020  0.00  0.00     0.174 HD
ATOM     41  H29 INH d         -21.239 100.550  77.638  0.00  0.00     0.174 HD
ATOM     42  H26 INH d         -23.008  99.388  76.703  0.00  0.00     0.174 HD
ATOM     43  H27 INH d         -22.856  97.640  76.382  0.00  0.00     0.174 HD
ATOM     44  H25 INH d         -20.904  96.551  76.893  0.00  0.00     0.177 HD
ENDBRANCH  35  36
ENDBRANCH  34  35
ENDBRANCH  33  34
ENDBRANCH   1  33
TORSDOF 14
