REMARK  3 active torsions:
REMARK  status: ('A' for Active; 'I' for Inactive)
REMARK    1  A    between atoms: C16_7  and  C12_9 
REMARK    2  A    between atoms: C11_15  and  C24_18 
REMARK    3  A    between atoms: C24_18  and  C25_19 
ROOT
ATOM      1  N23 MOL d          19.429  80.596  -1.781  0.00  0.00    -0.191 NA
ATOM      2  C22 MOL d          19.243  80.802  -0.655  0.00  0.00     0.099 C 
ATOM      3  C19 MOL d          19.032  81.049   0.706  0.00  0.00     0.044 A 
ATOM      4  C20 MOL d          19.503  82.260   1.298  0.00  0.00     0.023 A 
ATOM      5  C18 MOL d          18.346  80.094   1.526  0.00  0.00     0.023 A 
ATOM      6  C17 MOL d          18.138  80.348   2.921  0.00  0.00     0.015 A 
ATOM      7  C16 MOL d          18.611  81.568   3.527  0.00  0.00    -0.004 A 
ATOM      8  C21 MOL d          19.296  82.518   2.689  0.00  0.00     0.015 A 
ENDROOT
BRANCH   7   9
ATOM      9  C12 MOL d          18.424  81.877   4.985  0.00  0.00     0.106 A 
ATOM     10  N15 MOL d          18.848  83.092   5.440  0.00  0.00    -0.149 NA
ATOM     11  N7  MOL d          18.677  83.327   6.709  0.00  0.00    -0.041 N 
ATOM     12  C8  MOL d          18.106  82.445   7.606  0.00  0.00     0.769 A 
ATOM     13  C11 MOL d          18.986  84.426   7.470  0.00  0.00     0.173 A 
ATOM     14  N14 MOL d          17.656  81.218   7.246  0.00  0.00    -0.069 NA
ATOM     15  N9  MOL d          18.094  82.997   8.772  0.00  0.00     0.047 NA
ATOM     16  C13 MOL d          17.824  80.939   5.909  0.00  0.00     0.170 A 
ATOM     17  N10 MOL d          18.623  84.187   8.691  0.00  0.00    -0.117 NA
BRANCH  13  18
ATOM     18  C24 MOL d          19.640  85.718   6.993  0.00  0.00     0.124 C 
BRANCH  18  19
ATOM     19  C25 MOL d          21.162  85.628   7.051  0.00  0.00    -0.021 A 
ATOM     20  C26 MOL d          21.956  85.759   8.185  0.00  0.00     0.098 A 
ATOM     21  N27 MOL d          23.288  85.617   7.823  0.00  0.00    -0.350 N 
ATOM     22  C2  MOL d          23.359  85.397   6.473  0.00  0.00     0.138 A 
ATOM     23  H11 MOL d          24.092  85.669   8.465  0.00  0.00     0.166 HD
ATOM     24  C1  MOL d          22.064  85.398   5.964  0.00  0.00     0.018 A 
ATOM     25  N3  MOL d          24.491  85.210   5.733  0.00  0.00    -0.242 NA
ATOM     26  C6  MOL d          21.856  85.187   4.565  0.00  0.00     0.017 A 
ATOM     27  C5  MOL d          23.026  84.984   3.751  0.00  0.00     0.020 A 
ATOM     28  C4  MOL d          24.315  85.005   4.380  0.00  0.00     0.119 A 
ENDBRANCH  18  19
ENDBRANCH  13  18
ENDBRANCH   7   9
TORSDOF 3
