3rsr_ligand

Created by X-TOOL on Fri Sep 26 17:34:55 2014
 45 47  0  0  0  0  0  0  0  0999 V2000
  -13.5820   52.8600   19.4180  O 0  0  0  1  0  1
  -13.1080   51.9510   20.3590  N 0  0  0  1  0  3
  -13.6590   51.7890   21.4440  O 0  0  0  1  0  1
  -11.9930   51.1770   20.0720  C 0  0  0  1  0  3
  -11.3160   51.3320   18.8630  C 0  0  0  2  0  3
  -10.2230   50.5130   18.6400  C 0  0  0  1  0  3
  -11.6200   50.2540   21.0440  C 0  0  0  2  0  3
  -10.5360   49.4270   20.8480  C 0  0  0  2  0  3
   -9.8320   49.5420   19.6640  C 0  0  0  1  0  3
   -8.7650   48.9150   19.1510  N 0  0  0  1  0  3
   -8.4630   49.4170   17.9190  C 0  0  0  2  0  3
   -9.3360   50.4300   17.5250  C 0  0  0  2  0  3
   -8.0350   47.8360   19.8700  C 0  0  0  2  0  4
   -8.9440   46.9990   20.5890  O 0  0  0  1  0  2
   -8.2660   46.4070   21.7040  C 0  0  0  2  0  4
   -6.8870   47.0620   21.7380  C 0  0  0  2  0  4
   -5.9470   46.1790   21.0960  O 0  0  0  2  0  2
   -7.0530   48.3350   20.9210  C 0  0  0  3  0  4
   -9.0350   46.5980   23.0120  C 0  0  0  3  0  4
   -8.9650   47.9590   23.4280  O 0  0  0  1  0  2
   -9.7380   48.4710   24.7570  P 0  0  0  1  0  4
   -9.6180   47.4490   25.8670  O 0  0  0  1  0  1
   -9.3290   49.8810   25.0770  O 0  0  0  1  0  1
  -11.2150   48.5140   24.1070  O 0  0  0  1  0  2
  -12.5920   48.4900   24.9490  P 0  0  0  1  0  4
  -12.3650   49.3280   26.1810  O 0  0  0  1  0  1
  -13.6010   49.0380   23.9760  O 0  0  0  1  0  1
  -12.8900   46.8550   25.1150  O 0  0  0  1  0  2
  -12.3170   45.7640   26.2130  P 0  0  0  1  0  4
  -12.6710   44.2690   25.9630  O 0  0  0  1  0  1
  -12.8960   46.6180   27.3350  O 0  0  0  1  0  1
  -10.8050   45.6250   26.0380  O 0  0  0  1  0  1
  -11.6326   52.0635   18.1284  H 0  0  0  1  0  1
  -12.1881   50.1850   21.9646  H 0  0  0  1  0  1
  -10.2429   48.7054   21.6020  H 0  0  0  1  0  1
   -7.6314   49.0651   17.3102  H 0  0  0  1  0  1
   -9.3401   51.0094   16.6029  H 0  0  0  1  0  1
   -7.4904   47.2399   19.1230  H 0  0  0  1  0  1
   -8.1518   45.3268   21.5306  H 0  0  0  1  0  1
   -6.5673   47.2848   22.7666  H 0  0  0  1  0  1
   -5.0831   46.5739   21.1096  H 0  0  0  1  0  1
   -7.4757   49.1546   21.5206  H 0  0  0  1  0  1
   -6.1030   48.6609   20.4724  H 0  0  0  1  0  1
   -8.5945   45.9570   23.7898  H 0  0  0  1  0  1
  -10.0878   46.3182   22.8591  H 0  0  0  1  0  1
  1  2  2  0  0  2
  2  3  2  0  0  2
  2  4  1  0  0  2
  4  5  4  0  0  1
  4  7  4  0  0  1
  5  6  4  0  0  1
  6  9  4  0  0  1
  6 12  1  0  0  1
  7  8  4  0  0  1
  8  9  4  0  0  1
  9 10  1  0  0  1
 10 11  1  0  0  1
 10 13  1  0  0  2
 11 12  2  0  0  1
 13 14  1  0  0  1
 13 18  1  0  0  1
 14 15  1  0  0  1
 15 16  1  0  0  1
 15 19  1  0  0  2
 16 17  1  0  0  2
 16 18  1  0  0  1
 19 20  1  0  0  2
 20 21  1  0  0  2
 21 22  2  0  0  2
 21 23  2  0  0  2
 21 24  1  0  0  2
 24 25  1  0  0  2
 25 26  2  0  0  2
 25 27  2  0  0  2
 25 28  1  0  0  2
 28 29  1  0  0  2
 29 30  2  0  0  2
 29 31  2  0  0  2
 29 32  2  0  0  2
  5 33  1  0  0  2
  7 34  1  0  0  2
  8 35  1  0  0  2
 11 36  1  0  0  2
 12 37  1  0  0  2
 13 38  1  0  0  2
 15 39  1  0  0  2
 16 40  1  0  0  2
 17 41  1  0  0  2
 18 42  1  0  0  2
 18 43  1  0  0  2
 19 44  1  0  0  2
 19 45  1  0  0  2
M  END
> <MOLECULAR_FORMULA>
C13H13N2O14P3

> <MOLECULAR_WEIGHT>
514.1

> <NUM_HB_ATOMS>
15 

> <NUM_ROTOR>
7  

> <XLOGP2>
-1.22

$$$$
