REMARK  16 active torsions:
REMARK  status: ('A' for Active; 'I' for Inactive)
REMARK    1  A    between atoms: AP_1  and  AO5_4 
REMARK    2  A    between atoms: AP_1  and  O3_23 
REMARK    3  A    between atoms: AO5_4  and  AC5_5 
REMARK    4  A    between atoms: AC5_5  and  AC4_6 
REMARK    5  A    between atoms: AC3_8  and  AO3_9 
REMARK    6  A    between atoms: AC2_10  and  AO2_11 
REMARK    7  A    between atoms: AC1_12  and  AN9_13 
REMARK    8  A    between atoms: AC6_17  and  AN6_18 
REMARK    9  A    between atoms: O3_23  and  NP_24 
REMARK   10  A    between atoms: NP_24  and  NO5_27 
REMARK   11  A    between atoms: NO5_27  and  NC5_28 
REMARK   12  A    between atoms: NC5_28  and  NC4_29 
REMARK   13  A    between atoms: NC3_31  and  NO3_32 
REMARK   14  A    between atoms: NC2_33  and  NO2_34 
REMARK   15  A    between atoms: NC1_35  and  NN1_36 
REMARK   16  A    between atoms: NC3_38  and  NC7_39 
ROOT
ATOM      1  AP  A3D d           6.497  29.233  18.068  0.00  0.00     0.417 P 
ATOM      2  AO1 A3D d           5.398  30.094  17.583  0.00  0.00    -0.624 OA
ATOM      3  AO2 A3D d           6.150  27.839  17.788  0.00  0.00    -0.624 OA
ENDROOT
BRANCH   1   4
ATOM      4  AO5 A3D d           7.702  29.548  17.049  0.00  0.00    -0.287 OA
BRANCH   4   5
ATOM      5  AC5 A3D d           8.567  28.513  16.689  0.00  0.00     0.216 C 
BRANCH   5   6
ATOM      6  AC4 A3D d           9.470  29.054  15.613  0.00  0.00     0.180 C 
ATOM      7  AO4 A3D d          10.532  28.148  15.197  0.00  0.00    -0.353 OA
ATOM      8  AC1 A3D d          10.443  27.903  13.793  0.00  0.00     0.262 C 
ATOM      9  AC2 A3D d           8.961  28.029  13.533  0.00  0.00     0.198 C 
ATOM     10  AC3 A3D d           8.745  29.341  14.310  0.00  0.00     0.182 C 
BRANCH   8  11
ATOM     11  AN9 A3D d          10.757  26.514  13.613  0.00  0.00    -0.294 N 
ATOM     12  AC8 A3D d          10.053  25.458  14.171  0.00  0.00     0.214 A 
ATOM     13  AN7 A3D d          10.675  24.311  13.994  0.00  0.00    -0.236 NA
ATOM     14  AC5 A3D d          11.787  24.616  13.201  0.00  0.00     0.149 A 
ATOM     15  AC6 A3D d          12.797  23.822  12.632  0.00  0.00     0.155 A 
ATOM     16  AC4 A3D d          11.856  25.981  12.958  0.00  0.00     0.167 A 
ATOM     17  AN1 A3D d          13.727  24.481  11.882  0.00  0.00    -0.222 NA
ATOM     18  AC2 A3D d          13.699  25.818  11.787  0.00  0.00     0.237 A 
ATOM     19  AN3 A3D d          12.791  26.660  12.269  0.00  0.00    -0.222 NA
BRANCH  15  20
ATOM     20  AN6 A3D d          12.919  22.481  12.789  0.00  0.00    -0.382 N 
ATOM     21  H10 A3D d          13.694  21.977  12.334  0.00  0.00     0.157 HD
ATOM     22  H11 A3D d          12.237  21.966  13.364  0.00  0.00     0.157 HD
ENDBRANCH  15  20
ENDBRANCH   8  11
BRANCH   9  23
ATOM     23  AO2 A3D d           8.791  28.020  12.122  0.00  0.00    -0.388 OA
ATOM     24  H7  A3D d           8.958  27.146  11.790  0.00  0.00     0.210 HD
ENDBRANCH   9  23
BRANCH  10  25
ATOM     25  AO3 A3D d           9.471  30.440  13.727  0.00  0.00    -0.390 OA
ATOM     26  H5  A3D d           9.071  30.678  12.899  0.00  0.00     0.210 HD
ENDBRANCH  10  25
ENDBRANCH   5   6
ENDBRANCH   4   5
ENDBRANCH   1   4
BRANCH   1  27
ATOM     27  O3  A3D d           7.060  29.295  19.472  0.00  0.00    -0.180 OA
BRANCH  27  28
ATOM     28  NP  A3D d           7.806  30.290  20.267  0.00  0.00     0.417 P 
ATOM     29  NO1 A3D d           6.608  30.352  21.100  0.00  0.00    -0.624 OA
ATOM     30  NO2 A3D d           8.312  31.528  19.672  0.00  0.00    -0.624 OA
BRANCH  28  31
ATOM     31  NO5 A3D d           8.959  29.543  21.036  0.00  0.00    -0.287 OA
BRANCH  31  32
ATOM     32  NC5 A3D d          10.243  29.948  20.476  0.00  0.00     0.216 C 
BRANCH  32  33
ATOM     33  NC4 A3D d          11.410  29.230  21.156  0.00  0.00     0.180 C 
ATOM     34  NO4 A3D d          12.145  30.088  22.087  0.00  0.00    -0.353 OA
ATOM     35  NC1 A3D d          11.916  29.635  23.441  0.00  0.00     0.259 C 
ATOM     36  NC2 A3D d          10.711  28.703  23.333  0.00  0.00     0.198 C 
ATOM     37  NC3 A3D d          10.912  28.046  21.989  0.00  0.00     0.182 C 
BRANCH  35  38
ATOM     38  NN1 A3D d          11.589  30.752  24.363  0.00  0.00    -0.337 N 
ATOM     39  NC2 A3D d          12.545  31.178  25.190  0.00  0.00     0.104 A 
ATOM     40  NC3 A3D d          12.560  32.214  26.023  0.00  0.00     0.006 A 
ATOM     41  NC4 A3D d          11.377  32.874  25.962  0.00  0.00     0.072 A 
ATOM     42  NC5 A3D d          10.274  32.547  25.170  0.00  0.00    -0.005 A 
ATOM     43  NC6 A3D d          10.383  31.393  24.365  0.00  0.00     0.089 A 
BRANCH  40  44
ATOM     44  NC7 A3D d          13.655  32.505  26.874  0.00  0.00     0.153 C 
ATOM     45  NO7 A3D d          13.471  33.266  27.842  0.00  0.00    -0.293 OA
ATOM     46  NC8 A3D d          14.991  31.776  26.709  0.00  0.00     0.096 C 
ENDBRANCH  40  44
ENDBRANCH  35  38
BRANCH  36  47
ATOM     47  NO2 A3D d          10.713  27.719  24.350  0.00  0.00    -0.388 OA
ATOM     48  H19 A3D d          11.545  27.261  24.344  0.00  0.00     0.210 HD
ENDBRANCH  36  47
BRANCH  37  49
ATOM     49  NO3 A3D d          11.748  26.843  22.089  0.00  0.00    -0.390 OA
ATOM     50  H17 A3D d          11.311  26.199  22.634  0.00  0.00     0.210 HD
ENDBRANCH  37  49
ENDBRANCH  32  33
ENDBRANCH  31  32
ENDBRANCH  28  31
ENDBRANCH  27  28
ENDBRANCH   1  27
TORSDOF 16
