REMARK  15 active torsions:
REMARK  status: ('A' for Active; 'I' for Inactive)
REMARK    1  A    between atoms: O1'_10  and  C1'_1 
REMARK    2  A    between atoms: C2'_2  and  N2'_9 
REMARK    3  A    between atoms: C3'_3  and  O3'_11 
REMARK    4  A    between atoms: C4'_4  and  O4'_12 
REMARK    5  A    between atoms: C5'_5  and  C6'_6 
REMARK    6  A    between atoms: C6'_6  and  O6'_14 
REMARK       I    between atoms: N2'_9  and  C7'_7 
REMARK    7  A    between atoms: PB_37  and  O1'_10 
REMARK    8  A    between atoms: C1B_24  and  N1_16 
REMARK    9  A    between atoms: C2B_25  and  O2'_26 
REMARK   10  A    between atoms: C3B_27  and  O3B_30 
REMARK   11  A    between atoms: C5B_31  and  C4B_28 
REMARK   12  A    between atoms: O5B_32  and  C5B_31 
REMARK   13  A    between atoms: PA_33  and  O5B_32 
REMARK   14  A    between atoms: O3A_36  and  PA_33 
REMARK   15  A    between atoms: O3A_36  and  PB_37 
ROOT
ATOM      1  PA  UD1 d         -38.376   6.532  13.512  0.00  0.00     0.417 P 
ATOM      2  O1A UD1 d         -39.436   7.345  12.932  0.00  0.00    -0.624 OA
ATOM      3  O2A UD1 d         -38.653   6.245  14.912  0.00  0.00    -0.624 OA
ENDROOT
BRANCH   1   4
ATOM      4  O5B UD1 d         -37.034   7.293  13.399  0.00  0.00    -0.287 OA
BRANCH   4   5
ATOM      5  C5B UD1 d         -36.923   8.611  12.781  0.00  0.00     0.216 C 
BRANCH   5   6
ATOM      6  C4B UD1 d         -35.903   9.551  13.475  0.00  0.00     0.180 C 
ATOM      7  C3B UD1 d         -34.403   9.104  13.441  0.00  0.00     0.182 C 
ATOM      8  C2B UD1 d         -34.367   8.281  14.766  0.00  0.00     0.198 C 
ATOM      9  C1B UD1 d         -35.165   9.185  15.647  0.00  0.00     0.263 C 
ATOM     10  O4B UD1 d         -36.279   9.576  14.861  0.00  0.00    -0.353 OA
BRANCH   7  11
ATOM     11  O3B UD1 d         -33.328  10.124  13.524  0.00  0.00    -0.390 OA
ATOM     12  H23 UD1 d         -32.482   9.694  13.491  0.00  0.00     0.210 HD
ENDBRANCH   7  11
BRANCH   8  13
ATOM     13  O2' UD1 d         -33.103   7.667  15.266  0.00  0.00    -0.388 OA
ATOM     14  H20 UD1 d         -32.724   7.124  14.584  0.00  0.00     0.210 HD
ENDBRANCH   8  13
BRANCH   9  15
ATOM     15  N1  UD1 d         -35.666   8.557  16.926  0.00  0.00    -0.280 N 
ATOM     16  C2  UD1 d         -35.175   8.982  18.175  0.00  0.00     0.331 A 
ATOM     17  N3  UD1 d         -35.658   8.365  19.302  0.00  0.00    -0.275 N 
ATOM     18  O2  UD1 d         -34.305   9.907  18.272  0.00  0.00    -0.246 OA
ATOM     19  C4  UD1 d         -36.607   7.341  19.324  0.00  0.00     0.250 A 
ATOM     20  H15 UD1 d         -35.300   8.675  20.183  0.00  0.00     0.173 HD
ATOM     21  C5  UD1 d         -37.105   6.924  18.019  0.00  0.00     0.092 A 
ATOM     22  O4  UD1 d         -36.988   6.832  20.363  0.00  0.00    -0.268 OA
ATOM     23  C6  UD1 d         -36.630   7.527  16.877  0.00  0.00     0.104 A 
ENDBRANCH   9  15
ENDBRANCH   5   6
ENDBRANCH   4   5
ENDBRANCH   1   4
BRANCH   1  24
ATOM     24  O3A UD1 d         -38.425   5.347  12.576  0.00  0.00    -0.180 OA
BRANCH  24  25
ATOM     25  PB  UD1 d         -38.378   3.797  12.894  0.00  0.00     0.420 P 
ATOM     26  O1B UD1 d         -39.570   3.502  13.637  0.00  0.00    -0.624 OA
ATOM     27  O2B UD1 d         -37.177   3.339  13.534  0.00  0.00    -0.624 OA
BRANCH  25  28
ATOM     28  O1' UD1 d         -38.532   3.006  11.525  0.00  0.00    -0.256 OA
BRANCH  28  29
ATOM     29  C1' UD1 d         -39.656   3.228  10.644  0.00  0.00     0.298 C 
ATOM     30  C2' UD1 d         -39.570   2.252   9.445  0.00  0.00     0.171 C 
ATOM     31  C3' UD1 d         -38.373   2.565   8.576  0.00  0.00     0.177 C 
ATOM     32  C4' UD1 d         -38.515   4.000   8.033  0.00  0.00     0.180 C 
ATOM     33  C5' UD1 d         -38.552   4.981   9.236  0.00  0.00     0.179 C 
ATOM     34  O5' UD1 d         -39.706   4.574  10.140  0.00  0.00    -0.348 OA
BRANCH  30  35
ATOM     35  N2' UD1 d         -39.456   0.858   9.960  0.00  0.00    -0.349 N 
ATOM     36  C7' UD1 d         -40.478   0.083  10.378  0.00  0.00     0.214 C 
ATOM     37  C8' UD1 d         -40.061  -1.335  10.848  0.00  0.00     0.117 C 
ATOM     38  O7' UD1 d         -41.618   0.506  10.359  0.00  0.00    -0.274 OA
ATOM     39  H11 UD1 d         -38.539   0.461   9.999  0.00  0.00     0.163 HD
ENDBRANCH  30  35
BRANCH  31  40
ATOM     40  O3' UD1 d         -38.352   1.625   7.446  0.00  0.00    -0.391 OA
ATOM     41  H12 UD1 d         -38.265   0.738   7.775  0.00  0.00     0.210 HD
ENDBRANCH  31  40
BRANCH  32  42
ATOM     42  O4' UD1 d         -37.372   4.443   7.191  0.00  0.00    -0.390 OA
ATOM     43  H13 UD1 d         -37.300   3.875   6.433  0.00  0.00     0.210 HD
ENDBRANCH  32  42
BRANCH  33  44
ATOM     44  C6' UD1 d         -38.717   6.440   8.781  0.00  0.00     0.198 C 
BRANCH  44  45
ATOM     45  O6' UD1 d         -39.978   6.698   8.050  0.00  0.00    -0.398 OA
ATOM     46  H14 UD1 d         -40.016   7.614   7.799  0.00  0.00     0.209 HD
ENDBRANCH  44  45
ENDBRANCH  33  44
ENDBRANCH  28  29
ENDBRANCH  25  28
ENDBRANCH  24  25
ENDBRANCH   1  24
TORSDOF 15
