REMARK  4 active torsions:
REMARK  status: ('A' for Active; 'I' for Inactive)
REMARK    1  A    between atoms: C2'_10  and  O2'_11 
REMARK    2  A    between atoms: C1'_12  and  N9_13 
REMARK    3  A    between atoms: C2'1_32  and  O2'1_33 
REMARK    4  A    between atoms: C1'1_34  and  N91_35 
ROOT
ATOM      1  P   MOL d          -8.674  -7.627  -9.522  0.00  0.00     0.408 P 
ATOM      2  O1P MOL d          -7.866  -8.438  -8.546  0.00  0.00    -0.624 OA
ATOM      3  O2P MOL d          -8.583  -6.176  -9.715  0.00  0.00    -0.624 OA
ATOM      4  O5' MOL d          -8.164  -8.251 -10.973  0.00  0.00    -0.287 OA
ATOM      5  C5' MOL d          -8.435  -7.575 -12.203  0.00  0.00     0.216 C 
ATOM      6  C4' MOL d          -7.847  -8.465 -13.307  0.00  0.00     0.180 C 
ATOM      7  O4' MOL d          -6.411  -8.472 -13.127  0.00  0.00    -0.353 OA
ATOM      8  C3' MOL d          -8.211  -9.933 -13.241  0.00  0.00     0.198 C 
ATOM      9  O3' MOL d          -9.436 -10.322 -13.880  0.00  0.00    -0.279 OA
ATOM     10  C2' MOL d          -6.992 -10.600 -13.832  0.00  0.00     0.199 C 
ATOM     11  C1' MOL d          -5.841  -9.728 -13.409  0.00  0.00     0.262 C 
ATOM     12  P1  MOL d         -10.312 -11.504 -13.278  0.00  0.00     0.408 P 
ATOM     13  O1P MOL d          -9.506 -12.783 -13.094  0.00  0.00    -0.624 OA
ATOM     14  O2P MOL d         -11.438 -11.638 -14.224  0.00  0.00    -0.624 OA
ATOM     15  O5' MOL d         -10.684 -10.923 -11.801  0.00  0.00    -0.287 OA
ATOM     16  C5' MOL d         -11.554  -9.800 -11.660  0.00  0.00     0.216 C 
ATOM     17  C4' MOL d         -11.858  -9.530 -10.205  0.00  0.00     0.180 C 
ATOM     18  O4' MOL d         -12.502 -10.704  -9.676  0.00  0.00    -0.353 OA
ATOM     19  C3' MOL d         -10.622  -9.375  -9.346  0.00  0.00     0.198 C 
ATOM     20  O3' MOL d         -10.207  -8.059  -9.485  0.00  0.00    -0.279 OA
ATOM     21  C2' MOL d         -11.141  -9.729  -7.969  0.00  0.00     0.199 C 
ATOM     22  C1' MOL d         -12.143 -10.826  -8.288  0.00  0.00     0.262 C 
ENDROOT
BRANCH  11  23
ATOM     23  N9  MOL d          -5.068 -10.211 -12.202  0.00  0.00    -0.294 N 
ATOM     24  C8  MOL d          -5.254  -9.847 -10.876  0.00  0.00     0.214 A 
ATOM     25  N7  MOL d          -4.355 -10.440 -10.048  0.00  0.00    -0.236 NA
ATOM     26  C5  MOL d          -3.601 -11.203 -10.877  0.00  0.00     0.149 A 
ATOM     27  C6  MOL d          -2.500 -12.131 -10.665  0.00  0.00     0.155 A 
ATOM     28  C4  MOL d          -4.081 -11.092 -12.243  0.00  0.00     0.167 A 
ATOM     29  N6  MOL d          -2.031 -12.324  -9.438  0.00  0.00    -0.382 N 
ATOM     30  N1  MOL d          -1.973 -12.750 -11.745  0.00  0.00    -0.222 NA
ATOM     31  H   MOL d          -1.252 -12.979  -9.282  0.00  0.00     0.157 HD
ATOM     32  H   MOL d          -2.446 -11.818  -8.643  0.00  0.00     0.157 HD
ATOM     33  C2  MOL d          -2.459 -12.586 -12.979  0.00  0.00     0.237 A 
ATOM     34  N3  MOL d          -3.474 -11.779 -13.253  0.00  0.00    -0.222 NA
ENDBRANCH  11  23
BRANCH  10  35
ATOM     35  O2' MOL d          -7.040 -10.641 -15.268  0.00  0.00    -0.388 OA
ATOM     36  H   MOL d          -6.258 -11.067 -15.598  0.00  0.00     0.210 HD
ENDBRANCH  10  35
BRANCH  21  37
ATOM     37  O2' MOL d         -11.806  -8.599  -7.330  0.00  0.00    -0.388 OA
ATOM     38  H   MOL d         -12.117  -8.860  -6.471  0.00  0.00     0.210 HD
ENDBRANCH  21  37
BRANCH  22  39
ATOM     39  N91 MOL d         -11.624 -12.208  -8.186  0.00  0.00    -0.294 N 
ATOM     40  C81 MOL d         -10.781 -12.818  -9.056  0.00  0.00     0.214 A 
ATOM     41  N71 MOL d         -10.503 -14.096  -8.686  0.00  0.00    -0.236 NA
ATOM     42  C51 MOL d         -11.183 -14.308  -7.575  0.00  0.00     0.149 A 
ATOM     43  C61 MOL d         -11.352 -15.446  -6.635  0.00  0.00     0.155 A 
ATOM     44  C41 MOL d         -11.922 -13.073  -7.256  0.00  0.00     0.167 A 
ATOM     45  N61 MOL d         -10.730 -16.618  -6.842  0.00  0.00    -0.382 N 
ATOM     46  N11 MOL d         -12.131 -15.242  -5.558  0.00  0.00    -0.222 NA
ATOM     47  H   MOL d         -10.861 -17.395  -6.178  0.00  0.00     0.157 HD
ATOM     48  H   MOL d         -10.122 -16.740  -7.665  0.00  0.00     0.157 HD
ATOM     49  C21 MOL d         -12.785 -14.085  -5.325  0.00  0.00     0.237 A 
ATOM     50  N31 MOL d         -12.695 -13.026  -6.145  0.00  0.00    -0.222 NA
ENDBRANCH  22  39
TORSDOF 4
