REMARK  4 active torsions:
REMARK  status: ('A' for Active; 'I' for Inactive)
REMARK    1  A    between atoms: C7_7  and  C1_1 
REMARK    2  A    between atoms: C7_7  and  N1_10 
REMARK    3  A    between atoms: C8_8  and  C9_9 
REMARK    4  A    between atoms: C9_9  and  C8'_20 
ROOT
ATOM      1  C1  BAI d          11.770 -11.841  23.067  0.00  0.00     0.009 A 
ATOM      2  C2  BAI d          12.233 -10.642  22.468  0.00  0.00     0.017 A 
ATOM      3  C3  BAI d          13.239 -10.631  21.499  0.00  0.00     0.035 A 
ATOM      4  C4  BAI d          13.749 -11.861  21.160  0.00  0.00     0.085 A 
ATOM      5  C5  BAI d          13.323 -13.007  21.715  0.00  0.00     0.063 A 
ATOM      6  C6  BAI d          12.341 -13.062  22.664  0.00  0.00     0.047 A 
ATOM      7  C8  BAI d          14.861 -13.467  20.329  0.00  0.00     0.112 A 
ATOM      8  N3  BAI d          14.691 -12.170  20.315  0.00  0.00    -0.233 NA
ATOM      9  N4  BAI d          14.017 -13.978  21.191  0.00  0.00    -0.342 N 
ATOM     10  H10 BAI d          13.918 -14.978  21.416  0.00  0.00     0.167 HD
ENDROOT
BRANCH   7  11
ATOM     11  C9  BAI d          15.934 -14.292  19.475  0.00  0.00     0.157 C 
BRANCH  11  12
ATOM     12  C8' BAI d          16.140 -13.832  17.997  0.00  0.00     0.112 A 
ATOM     13  N4' BAI d          16.638 -12.668  17.739  0.00  0.00    -0.233 NA
ATOM     14  C5' BAI d          16.674 -12.516  16.454  0.00  0.00     0.085 A 
ATOM     15  C4' BAI d          16.179 -13.639  15.893  0.00  0.00     0.062 A 
ATOM     16  C6' BAI d          17.119 -11.419  15.743  0.00  0.00     0.034 A 
ATOM     17  N3' BAI d          15.853 -14.454  16.871  0.00  0.00    -0.342 N 
ATOM     18  C3' BAI d          16.080 -13.784  14.519  0.00  0.00     0.032 A 
ATOM     19  H15 BAI d          15.451 -15.397  16.776  0.00  0.00     0.167 HD
ATOM     20  C2' BAI d          16.521 -12.687  13.739  0.00  0.00     0.002 A 
ATOM     21  C1' BAI d          17.035 -11.517  14.350  0.00  0.00     0.002 A 
ENDBRANCH  11  12
ENDBRANCH   7  11
BRANCH   1  22
ATOM     22  C7  BAI d          10.804 -11.837  24.038  0.00  0.00     0.102 C 
ATOM     23  N2  BAI d          10.579 -10.724  24.698  0.00  0.00    -0.385 N 
ATOM     24  H8  BAI d          11.118  -9.875  24.475  0.00  0.00     0.157 HD
ATOM     25  H9  BAI d           9.864 -10.700  25.439  0.00  0.00     0.157 HD
BRANCH  22  26
ATOM     26  N1  BAI d          10.141 -12.934  24.292  0.00  0.00    -0.385 N 
ATOM     27  H6  BAI d           9.413 -12.939  25.021  0.00  0.00     0.157 HD
ATOM     28  H7  BAI d          10.346 -13.794  23.764  0.00  0.00     0.157 HD
ENDBRANCH  22  26
ENDBRANCH   1  22
TORSDOF 4
