REMARK  2 active torsions:
REMARK  status: ('A' for Active; 'I' for Inactive)
REMARK    1  A    between atoms: C1_1  and  C_7 
REMARK    2  A    between atoms: C_7  and  N1_8 
ROOT
ATOM      1  C   BEN d          53.552  66.067 -27.727  0.00  0.00     0.102 C 
ATOM      2  N2  BEN d          53.149  64.820 -27.877  0.00  0.00    -0.385 N 
ATOM      3  H8  BEN d          52.648  64.540 -28.732  0.00  0.00     0.157 HD
ATOM      4  H9  BEN d          53.335  64.126 -27.139  0.00  0.00     0.157 HD
ENDROOT
BRANCH   1   5
ATOM      5  C1  BEN d          53.274  67.097 -28.838  0.00  0.00     0.007 A 
ATOM      6  C2  BEN d          52.667  66.683 -30.109  0.00  0.00     0.015 A 
ATOM      7  C3  BEN d          52.404  67.656 -31.159  0.00  0.00     0.001 A 
ATOM      8  C4  BEN d          52.745  69.058 -30.954  0.00  0.00     0.000 A 
ATOM      9  C5  BEN d          53.345  69.483 -29.705  0.00  0.00     0.001 A 
ATOM     10  C6  BEN d          53.611  68.509 -28.650  0.00  0.00     0.015 A 
ENDBRANCH   1   5
BRANCH   1  11
ATOM     11  N1  BEN d          54.194  66.437 -26.636  0.00  0.00    -0.385 N 
ATOM     12  H6  BEN d          54.382  65.751 -25.891  0.00  0.00     0.157 HD
ATOM     13  H7  BEN d          54.508  67.412 -26.529  0.00  0.00     0.157 HD
ENDBRANCH   1  11
TORSDOF 2
