REMARK  2 active torsions:
REMARK  status: ('A' for Active; 'I' for Inactive)
REMARK    1  A    between atoms: C7_5  and  C4_1 
REMARK       I    between atoms: N1_10  and  C7_5 
REMARK    2  A    between atoms: C8_6  and  N1_10 
ROOT
ATOM      1  C7  0X2 d          31.935 -13.170   3.513  0.00  0.00     0.259 C 
ATOM      2  N1  0X2 d          33.143 -13.171   2.928  0.00  0.00    -0.326 N 
ATOM      3  O1  0X2 d          31.323 -12.128   3.749  0.00  0.00    -0.267 OA
ATOM      4  H6  0X2 d          33.581 -14.065   2.838  0.00  0.00     0.169 HD
ENDROOT
BRANCH   1   5
ATOM      5  C4  0X2 d          31.372 -14.538   3.879  0.00  0.00     0.075 A 
ATOM      6  C5  0X2 d          31.027 -15.437   2.882  0.00  0.00     0.051 A 
ATOM      7  C6  0X2 d          30.515 -16.703   3.185  0.00  0.00     0.025 A 
ATOM      8 CL1  0X2 d          31.231 -14.959   1.176  0.00  0.00    -0.083 Cl
ATOM      9  C1  0X2 d          30.339 -17.096   4.510  0.00  0.00     0.003 A 
ATOM     10  C2  0X2 d          30.679 -16.207   5.528  0.00  0.00     0.025 A 
ATOM     11  C3  0X2 d          31.191 -14.959   5.182  0.00  0.00     0.051 A 
ATOM     12 CL2  0X2 d          31.612 -13.831   6.455  0.00  0.00    -0.083 Cl
ENDBRANCH   1   5
BRANCH   2  13
ATOM     13  C8  0X2 d          33.877 -12.074   2.423  0.00  0.00     0.022 A 
ATOM     14  C9  0X2 d          35.035 -12.352   1.683  0.00  0.00     0.045 A 
ATOM     15  C10 0X2 d          35.787 -11.314   1.118  0.00  0.00     0.122 A 
ATOM     16  N2  0X2 d          35.384 -10.048   1.259  0.00  0.00    -0.226 NA
ATOM     17  C11 0X2 d          34.266  -9.744   1.968  0.00  0.00     0.248 A 
ATOM     18  C12 0X2 d          33.484 -10.742   2.554  0.00  0.00     0.162 A 
ATOM     19  O2  0X2 d          33.932  -8.549   2.090  0.00  0.00    -0.271 OA
ENDBRANCH   2  13
TORSDOF 2
