REMARK  4 active torsions:
REMARK  status: ('A' for Active; 'I' for Inactive)
REMARK    1  A    between atoms: OH_1  and  CZ3_2 
REMARK    2  A    between atoms: CG_8  and  CB_11 
REMARK    3  A    between atoms: CB_11  and  CA_12 
REMARK    4  A    between atoms: CA_12  and  NZ_13 
ROOT
ATOM      1  CZ3 SRO d          -8.061  33.132 -10.586  0.00  0.00     0.066 A 
ATOM      2  CH2 SRO d          -7.047  33.572  -9.739  0.00  0.00     0.039 A 
ATOM      3  CZ2 SRO d          -6.851  34.939  -9.527  0.00  0.00     0.033 A 
ATOM      4  CE2 SRO d          -7.747  35.806 -10.134  0.00  0.00     0.043 A 
ATOM      5  NE1 SRO d          -7.920  37.152 -10.121  0.00  0.00    -0.365 N 
ATOM      6  CD1 SRO d          -8.958  37.478 -10.927  0.00  0.00     0.096 A 
ATOM      7  CG  SRO d          -9.498  36.304 -11.454  0.00  0.00    -0.029 A 
ATOM      8  CD2 SRO d          -8.739  35.260 -10.931  0.00  0.00     0.001 A 
ATOM      9  CE3 SRO d          -8.880  33.975 -11.140  0.00  0.00     0.050 A 
ATOM     10  H4  SRO d          -7.351  37.821  -9.582  0.00  0.00     0.165 HD
ENDROOT
BRANCH   7  11
ATOM     11  CB  SRO d         -10.695  36.209 -12.368  0.00  0.00     0.068 C 
BRANCH  11  12
ATOM     12  CA  SRO d         -11.865  35.510 -11.648  0.00  0.00     0.234 C 
BRANCH  12  13
ATOM     13  NZ  SRO d         -12.943  35.287 -12.617  0.00  0.00    -0.079 N 
ATOM     14  H11 SRO d         -13.716  34.830 -12.160  0.00  0.00     0.274 HD
ATOM     15  H12 SRO d         -12.605  34.705 -13.368  0.00  0.00     0.274 HD
ATOM     16  H13 SRO d         -13.249  36.172 -12.989  0.00  0.00     0.274 HD
ENDBRANCH  12  13
ENDBRANCH  11  12
ENDBRANCH   7  11
BRANCH   1  17
ATOM     17  OH  SRO d          -8.126  31.785 -10.848  0.00  0.00    -0.361 OA
ATOM     18  H1  SRO d          -8.854  31.612 -11.434  0.00  0.00     0.217 HD
ENDBRANCH   1  17
TORSDOF 4
