REMARK  5 active torsions:
REMARK  status: ('A' for Active; 'I' for Inactive)
REMARK    1  A    between atoms: C2_3  and  O1_2 
REMARK    2  A    between atoms: C4_7  and  O2_4 
REMARK    3  A    between atoms: C12_18  and  O5_10 
REMARK    4  A    between atoms: C13_19  and  O6_12 
REMARK    5  A    between atoms: C10_16  and  C9_15 
ROOT
ATOM      1  C1  LU2 d          19.468  41.143  36.104  0.00  0.00     0.075 A 
ATOM      2  C2  LU2 d          19.342  41.179  34.737  0.00  0.00     0.071 A 
ATOM      3  C3  LU2 d          20.317  41.801  33.952  0.00  0.00     0.074 A 
ATOM      4  O3  LU2 d          23.484  43.564  35.995  0.00  0.00    -0.287 OA
ATOM      5  C4  LU2 d          21.419  42.377  34.557  0.00  0.00     0.085 A 
ATOM      6  O4  LU2 d          20.627  41.662  38.021  0.00  0.00    -0.309 OA
ATOM      7  C5  LU2 d          21.551  42.345  35.948  0.00  0.00     0.081 A 
ATOM      8  C6  LU2 d          20.570  41.738  36.691  0.00  0.00     0.095 A 
ATOM      9  C7  LU2 d          22.617  42.927  36.593  0.00  0.00     0.190 A 
ATOM     10  C8  LU2 d          22.626  42.924  37.967  0.00  0.00     0.094 A 
ATOM     11  C9  LU2 d          21.646  42.244  38.652  0.00  0.00     0.090 A 
ENDROOT
BRANCH  11  12
ATOM     12  C10 LU2 d          21.622  42.192  40.007  0.00  0.00     0.001 A 
ATOM     13  C11 LU2 d          21.507  40.971  40.721  0.00  0.00     0.053 A 
ATOM     14  C12 LU2 d          21.460  40.943  42.106  0.00  0.00     0.099 A 
ATOM     15  C13 LU2 d          21.546  42.213  42.666  0.00  0.00     0.098 A 
ATOM     16  C14 LU2 d          21.658  43.416  41.989  0.00  0.00     0.040 A 
ATOM     17  C15 LU2 d          21.694  43.417  40.637  0.00  0.00     0.017 A 
BRANCH  14  18
ATOM     18  O5  LU2 d          21.315  39.778  42.940  0.00  0.00    -0.358 OA
ATOM     19  H5  LU2 d          21.313  40.042  43.853  0.00  0.00     0.217 HD
ENDBRANCH  14  18
BRANCH  15  20
ATOM     20  O6  LU2 d          21.516  42.299  43.981  0.00  0.00    -0.358 OA
ATOM     21  H6  LU2 d          21.582  43.211  44.239  0.00  0.00     0.217 HD
ENDBRANCH  15  20
ENDBRANCH  11  12
BRANCH   2  22
ATOM     22  O1  LU2 d          18.264  40.647  34.180  0.00  0.00    -0.361 OA
ATOM     23  H2  LU2 d          18.315  40.745  33.236  0.00  0.00     0.217 HD
ENDBRANCH   2  22
BRANCH   5  24
ATOM     24  O2  LU2 d          22.341  42.958  33.782  0.00  0.00    -0.360 OA
ATOM     25  H3  LU2 d          23.036  43.309  34.327  0.00  0.00     0.217 HD
ENDBRANCH   5  24
TORSDOF 5
