REMARK  14 active torsions:
REMARK  status: ('A' for Active; 'I' for Inactive)
REMARK    1  A    between atoms: C2_1  and  O39_38 
REMARK    2  A    between atoms: S8_7  and  C5_4 
REMARK    3  A    between atoms: N11_10  and  S8_7 
REMARK    4  A    between atoms: N11_10  and  C12_11 
REMARK    5  A    between atoms: C16_15  and  N11_10 
REMARK    6  A    between atoms: C12_11  and  C13_12 
REMARK    7  A    between atoms: C17_16  and  C16_15 
REMARK    8  A    between atoms: C17_16  and  O18_17 
REMARK    9  A    between atoms: C19_18  and  C17_16 
REMARK   10  A    between atoms: C19_18  and  N20_19 
REMARK   11  A    between atoms: C32_31  and  C19_18 
REMARK       I    between atoms: N20_19  and  C21_20 
REMARK   12  A    between atoms: C21_20  and  O23_22 
REMARK   13  A    between atoms: O23_22  and  C24_23 
REMARK   14  A    between atoms: C38_37  and  C32_31 
ROOT
ATOM      1  C19 G52 d          14.950  23.032  16.754  0.00  0.00     0.121 C 
ENDROOT
BRANCH   1   2
ATOM      2  C17 G52 d          15.312  24.168  17.706  0.00  0.00     0.160 C 
BRANCH   2   3
ATOM      3  C16 G52 d          16.465  25.045  17.243  0.00  0.00     0.169 C 
BRANCH   3   4
ATOM      4  N11 G52 d          17.709  24.284  17.175  0.00  0.00    -0.304 N 
BRANCH   4   5
ATOM      5  S8  G52 d          18.403  24.084  15.694  0.00  0.00     0.260 S 
ATOM      6  O9  G52 d          17.322  24.004  14.667  0.00  0.00    -0.200 OA
ATOM      7  O10 G52 d          19.315  22.922  15.824  0.00  0.00    -0.200 OA
BRANCH   5   8
ATOM      8  C5  G52 d          19.390  25.481  15.281  0.00  0.00     0.079 C 
ATOM      9  C4  G52 d          18.869  26.578  14.598  0.00  0.00     0.028 C 
ATOM     10  C3  G52 d          19.664  27.699  14.390  0.00  0.00     0.038 C 
ATOM     11  C2  G52 d          21.001  27.716  14.781  0.00  0.00     0.068 C 
ATOM     12  C7  G52 d          21.574  26.558  15.309  0.00  0.00     0.038 C 
ATOM     13  C6  G52 d          20.737  25.479  15.586  0.00  0.00     0.028 C 
BRANCH  11  14
ATOM     14  O39 G52 d          21.713  28.862  14.577  0.00  0.00    -0.356 OA
ATOM     15  C40 G52 d          23.046  28.754  15.025  0.00  0.00     0.210 C 
ENDBRANCH  11  14
ENDBRANCH   5   8
ENDBRANCH   4   5
BRANCH   4  16
ATOM     16  C12 G52 d          18.659  24.544  18.244  0.00  0.00     0.139 C 
BRANCH  16  17
ATOM     17  C13 G52 d          18.317  23.895  19.582  0.00  0.00    -0.004 C 
ATOM     18  C14 G52 d          18.211  22.373  19.559  0.00  0.00     0.011 C 
ATOM     19  C15 G52 d          19.394  24.292  20.611  0.00  0.00     0.011 C 
ENDBRANCH  16  17
ENDBRANCH   4  16
ENDBRANCH   3   4
ENDBRANCH   2   3
BRANCH   2  20
ATOM     20  O18 G52 d          14.168  24.975  17.992  0.00  0.00    -0.392 OA
ATOM     21  H17 G52 d          13.454  24.419  18.280  0.00  0.00     0.210 HD
ENDBRANCH   2  20
ENDBRANCH   1   2
BRANCH   1  22
ATOM     22  N20 G52 d          14.021  22.098  17.378  0.00  0.00    -0.329 N 
ATOM     23  C21 G52 d          14.271  20.836  17.717  0.00  0.00     0.361 C 
ATOM     24  O22 G52 d          15.390  20.329  17.512  0.00  0.00    -0.238 OA
ATOM     25  H19 G52 d          13.102  22.441  17.571  0.00  0.00     0.165 HD
BRANCH  23  26
ATOM     26  O23 G52 d          13.215  20.222  18.314  0.00  0.00    -0.296 OA
BRANCH  26  27
ATOM     27  C24 G52 d          13.408  18.838  18.587  0.00  0.00     0.166 C 
ATOM     28  C25 G52 d          12.887  18.580  19.991  0.00  0.00     0.204 C 
ATOM     29  O26 G52 d          11.459  18.498  19.875  0.00  0.00    -0.358 OA
ATOM     30  C27 G52 d          11.131  18.154  18.552  0.00  0.00     0.270 C 
ATOM     31  O28 G52 d          10.399  19.241  17.955  0.00  0.00    -0.331 OA
ATOM     32  C31 G52 d          12.408  18.015  17.744  0.00  0.00     0.082 C 
ATOM     33  C29 G52 d          10.939  19.619  16.716  0.00  0.00     0.267 C 
ATOM     34  C30 G52 d          12.078  18.649  16.406  0.00  0.00     0.054 C 
ATOM     35  O41 G52 d           9.922  19.392  15.703  0.00  0.00    -0.361 OA
ATOM     36  C43 G52 d          11.454  17.681  15.410  0.00  0.00     0.036 C 
ATOM     37  C42 G52 d           9.950  17.952  15.514  0.00  0.00     0.171 C 
ENDBRANCH  26  27
ENDBRANCH  23  26
ENDBRANCH   1  22
BRANCH   1  38
ATOM     38  C32 G52 d          14.282  23.531  15.488  0.00  0.00     0.066 C 
BRANCH  38  39
ATOM     39  C38 G52 d          13.970  22.360  14.534  0.00  0.00    -0.056 A 
ATOM     40  C33 G52 d          12.661  21.931  14.370  0.00  0.00     0.007 A 
ATOM     41  C34 G52 d          12.328  20.861  13.535  0.00  0.00     0.001 A 
ATOM     42  C35 G52 d          13.357  20.264  12.810  0.00  0.00     0.000 A 
ATOM     43  C36 G52 d          14.670  20.669  13.005  0.00  0.00     0.001 A 
ATOM     44  C37 G52 d          14.989  21.731  13.852  0.00  0.00     0.007 A 
ENDBRANCH  38  39
ENDBRANCH   1  38
TORSDOF 14
