REMARK  14 active torsions:
REMARK  status: ('A' for Active; 'I' for Inactive)
REMARK       I    between atoms: N1_26  and  C3_3 
REMARK    1  A    between atoms: C3_3  and  O1_29 
REMARK    2  A    between atoms: O1_29  and  C4_4 
REMARK    3  A    between atoms: C6_6  and  C5_5 
REMARK    4  A    between atoms: C5_5  and  C7_7 
REMARK    5  A    between atoms: C5_5  and  N1_26 
REMARK    6  A    between atoms: C14_14  and  C6_6 
REMARK    7  A    between atoms: C6_6  and  O3_31 
REMARK    8  A    between atoms: C7_7  and  C8_8 
REMARK    9  A    between atoms: N2_27  and  C14_14 
REMARK   10  A    between atoms: C15_15  and  C16_16 
REMARK   11  A    between atoms: N2_27  and  C15_15 
REMARK   12  A    between atoms: S1_35  and  C17_17 
REMARK   13  A    between atoms: C20_20  and  N3_28 
REMARK   14  A    between atoms: N2_27  and  S1_35 
ROOT
ATOM      1  C6  MOL d         -15.243 -18.894 -17.897  0.00  0.00     0.160 C 
ENDROOT
BRANCH   1   2
ATOM      2  C5  MOL d         -14.812 -19.974 -16.922  0.00  0.00     0.121 C 
BRANCH   2   3
ATOM      3  C7  MOL d         -14.111 -19.466 -15.639  0.00  0.00     0.066 C 
BRANCH   3   4
ATOM      4  C8  MOL d         -13.757 -20.546 -14.676  0.00  0.00    -0.056 A 
ATOM      5  C9  MOL d         -12.464 -21.016 -14.627  0.00  0.00     0.007 A 
ATOM      6  C11 MOL d         -12.155 -22.080 -13.781  0.00  0.00     0.001 A 
ATOM      7  C13 MOL d         -13.164 -22.630 -13.004  0.00  0.00     0.000 A 
ATOM      8  C12 MOL d         -14.448 -22.137 -12.947  0.00  0.00     0.001 A 
ATOM      9  C10 MOL d         -14.722 -21.109 -13.823  0.00  0.00     0.007 A 
ENDBRANCH   3   4
ENDBRANCH   2   3
BRANCH   2  10
ATOM     10  N1  MOL d         -13.863 -20.904 -17.562  0.00  0.00    -0.329 N 
ATOM     11  C3  MOL d         -14.150 -22.104 -18.007  0.00  0.00     0.361 C 
ATOM     12  O2  MOL d         -15.262 -22.623 -17.967  0.00  0.00    -0.238 OA
ATOM     13  H32 MOL d         -12.918 -20.593 -17.666  0.00  0.00     0.165 HD
BRANCH  11  14
ATOM     14  O1  MOL d         -13.071 -22.743 -18.493  0.00  0.00    -0.296 OA
BRANCH  14  15
ATOM     15  C4  MOL d         -13.329 -24.065 -19.043  0.00  0.00     0.159 C 
ATOM     16  C1  MOL d         -11.990 -24.688 -19.397  0.00  0.00     0.200 C 
ATOM     17  O6  MOL d         -11.683 -24.178 -20.715  0.00  0.00    -0.389 OA
ATOM     18  C25 MOL d         -12.891 -24.302 -21.437  0.00  0.00     0.170 C 
ATOM     19  C2  MOL d         -13.915 -23.822 -20.454  0.00  0.00     0.061 C 
ENDBRANCH  14  15
ENDBRANCH  11  14
ENDBRANCH   2  10
ENDBRANCH   1   2
BRANCH   1  20
ATOM     20  C14 MOL d         -16.341 -17.999 -17.319  0.00  0.00     0.169 C 
BRANCH  20  21
ATOM     21  N2  MOL d         -17.626 -18.676 -17.308  0.00  0.00    -0.304 N 
BRANCH  21  22
ATOM     22  C15 MOL d         -18.520 -18.282 -18.375  0.00  0.00     0.139 C 
BRANCH  22  23
ATOM     23  C16 MOL d         -18.244 -18.908 -19.756  0.00  0.00    -0.004 C 
ATOM     24  C23 MOL d         -18.364 -20.425 -19.760  0.00  0.00     0.011 C 
ATOM     25  C24 MOL d         -19.330 -18.364 -20.730  0.00  0.00     0.011 C 
ENDBRANCH  22  23
ENDBRANCH  21  22
BRANCH  21  26
ATOM     26  S1  MOL d         -18.326 -18.954 -15.822  0.00  0.00     0.260 S 
ATOM     27  O4  MOL d         -17.194 -19.207 -14.859  0.00  0.00    -0.200 OA
ATOM     28  O5  MOL d         -19.294 -20.014 -16.047  0.00  0.00    -0.200 OA
BRANCH  26  29
ATOM     29  C17 MOL d         -19.165 -17.565 -15.185  0.00  0.00     0.079 C 
ATOM     30  C18 MOL d         -18.500 -16.637 -14.399  0.00  0.00     0.027 C 
ATOM     31  C19 MOL d         -19.163 -15.469 -14.071  0.00  0.00     0.030 C 
ATOM     32  C20 MOL d         -20.416 -15.146 -14.470  0.00  0.00     0.025 C 
ATOM     33  C21 MOL d         -21.148 -16.132 -15.135  0.00  0.00     0.030 C 
ATOM     34  C22 MOL d         -20.464 -17.283 -15.560  0.00  0.00     0.027 C 
BRANCH  32  35
ATOM     35  N3  MOL d         -21.046 -14.039 -14.048  0.00  0.00    -0.399 N 
ATOM     36  H33 MOL d         -20.520 -13.303 -13.556  0.00  0.00     0.156 HD
ATOM     37  H34 MOL d         -22.056 -13.925 -14.216  0.00  0.00     0.156 HD
ENDBRANCH  32  35
ENDBRANCH  26  29
ENDBRANCH  21  26
ENDBRANCH  20  21
ENDBRANCH   1  20
BRANCH   1  38
ATOM     38  O3  MOL d         -14.147 -18.006 -18.234  0.00  0.00    -0.392 OA
ATOM     39  H35 MOL d         -13.432 -18.513 -18.600  0.00  0.00     0.210 HD
ENDBRANCH   1  38
TORSDOF 14
