REMARK  7 active torsions:
REMARK  status: ('A' for Active; 'I' for Inactive)
REMARK    1  A    between atoms: C1_1  and  S_7 
REMARK    2  A    between atoms: C4_4  and  C7_11 
REMARK    3  A    between atoms: S_7  and  N_10 
REMARK    4  A    between atoms: C7_11  and  C8_12 
REMARK    5  A    between atoms: C8_12  and  C9_13 
REMARK    6  A    between atoms: C9_13  and  O3_14 
REMARK    7  A    between atoms: O3_14  and  C10_16 
ROOT
ATOM      1  C1  M29 d         -17.345  -0.094 -19.452  0.00  0.00     0.079 A 
ATOM      2  C2  M29 d         -18.099   1.118 -19.632  0.00  0.00     0.026 A 
ATOM      3  C3  M29 d         -18.753   1.717 -18.530  0.00  0.00     0.009 A 
ATOM      4  C4  M29 d         -18.673   1.135 -17.243  0.00  0.00    -0.058 A 
ATOM      5  C5  M29 d         -17.935  -0.043 -17.052  0.00  0.00     0.009 A 
ATOM      6  C6  M29 d         -17.266  -0.664 -18.159  0.00  0.00     0.026 A 
ENDROOT
BRANCH   4   7
ATOM      7  C7  M29 d         -19.390   1.751 -16.077  0.00  0.00     0.048 C 
BRANCH   7   8
ATOM      8  C8  M29 d         -18.759   3.013 -15.528  0.00  0.00     0.116 C 
BRANCH   8   9
ATOM      9  C9  M29 d         -19.459   3.679 -14.362  0.00  0.00     0.259 C 
ATOM     10  O4  M29 d         -20.462   3.210 -13.895  0.00  0.00    -0.265 OA
BRANCH   9  11
ATOM     11  O3  M29 d         -18.860   4.842 -13.948  0.00  0.00    -0.322 OA
BRANCH  11  12
ATOM     12  C10 M29 d         -19.496   5.563 -12.858  0.00  0.00     0.174 C 
ATOM     13  C11 M29 d         -18.757   6.889 -12.757  0.00  0.00     0.034 C 
ENDBRANCH  11  12
ENDBRANCH   9  11
ENDBRANCH   8   9
ENDBRANCH   7   8
ENDBRANCH   4   7
BRANCH   1  14
ATOM     14  S   M29 d         -16.543  -0.861 -20.819  0.00  0.00     0.256 S 
ATOM     15  O1  M29 d         -16.217   0.208 -21.732  0.00  0.00    -0.201 OA
ATOM     16  O2  M29 d         -17.519  -1.837 -21.290  0.00  0.00    -0.201 OA
BRANCH  14  17
ATOM     17  N   M29 d         -15.232  -1.614 -20.281  0.00  0.00    -0.324 N 
ATOM     18  H5  M29 d         -14.644  -2.111 -20.919  0.00  0.00     0.169 HD
ATOM     19  H6  M29 d         -15.004  -1.586 -19.308  0.00  0.00     0.169 HD
ENDBRANCH  14  17
ENDBRANCH   1  14
TORSDOF 7
