REMARK  6 active torsions:
REMARK  status: ('A' for Active; 'I' for Inactive)
REMARK    1  A    between atoms: C1_1  and  S1_4 
REMARK    2  A    between atoms: S1_4  and  N1_2 
REMARK    3  A    between atoms: N7_14  and  C4_9 
REMARK       I    between atoms: C7_13  and  N7_14 
REMARK    4  A    between atoms: C8_15  and  C7_13 
REMARK    5  A    between atoms: C9_16  and  C8_15 
REMARK    6  A    between atoms: C15_22  and  O19_26 
ROOT
ATOM      1  O3  SU0 d          -4.598   6.903  12.810  0.00  0.00    -0.273 OA
ATOM      2  C7  SU0 d          -3.410   6.597  12.671  0.00  0.00     0.226 C 
ATOM      3  N7  SU0 d          -2.885   5.547  13.481  0.00  0.00    -0.327 N 
ATOM      4  H7  SU0 d          -1.894   5.438  13.560  0.00  0.00     0.169 HD
ENDROOT
BRANCH   2   5
ATOM      5  C8  SU0 d          -2.382   7.399  11.887  0.00  0.00     0.142 C 
BRANCH   5   6
ATOM      6  C9  SU0 d          -1.977   8.605  12.685  0.00  0.00    -0.031 C 
ATOM      7  C10 SU0 d          -1.224   8.534  13.861  0.00  0.00     0.091 C 
ATOM      8  C11 SU0 d          -0.776   9.709  14.483  0.00  0.00     0.288 C 
ATOM      9  O4  SU0 d          -0.088   9.664  15.499  0.00  0.00    -0.260 OA
ATOM     10  O12 SU0 d          -1.007  11.000  14.025  0.00  0.00    -0.275 OA
ATOM     11  C13 SU0 d          -1.897  11.092  12.923  0.00  0.00     0.092 A 
ATOM     12  C14 SU0 d          -2.348  12.446  12.552  0.00  0.00     0.075 A 
ATOM     13  C18 SU0 d          -2.427   9.960  12.289  0.00  0.00     0.005 A 
ATOM     14  C15 SU0 d          -3.237  12.617  11.522  0.00  0.00     0.070 A 
ATOM     15  C16 SU0 d          -3.810  11.406  10.833  0.00  0.00     0.038 A 
ATOM     16  C17 SU0 d          -3.409  10.137  11.183  0.00  0.00     0.017 A 
BRANCH  14  17
ATOM     17  O19 SU0 d          -3.618  13.911  11.119  0.00  0.00    -0.356 OA
ATOM     18  C20 SU0 d          -2.772  15.080  11.216  0.00  0.00     0.210 C 
ENDBRANCH  14  17
ENDBRANCH   5   6
ENDBRANCH   2   5
BRANCH   3  19
ATOM     19  C4  SU0 d          -3.754   4.640  14.187  0.00  0.00     0.034 A 
ATOM     20  C3  SU0 d          -2.984   3.510  14.714  0.00  0.00     0.031 A 
ATOM     21  C2  SU0 d          -3.617   2.550  15.446  0.00  0.00     0.027 A 
ATOM     22  C1  SU0 d          -5.075   2.680  15.691  0.00  0.00     0.079 A 
ATOM     23  C6  SU0 d          -5.811   3.719  15.186  0.00  0.00     0.027 A 
ATOM     24  C5  SU0 d          -5.117   4.765  14.378  0.00  0.00     0.031 A 
BRANCH  22  25
ATOM     25  S1  SU0 d          -5.798   1.374  16.636  0.00  0.00     0.256 S 
ATOM     26  O1  SU0 d          -7.210   1.406  16.513  0.00  0.00    -0.201 OA
ATOM     27  O2  SU0 d          -5.303   1.577  17.974  0.00  0.00    -0.201 OA
BRANCH  25  28
ATOM     28  N1  SU0 d          -5.106   0.091  15.993  0.00  0.00    -0.324 N 
ATOM     29  H1  SU0 d          -5.328  -0.822  16.336  0.00  0.00     0.169 HD
ATOM     30  H2  SU0 d          -4.449   0.198  15.246  0.00  0.00     0.169 HD
ENDBRANCH  25  28
ENDBRANCH  22  25
ENDBRANCH   3  19
TORSDOF 6
