REMARK  2 active torsions:
REMARK  status: ('A' for Active; 'I' for Inactive)
REMARK    1  A    between atoms: N_1  and  C_2 
REMARK    2  A    between atoms: C_2  and  C1_3 
ROOT
ATOM      1  C1  ABN d          28.858  15.677  16.147  0.00  0.00    -0.033 C 
ATOM      2  C2  ABN d          28.990  14.300  16.213  0.00  0.00     0.009 C 
ATOM      3  C3  ABN d          28.811  13.517  17.389  0.00  0.00     0.001 C 
ATOM      4  C4  ABN d          28.649  14.139  18.667  0.00  0.00     0.000 C 
ATOM      5  C5  ABN d          28.520  15.485  18.602  0.00  0.00     0.001 C 
ATOM      6  C6  ABN d          28.670  16.256  17.441  0.00  0.00     0.009 C 
ENDROOT
BRANCH   1   7
ATOM      7  C   ABN d          28.953  16.489  14.952  0.00  0.00     0.268 C 
BRANCH   7   8
ATOM      8  N   ABN d          30.244  16.372  14.355  0.00  0.00    -0.075 N 
ATOM      9  H1  ABN d          30.284  16.945  13.527  0.00  0.00     0.274 HD
ATOM     10  H2  ABN d          30.413  15.410  14.106  0.00  0.00     0.274 HD
ATOM     11  H3  ABN d          30.946  16.678  15.010  0.00  0.00     0.274 HD
ENDBRANCH   7   8
ENDBRANCH   1   7
TORSDOF 2
