REMARK  4 active torsions:
REMARK  status: ('A' for Active; 'I' for Inactive)
REMARK    1  A    between atoms: C1_1  and  C2_2 
REMARK    2  A    between atoms: C1_1  and  N_10 
REMARK    3  A    between atoms: C2_2  and  C3_3 
REMARK    4  A    between atoms: C3_3  and  C1'_4 
ROOT
ATOM      1  C3  PRA d          22.699  14.684  59.355  0.00  0.00     0.040 C 
ENDROOT
BRANCH   1   2
ATOM      2  C2  PRA d          22.720  16.066  58.722  0.00  0.00     0.032 C 
BRANCH   2   3
ATOM      3  C1  PRA d          24.057  16.364  58.061  0.00  0.00     0.230 C 
BRANCH   3   4
ATOM      4  N   PRA d          24.267  17.820  57.773  0.00  0.00    -0.079 N 
ATOM      5  H12 PRA d          25.167  17.950  57.337  0.00  0.00     0.274 HD
ATOM      6  H13 PRA d          24.233  18.341  58.635  0.00  0.00     0.274 HD
ATOM      7  H14 PRA d          23.543  18.148  57.153  0.00  0.00     0.274 HD
ENDBRANCH   3   4
ENDBRANCH   2   3
ENDBRANCH   1   2
BRANCH   1   8
ATOM      8  C1' PRA d          22.271  13.543  58.467  0.00  0.00    -0.058 A 
ATOM      9  C2' PRA d          23.121  13.036  57.480  0.00  0.00     0.007 A 
ATOM     10  C3' PRA d          22.734  11.928  56.679  0.00  0.00     0.001 A 
ATOM     11  C4' PRA d          21.484  11.327  56.870  0.00  0.00     0.000 A 
ATOM     12  C5' PRA d          20.623  11.829  57.854  0.00  0.00     0.001 A 
ATOM     13  C6' PRA d          21.024  12.936  58.647  0.00  0.00     0.007 A 
ENDBRANCH   1   8
TORSDOF 4
