REMARK  10 active torsions:
REMARK  status: ('A' for Active; 'I' for Inactive)
REMARK    1  A    between atoms: C18_2  and  C20_3 
REMARK       I    between atoms: C18_2  and  N9_12 
REMARK    2  A    between atoms: C20_3  and  C21_4 
REMARK    3  A    between atoms: C20_3  and  S26_11 
REMARK    4  A    between atoms: C21_4  and  C23_5 
REMARK    5  A    between atoms: N9_12  and  C2_13 
REMARK    6  A    between atoms: C2_13  and  C11_14 
REMARK    7  A    between atoms: C2_13  and  C1_22 
REMARK       I    between atoms: C11_14  and  N13_16 
REMARK    8  A    between atoms: N13_16  and  C14_17 
REMARK    9  A    between atoms: C14_17  and  C15_18 
REMARK   10  A    between atoms: C1_22  and  C3_23 
ROOT
ATOM      1  C2  OIR d          30.114  44.386  33.158  0.00  0.00     0.180 C 
ENDROOT
BRANCH   1   2
ATOM      2  N9  OIR d          29.175  43.941  32.137  0.00  0.00    -0.346 N 
ATOM      3  C18 OIR d          29.684  43.069  31.277  0.00  0.00     0.232 C 
ATOM      4  O19 OIR d          30.852  42.722  31.325  0.00  0.00    -0.272 OA
ATOM      5  H10 OIR d          28.230  44.264  32.089  0.00  0.00     0.163 HD
BRANCH   3   6
ATOM      6  C20 OIR d          28.821  42.520  30.190  0.00  0.00     0.140 C 
BRANCH   6   7
ATOM      7  C21 OIR d          27.349  42.503  30.575  0.00  0.00     0.063 C 
BRANCH   7   8
ATOM      8  C23 OIR d          26.981  41.075  30.905  0.00  0.00    -0.057 A 
ATOM      9  C24 OIR d          25.765  40.780  31.507  0.00  0.00     0.007 A 
ATOM     10  C25 OIR d          25.443  39.464  31.813  0.00  0.00     0.001 A 
ATOM     11  C26 OIR d          26.336  38.440  31.515  0.00  0.00     0.000 A 
ATOM     12  C27 OIR d          27.550  38.735  30.911  0.00  0.00     0.001 A 
ATOM     13  C28 OIR d          27.873  40.053  30.608  0.00  0.00     0.007 A 
ENDBRANCH   7   8
ENDBRANCH   6   7
BRANCH   6  14
ATOM     14  S26 OIR d          29.104  43.579  28.762  0.00  0.00    -0.168 SA
ATOM     15  H9  OIR d          30.085  43.572  28.529  0.00  0.00     0.102 HD
ENDBRANCH   6  14
ENDBRANCH   3   6
ENDBRANCH   1   2
BRANCH   1  16
ATOM     16  C11 OIR d          30.343  43.305  34.183  0.00  0.00     0.241 C 
ATOM     17  O12 OIR d          31.478  43.015  34.498  0.00  0.00    -0.271 OA
ATOM     18  N13 OIR d          29.279  42.699  34.691  0.00  0.00    -0.345 N 
ATOM     19  H12 OIR d          28.380  42.868  34.287  0.00  0.00     0.163 HD
BRANCH  18  20
ATOM     20  C14 OIR d          29.392  41.793  35.825  0.00  0.00     0.181 C 
ATOM     21  C19 OIR d          29.057  42.540  37.114  0.00  0.00     0.043 C 
BRANCH  20  22
ATOM     22  C15 OIR d          28.464  40.623  35.667  0.00  0.00     0.196 C 
ATOM     23  O16 OIR d          27.503  40.732  34.924  0.00  0.00    -0.646 OA
ATOM     24  O17 OIR d          28.662  39.570  36.262  0.00  0.00    -0.646 OA
ENDBRANCH  20  22
ENDBRANCH  18  20
ENDBRANCH   1  16
BRANCH   1  25
ATOM     25  C1  OIR d          29.613  45.673  33.811  0.00  0.00     0.073 C 
BRANCH  25  26
ATOM     26  C3  OIR d          30.788  46.213  34.597  0.00  0.00    -0.056 A 
ATOM     27  C4  OIR d          30.710  46.379  35.977  0.00  0.00     0.007 A 
ATOM     28  C5  OIR d          31.803  46.866  36.687  0.00  0.00     0.001 A 
ATOM     29  C6  OIR d          32.982  47.177  36.020  0.00  0.00     0.000 A 
ATOM     30  C7  OIR d          33.062  47.007  34.647  0.00  0.00     0.001 A 
ATOM     31  C8  OIR d          31.970  46.527  33.936  0.00  0.00     0.007 A 
ENDBRANCH  25  26
ENDBRANCH   1  25
TORSDOF 10
