REMARK  6 active torsions:
REMARK  status: ('A' for Active; 'I' for Inactive)
REMARK    1  A    between atoms: N1_2  and  C1_1 
REMARK    2  A    between atoms: C9_16  and  N3_7 
REMARK       I    between atoms: N3_7  and  C11_19 
REMARK    3  A    between atoms: C4_8  and  O4_9 
REMARK    4  A    between atoms: C5_10  and  C6_12 
REMARK    5  A    between atoms: C6_12  and  O6_13 
REMARK    6  A    between atoms: C11_19  and  C12_21 
ROOT
ATOM      1  N1  DK5 d          34.441  23.754  28.899  0.00  0.00    -0.281 N 
ATOM      2  N2  DK5 d          34.643  24.807  31.020  0.00  0.00    -0.176 NA
ATOM      3  C7  DK5 d          35.842  23.831  28.715  0.00  0.00     0.102 A 
ATOM      4  C8  DK5 d          36.622  24.429  29.717  0.00  0.00     0.068 A 
ATOM      5  C9  DK5 d          35.978  24.922  30.875  0.00  0.00     0.137 A 
ATOM      6  C10 DK5 d          33.864  24.245  30.079  0.00  0.00     0.352 A 
ATOM      7  O10 DK5 d          32.638  24.170  30.240  0.00  0.00    -0.244 OA
ENDROOT
BRANCH   1   8
ATOM      8  C1  DK5 d          33.522  23.129  27.909  0.00  0.00     0.235 C 
ATOM      9  C2  DK5 d          33.794  23.413  26.409  0.00  0.00     0.094 C 
ATOM     10  C3  DK5 d          32.859  22.581  25.504  0.00  0.00     0.205 C 
ATOM     11  F3  DK5 d          33.379  22.490  24.234  0.00  0.00    -0.246 F 
ATOM     12  C4  DK5 d          32.601  21.153  26.020  0.00  0.00     0.183 C 
ATOM     13  C5  DK5 d          32.362  21.075  27.548  0.00  0.00     0.179 C 
ATOM     14  O5  DK5 d          33.475  21.700  28.234  0.00  0.00    -0.356 OA
BRANCH  12  15
ATOM     15  O4  DK5 d          31.459  20.644  25.320  0.00  0.00    -0.390 OA
ATOM     16  H7  DK5 d          31.274  19.761  25.618  0.00  0.00     0.210 HD
ENDBRANCH  12  15
BRANCH  13  17
ATOM     17  C6  DK5 d          32.295  19.607  28.018  0.00  0.00     0.198 C 
BRANCH  17  18
ATOM     18  O6  DK5 d          33.463  18.911  27.545  0.00  0.00    -0.398 OA
ATOM     19  H11 DK5 d          34.242  19.326  27.897  0.00  0.00     0.209 HD
ENDBRANCH  17  18
ENDBRANCH  13  17
ENDBRANCH   1   8
BRANCH   5  20
ATOM     20  N3  DK5 d          36.635  25.508  31.895  0.00  0.00    -0.307 N 
ATOM     21  C11 DK5 d          37.904  25.959  31.830  0.00  0.00     0.257 C 
ATOM     22  O11 DK5 d          38.627  25.885  30.832  0.00  0.00    -0.267 OA
ATOM     23  H5  DK5 d          36.147  25.616  32.761  0.00  0.00     0.170 HD
BRANCH  21  24
ATOM     24  C12 DK5 d          38.437  26.606  33.123  0.00  0.00     0.032 A 
ATOM     25  C13 DK5 d          39.381  27.640  33.038  0.00  0.00     0.017 A 
ATOM     26  C14 DK5 d          39.879  28.237  34.201  0.00  0.00     0.001 A 
ATOM     27  C15 DK5 d          39.428  27.810  35.452  0.00  0.00     0.000 A 
ATOM     28  C16 DK5 d          38.481  26.788  35.534  0.00  0.00     0.001 A 
ATOM     29  C17 DK5 d          37.989  26.183  34.373  0.00  0.00     0.017 A 
ENDBRANCH  21  24
ENDBRANCH   5  20
TORSDOF 6
