REMARK  6 active torsions:
REMARK  status: ('A' for Active; 'I' for Inactive)
REMARK    1  A    between atoms: P_2  and  O5'_5 
REMARK    2  A    between atoms: O5'_5  and  C5'_6 
REMARK    3  A    between atoms: C5'_6  and  C4'_7 
REMARK    4  A    between atoms: C3'_9  and  O3'_10 
REMARK    5  A    between atoms: C1'_12  and  N9_13 
REMARK    6  A    between atoms: C2_20  and  N2_21 
ROOT
ATOM      1  N9  MOL d          -4.820  -0.256  27.380  0.00  0.00    -0.252 N 
ATOM      2  C8  MOL d          -3.815  -0.428  28.299  0.00  0.00     0.353 A 
ATOM      3  N7  MOL d          -2.715   0.140  28.014  0.00  0.00    -0.184 NA
ATOM      4  C5  MOL d          -2.930   0.776  26.787  0.00  0.00     0.177 A 
ATOM      5  C6  MOL d          -2.081   1.577  25.957  0.00  0.00     0.292 A 
ATOM      6  O6  MOL d          -0.913   1.894  26.152  0.00  0.00    -0.265 OA
ATOM      7  N1  MOL d          -2.743   2.011  24.788  0.00  0.00    -0.151 N 
ATOM      8  C2  MOL d          -4.068   1.719  24.449  0.00  0.00     0.724 A 
ATOM      9  N3  MOL d          -4.879   0.969  25.230  0.00  0.00    -0.042 NA
ATOM     10  C4  MOL d          -4.258   0.531  26.376  0.00  0.00     0.190 A 
ATOM     11  O8  MOL d          -4.032  -1.102  29.322  0.00  0.00    -0.244 OA
ATOM     12  H9  MOL d          -2.220   2.575  24.148  0.00  0.00     0.188 HD
ENDROOT
BRANCH   1  13
ATOM     13  C1' MOL d          -6.180  -0.832  27.525  0.00  0.00     0.237 C 
ATOM     14  O4' MOL d          -6.584  -1.490  26.307  0.00  0.00    -0.356 OA
ATOM     15  C4' MOL d          -7.953  -1.144  26.007  0.00  0.00     0.177 C 
ATOM     16  C3' MOL d          -8.457  -0.303  27.175  0.00  0.00     0.153 C 
ATOM     17  C2' MOL d          -7.213   0.258  27.786  0.00  0.00     0.088 C 
BRANCH  15  18
ATOM     18  C5' MOL d          -8.049  -0.402  24.669  0.00  0.00     0.217 C 
BRANCH  18  19
ATOM     19  O5' MOL d          -9.379  -0.463  24.137  0.00  0.00    -0.280 OA
BRANCH  19  20
ATOM     20  P   MOL d         -10.075   0.826  23.477  0.00  0.00     0.422 P 
ATOM     21  OP3 MOL d         -11.528   0.538  23.417  0.00  0.00    -0.617 OA
ATOM     22  OP1 MOL d          -9.892   1.988  24.375  0.00  0.00    -0.617 OA
ATOM     23  OP2 MOL d          -9.593   0.935  22.086  0.00  0.00    -0.617 OA
ENDBRANCH  19  20
ENDBRANCH  18  19
ENDBRANCH  15  18
BRANCH  16  24
ATOM     24  O3' MOL d          -9.188  -1.133  28.093  0.00  0.00    -0.393 OA
ATOM     25  H5  MOL d          -9.499  -0.604  28.818  0.00  0.00     0.210 HD
ENDBRANCH  16  24
ENDBRANCH   1  13
BRANCH   8  26
ATOM     26  N2  MOL d          -4.522   2.216  23.295  0.00  0.00    -0.116 NA
ATOM     27  H10 MOL d          -5.470   2.034  23.006  0.00  0.00     0.206 HD
ENDBRANCH   8  26
TORSDOF 6
