REMARK  1 active torsions:
REMARK  status: ('A' for Active; 'I' for Inactive)
REMARK    1  A    between atoms: C9_3  and  C10_4 
ROOT
ATOM      1  C2  TMG d          24.347 -13.385   8.308  0.00  0.00     0.086 C 
ATOM      2  N7  TMG d          23.439 -12.544   7.785  0.00  0.00    -0.227 NA
ATOM      3  C9  TMG d          23.806 -12.177   6.606  0.00  0.00     0.158 C 
ATOM      4  N8  TMG d          25.073 -12.530   6.306  0.00  0.00    -0.337 N 
ATOM      5  C6  TMG d          25.360 -13.429   7.362  0.00  0.00     0.062 C 
ATOM      6  C5  TMG d          26.559 -14.080   7.627  0.00  0.00     0.032 C 
ATOM      7  C4  TMG d          26.557 -14.864   8.787  0.00  0.00     0.002 C 
ATOM      8  C3  TMG d          25.501 -14.870   9.714  0.00  0.00     0.002 C 
ATOM      9  C1  TMG d          24.347 -14.114   9.490  0.00  0.00     0.034 C 
ATOM     10  H3  TMG d          25.669 -12.228   5.522  0.00  0.00     0.167 HD
ENDROOT
BRANCH   3  11
ATOM     11  C10 TMG d          23.028 -11.142   5.925  0.00  0.00     0.109 C 
ATOM     12  C14 TMG d          23.239 -10.582   4.734  0.00  0.00     0.086 C 
ATOM     13  S13 TMG d          21.855  -9.547   4.235  0.00  0.00    -0.092 SA
ATOM     14  C12 TMG d          21.043  -9.982   5.759  0.00  0.00     0.166 C 
ATOM     15  N11 TMG d          21.711 -10.824   6.416  0.00  0.00    -0.250 NA
ENDBRANCH   3  11
TORSDOF 1
