REMARK  12 active torsions:
REMARK  status: ('A' for Active; 'I' for Inactive)
REMARK    1  A    between atoms: CAH_8  and  SAI_9 
REMARK    2  A    between atoms: SAI_9  and  NAJ_10 
REMARK    3  A    between atoms: NAQ_17  and  CAN_14 
REMARK    4  A    between atoms: NAQ_17  and  CAR_18 
REMARK       I    between atoms: CAU_21  and  NAQ_17 
REMARK    5  A    between atoms: OAV_22  and  CAU_21 
REMARK    6  A    between atoms: CAW_23  and  OAV_22 
REMARK    7  A    between atoms: CAY_25  and  CAW_23 
REMARK    8  A    between atoms: OAZ_26  and  CAY_25 
REMARK    9  A    between atoms: CAY_25  and  CBC_29 
REMARK   10  A    between atoms: OAZ_26  and  NBA_27 
REMARK   11  A    between atoms: CBC_29  and  OBD_30 
REMARK   12  A    between atoms: OBD_30  and  NBE_31 
ROOT
ATOM      1  CAA NKX d          -3.236   6.789  14.194  0.00  0.00     0.026 C 
ATOM      2  OAB NKX d          -7.017   5.959  12.924  0.00  0.00    -0.222 OA
ATOM      3  CAD NKX d          -4.297   6.470  13.143  0.00  0.00     0.112 C 
ATOM      4  SAE NKX d          -5.884   5.975  13.900  0.00  0.00     0.186 S 
ATOM      5  CAF NKX d          -5.596   4.361  14.519  0.00  0.00     0.110 A 
ATOM      6  SAG NKX d          -6.461   3.558  15.696  0.00  0.00    -0.064 SA
ATOM      7  CAH NKX d          -5.553   2.209  15.693  0.00  0.00     0.121 A 
ATOM      8  OAK NKX d          -6.225   6.912  15.027  0.00  0.00    -0.222 OA
ATOM      9  CAM NKX d          -3.846   5.311  12.252  0.00  0.00     0.050 C 
ATOM     10  CAN NKX d          -3.504   3.979  13.006  0.00  0.00     0.126 C 
ATOM     11  CAO NKX d          -4.545   3.516  14.099  0.00  0.00    -0.005 A 
ATOM     12  CAP NKX d          -4.570   2.338  14.784  0.00  0.00     0.044 A 
ENDROOT
BRANCH  10  13
ATOM     13  NAQ NKX d          -3.239   2.977  11.936  0.00  0.00    -0.319 N 
ATOM     14  CAU NKX d          -2.019   2.861  11.374  0.00  0.00     0.363 C 
ATOM     15  OAT NKX d          -1.043   3.534  11.706  0.00  0.00    -0.238 OA
BRANCH  13  16
ATOM     16  CAR NKX d          -4.377   2.142  11.493  0.00  0.00     0.124 C 
ATOM     17  CAS NKX d          -5.172   2.892  10.440  0.00  0.00     0.026 C 
ENDBRANCH  13  16
BRANCH  14  18
ATOM     18  OAV NKX d          -1.819   1.960  10.376  0.00  0.00    -0.301 OA
BRANCH  18  19
ATOM     19  CAW NKX d          -0.559   2.199   9.604  0.00  0.00     0.217 C 
BRANCH  19  20
ATOM     20  CAY NKX d           0.184   3.572   9.430  0.00  0.00     0.209 C 
BRANCH  20  21
ATOM     21  OAZ NKX d          -0.716   4.664   9.072  0.00  0.00    -0.211 OA
BRANCH  21  22
ATOM     22  NBA NKX d          -1.296   4.632   7.825  0.00  0.00     0.005 N 
ATOM     23  OAX NKX d          -0.481   4.557   6.647  0.00  0.00    -0.511 OA
ATOM     24  OBB NKX d          -2.745   4.714   7.701  0.00  0.00    -0.511 OA
ENDBRANCH  21  22
ENDBRANCH  20  21
BRANCH  20  25
ATOM     25  CBC NKX d           1.400   3.491   8.466  0.00  0.00     0.244 C 
BRANCH  25  26
ATOM     26  OBD NKX d           2.623   3.878   9.116  0.00  0.00    -0.219 OA
BRANCH  26  27
ATOM     27  NBE NKX d           3.618   3.968   8.193  0.00  0.00     0.005 N 
ATOM     28  OBF NKX d           3.824   5.194   7.493  0.00  0.00    -0.511 OA
ATOM     29  OBG NKX d           4.463   2.845   7.917  0.00  0.00    -0.511 OA
ENDBRANCH  26  27
ENDBRANCH  25  26
ENDBRANCH  20  25
ENDBRANCH  19  20
ENDBRANCH  18  19
ENDBRANCH  14  18
ENDBRANCH  10  13
BRANCH   7  30
ATOM     30  SAI NKX d          -5.931   0.871  16.756  0.00  0.00     0.263 S 
ATOM     31  OAC NKX d          -5.288   1.035  18.101  0.00  0.00    -0.200 OA
ATOM     32  OAL NKX d          -7.507   0.835  16.929  0.00  0.00    -0.200 OA
BRANCH  30  33
ATOM     33  NAJ NKX d          -5.432  -0.387  16.089  0.00  0.00    -0.324 N 
ATOM     34  H5  NKX d          -5.768  -0.639  15.181  0.00  0.00     0.169 HD
ATOM     35  H6  NKX d          -4.765  -0.969  16.555  0.00  0.00     0.169 HD
ENDBRANCH  30  33
ENDBRANCH   7  30
TORSDOF 12
