REMARK  10 active torsions:
REMARK  status: ('A' for Active; 'I' for Inactive)
REMARK    1  A    between atoms: C06_15  and  N_2 
REMARK    2  A    between atoms: N_2  and  C07_16 
REMARK    3  A    between atoms: C01_3  and  C04_12 
REMARK    4  A    between atoms: C2_8  and  C1_4 
REMARK    5  A    between atoms: N1_5  and  C2_8 
REMARK    6  A    between atoms: C7_17  and  O1_6 
REMARK    7  A    between atoms: C10_21  and  N2_9 
REMARK    8  A    between atoms: N2_9  and  C13_23 
REMARK    9  A    between atoms: N2_9  and  C11_30 
REMARK   10  A    between atoms: C05_14  and  C06_15 
ROOT
ATOM      1  C01 P96 d          91.533  93.455 -45.307  0.00  0.00     0.019 A 
ATOM      2  C1  P96 d          90.780  95.739 -44.964  0.00  0.00     0.003 A 
ATOM      3  C02 P96 d          91.881  93.366 -43.952  0.00  0.00     0.041 A 
ATOM      4  C3  P96 d          90.995  94.644 -45.812  0.00  0.00     0.032 A 
ATOM      5  C4  P96 d          91.678  94.458 -43.096  0.00  0.00     0.041 A 
ATOM      6  C7  P96 d          91.124  95.634 -43.608  0.00  0.00     0.090 A 
ATOM      7  I2  P96 d          92.169  94.345 -41.029  0.00  0.00    -0.042 I 
ENDROOT
BRANCH   2   8
ATOM      8  C2  P96 d          90.181  96.999 -45.528  0.00  0.00     0.276 C 
BRANCH   8   9
ATOM      9  N1  P96 d          90.683  98.253 -44.846  0.00  0.00    -0.067 N 
ATOM     10  C03 P96 d          89.640  99.332 -44.918  0.00  0.00     0.237 C 
ATOM     11  C8  P96 d          90.159 100.554 -44.179  0.00  0.00     0.061 C 
ATOM     12  C10 P96 d          91.468 101.007 -44.821  0.00  0.00     0.191 C 
ATOM     13  C15 P96 d          92.533  99.911 -44.678  0.00  0.00     0.061 C 
ATOM     14  C16 P96 d          92.046  98.639 -45.354  0.00  0.00     0.237 C 
ATOM     15  H3  P96 d          90.799  98.035 -43.869  0.00  0.00     0.280 HD
BRANCH  12  16
ATOM     16  N2  P96 d          91.940 102.356 -44.257  0.00  0.00    -0.067 N 
ATOM     17  H8  P96 d          92.345 102.850 -45.037  0.00  0.00     0.280 HD
BRANCH  16  18
ATOM     18  C13 P96 d          93.026 102.273 -43.201  0.00  0.00     0.231 C 
ATOM     19  C14 P96 d          93.644 103.643 -42.980  0.00  0.00     0.034 C 
ENDBRANCH  16  18
BRANCH  16  20
ATOM     20  C11 P96 d          90.776 103.216 -43.747  0.00  0.00     0.231 C 
ATOM     21  C12 P96 d          90.099 103.941 -44.899  0.00  0.00     0.034 C 
ENDBRANCH  16  20
ENDBRANCH  12  16
ENDBRANCH   8   9
ENDBRANCH   2   8
BRANCH   6  22
ATOM     22  O1  P96 d          90.923  96.727 -42.795  0.00  0.00    -0.359 OA
ATOM     23  H4  P96 d          91.197  96.517 -41.910  0.00  0.00     0.217 HD
ENDBRANCH   6  22
BRANCH   1  24
ATOM     24  C04 P96 d          91.759  92.360 -46.196  0.00  0.00    -0.065 C 
ATOM     25  C05 P96 d          91.962  91.475 -46.983  0.00  0.00    -0.082 C 
BRANCH  25  26
ATOM     26  C06 P96 d          92.256  90.368 -47.904  0.00  0.00     0.214 C 
BRANCH  26  27
ATOM     27  N   P96 d          91.076  89.914 -48.597  0.00  0.00    -0.380 N 
ATOM     28  H2  P96 d          90.742  88.959 -48.405  0.00  0.00     0.160 HD
BRANCH  27  29
ATOM     29  C07 P96 d          90.362  90.681 -49.506  0.00  0.00     0.028 A 
ATOM     30  C   P96 d          90.885  91.802 -50.156  0.00  0.00     0.029 A 
ATOM     31  C18 P96 d          90.128  92.544 -51.068  0.00  0.00     0.002 A 
ATOM     32  C17 P96 d          88.811  92.178 -51.339  0.00  0.00     0.000 A 
ATOM     33  C09 P96 d          88.267  91.068 -50.703  0.00  0.00     0.002 A 
ATOM     34  C08 P96 d          89.036  90.330 -49.796  0.00  0.00     0.029 A 
ENDBRANCH  27  29
ENDBRANCH  26  27
ENDBRANCH  25  26
ENDBRANCH   1  24
TORSDOF 10
