REMARK  5 active torsions:
REMARK  status: ('A' for Active; 'I' for Inactive)
REMARK    1  A    between atoms: C2_3  and  O2_6 
REMARK    2  A    between atoms: C3_7  and  O3_8 
REMARK    3  A    between atoms: C4_9  and  O4_10 
REMARK    4  A    between atoms: C5_11  and  C6_12 
REMARK    5  A    between atoms: C6_12  and  O6_13 
ROOT
ATOM      1  C1  GOX d          74.552  21.006  89.461  0.00  0.00     0.368 C 
ATOM      2  N1  GOX d          75.004  21.172  90.695  0.00  0.00    -0.104 NA
ATOM      3  C2  GOX d          73.800  22.222  88.878  0.00  0.00     0.203 C 
ATOM      4  N5  GOX d          74.772  19.782  88.794  0.00  0.00    -0.039 N 
ATOM      5  O7  GOX d          75.845  20.179  91.206  0.00  0.00    -0.065 OA
ATOM      6  C3  GOX d          73.251  21.915  87.481  0.00  0.00     0.181 C 
ATOM      7  C4  GOX d          74.296  21.037  86.704  0.00  0.00     0.182 C 
ATOM      8  C5  GOX d          74.370  19.641  87.390  0.00  0.00     0.243 C 
ATOM      9  H3  GOX d          74.278  19.073  89.313  0.00  0.00     0.280 HD
ATOM     10  H4  GOX d          75.763  19.600  88.835  0.00  0.00     0.280 HD
ENDROOT
BRANCH   8  11
ATOM     11  C6  GOX d          75.378  18.641  86.794  0.00  0.00     0.199 C 
BRANCH  11  12
ATOM     12  O6  GOX d          76.683  19.136  86.931  0.00  0.00    -0.399 OA
ATOM     13  H13 GOX d          77.297  18.513  86.561  0.00  0.00     0.209 HD
ENDBRANCH  11  12
ENDBRANCH   8  11
BRANCH   7  14
ATOM     14  O4  GOX d          73.933  20.924  85.350  0.00  0.00    -0.391 OA
ATOM     15  H9  GOX d          73.903  21.789  84.958  0.00  0.00     0.210 HD
ENDBRANCH   7  14
BRANCH   6  16
ATOM     16  O3  GOX d          72.996  23.217  86.911  0.00  0.00    -0.390 OA
ATOM     17  H7  GOX d          72.365  23.679  87.450  0.00  0.00     0.210 HD
ENDBRANCH   6  16
BRANCH   3  18
ATOM     18  O2  GOX d          72.742  22.554  89.736  0.00  0.00    -0.389 OA
ATOM     19  H5  GOX d          72.273  23.302  89.385  0.00  0.00     0.210 HD
ENDBRANCH   3  18
TORSDOF 5
