REMARK  7 active torsions:
REMARK  status: ('A' for Active; 'I' for Inactive)
REMARK    1  A    between atoms: C1'_9  and  N1_1 
REMARK    2  A    between atoms: C17_10  and  C18_11 
REMARK    3  A    between atoms: C17_10  and  C24_18 
REMARK    4  A    between atoms: N5'_29  and  C17_10 
REMARK    5  A    between atoms: C3'_24  and  O3'_25 
REMARK    6  A    between atoms: C5'_28  and  C4'_26 
REMARK    7  A    between atoms: C5'_28  and  N5'_29 
ROOT
ATOM      1  C5' DU3 d          -9.146  27.754  -2.803  0.00  0.00     0.268 C 
ENDROOT
BRANCH   1   2
ATOM      2  C4' DU3 d          -9.044  26.903  -1.464  0.00  0.00     0.178 C 
ATOM      3  C3' DU3 d          -8.493  27.745  -0.321  0.00  0.00     0.153 C 
ATOM      4  C2' DU3 d          -7.715  26.802   0.576  0.00  0.00     0.088 C 
ATOM      5  C1' DU3 d          -7.337  25.643  -0.321  0.00  0.00     0.235 C 
ATOM      6  O4' DU3 d          -8.151  25.735  -1.521  0.00  0.00    -0.357 OA
BRANCH   3   7
ATOM      7  O3' DU3 d          -9.587  28.285   0.436  0.00  0.00    -0.393 OA
ATOM      8  H19 DU3 d         -10.087  28.879  -0.111  0.00  0.00     0.210 HD
ENDBRANCH   3   7
BRANCH   5   9
ATOM      9  N1  DU3 d          -5.964  25.771  -0.882  0.00  0.00    -0.282 N 
ATOM     10  C2  DU3 d          -5.454  24.660  -1.537  0.00  0.00     0.331 A 
ATOM     11  O2  DU3 d          -6.102  23.615  -1.612  0.00  0.00    -0.246 OA
ATOM     12  N3  DU3 d          -4.180  24.729  -2.116  0.00  0.00    -0.275 N 
ATOM     13  C4  DU3 d          -3.452  25.908  -2.046  0.00  0.00     0.250 A 
ATOM     14  H1  DU3 d          -3.796  23.930  -2.579  0.00  0.00     0.173 HD
ATOM     15  O4  DU3 d          -2.345  25.921  -2.575  0.00  0.00    -0.268 OA
ATOM     16  C5  DU3 d          -3.951  27.032  -1.380  0.00  0.00     0.092 A 
ATOM     17  C6  DU3 d          -5.228  26.961  -0.795  0.00  0.00     0.104 A 
ENDBRANCH   5   9
ENDBRANCH   1   2
BRANCH   1  18
ATOM     18  N5' DU3 d          -9.524  26.898  -3.978  0.00  0.00    -0.060 N 
ATOM     19  H23 DU3 d          -9.226  25.953  -3.791  0.00  0.00     0.278 HD
ATOM     20  H24 DU3 d         -10.527  26.921  -4.077  0.00  0.00     0.278 HD
BRANCH  18  21
ATOM     21  C17 DU3 d          -8.915  27.335  -5.268  0.00  0.00     0.252 C 
BRANCH  21  22
ATOM     22  C18 DU3 d          -9.437  26.579  -6.510  0.00  0.00    -0.023 A 
ATOM     23  C19 DU3 d          -9.442  27.228  -7.744  0.00  0.00     0.009 A 
ATOM     24  C20 DU3 d          -9.899  26.588  -8.891  0.00  0.00     0.001 A 
ATOM     25  C21 DU3 d         -10.338  25.276  -8.807  0.00  0.00     0.000 A 
ATOM     26  C22 DU3 d         -10.325  24.622  -7.583  0.00  0.00     0.001 A 
ATOM     27  C23 DU3 d          -9.874  25.266  -6.437  0.00  0.00     0.009 A 
ENDBRANCH  21  22
BRANCH  21  28
ATOM     28  C24 DU3 d          -7.406  27.126  -5.296  0.00  0.00    -0.023 A 
ATOM     29  C25 DU3 d          -6.596  28.143  -5.802  0.00  0.00     0.009 A 
ATOM     30  C26 DU3 d          -5.215  27.951  -5.834  0.00  0.00     0.001 A 
ATOM     31  C27 DU3 d          -4.652  26.759  -5.386  0.00  0.00     0.000 A 
ATOM     32  C28 DU3 d          -5.465  25.748  -4.906  0.00  0.00     0.001 A 
ATOM     33  C29 DU3 d          -6.842  25.921  -4.855  0.00  0.00     0.009 A 
ENDBRANCH  21  28
ENDBRANCH  18  21
ENDBRANCH   1  18
TORSDOF 7
