REMARK  21 active torsions:
REMARK  status: ('A' for Active; 'I' for Inactive)
REMARK    1  A    between atoms: N4_20  and  C14_2 
REMARK    2  A    between atoms: C14_2  and  C15_21 
REMARK    3  A    between atoms: C14_2  and  C22_28 
REMARK    4  A    between atoms: C9_8  and  C10_9 
REMARK    5  A    between atoms: C9_8  and  C13_11 
REMARK    6  A    between atoms: N3_15  and  C9_8 
REMARK       I    between atoms: C13_11  and  N4_20 
REMARK       I    between atoms: C1_17  and  N1_12 
REMARK    7  A    between atoms: N1_12  and  C2_18 
REMARK    8  A    between atoms: C2_18  and  C3_14 
REMARK       I    between atoms: N3_15  and  C1_17 
REMARK    9  A    between atoms: C15_21  and  C16_22 
REMARK   10  A    between atoms: C22_28  and  O3_29 
REMARK   11  A    between atoms: C22_28  and  C23_30 
REMARK   12  A    between atoms: C23_30  and  O4_31 
REMARK   13  A    between atoms: C23_30  and  C24_32 
REMARK   14  A    between atoms: C24_32  and  C25_33 
REMARK   15  A    between atoms: C24_32  and  N5_40 
REMARK   16  A    between atoms: C25_33  and  C26_34 
REMARK       I    between atoms: N5_40  and  C32_41 
REMARK   17  A    between atoms: C32_41  and  C33_43 
REMARK   18  A    between atoms: C33_43  and  C34_44 
REMARK   19  A    between atoms: C33_43  and  N6_47 
REMARK       I    between atoms: N6_47  and  C37_48 
REMARK       I    between atoms: C37_48  and  N7_50 
REMARK   20  A    between atoms: N7_50  and  C39_52 
REMARK   21  A    between atoms: C39_52  and  C40_53 
ROOT
ATOM      1  C22  AI d          21.098 -36.351  13.282  0.00  0.00     0.171 C 
ENDROOT
BRANCH   1   2
ATOM      2  C14  AI d          22.598 -36.741  13.028  0.00  0.00     0.120 C 
BRANCH   2   3
ATOM      3  N4   AI d          22.764 -36.685  11.581  0.00  0.00    -0.352 N 
ATOM      4  C13  AI d          23.020 -37.830  10.915  0.00  0.00     0.241 C 
ATOM      5  O2   AI d          23.135 -38.956  11.448  0.00  0.00    -0.271 OA
ATOM      6  H20  AI d          22.690 -35.816  11.092  0.00  0.00     0.163 HD
BRANCH   4   7
ATOM      7  C9   AI d          23.158 -37.674   9.401  0.00  0.00     0.181 C 
BRANCH   7   8
ATOM      8  C10  AI d          22.543 -38.838   8.544  0.00  0.00     0.009 C 
ATOM      9  C11  AI d          22.718 -38.611   7.025  0.00  0.00     0.012 C 
ATOM     10  C12  AI d          21.018 -39.004   8.798  0.00  0.00     0.012 C 
ENDBRANCH   7   8
BRANCH   7  11
ATOM     11  N3   AI d          24.610 -37.501   9.164  0.00  0.00    -0.329 N 
ATOM     12  C1   AI d          25.129 -36.332   8.674  0.00  0.00     0.319 C 
ATOM     13  N1   AI d          26.490 -36.229   8.468  0.00  0.00    -0.333 N 
ATOM     14  O1   AI d          24.364 -35.375   8.418  0.00  0.00    -0.247 OA
ATOM     15  C8   AI d          27.405 -37.351   8.764  0.00  0.00     0.154 C 
ATOM     16  H17  AI d          25.229 -38.260   9.368  0.00  0.00     0.165 HD
BRANCH  13  17
ATOM     17  C2   AI d          27.112 -34.994   7.934  0.00  0.00     0.186 C 
BRANCH  17  18
ATOM     18  C3   AI d          27.430 -33.980   9.003  0.00  0.00     0.052 A 
ATOM     19  C7   AI d          28.776 -33.798   9.442  0.00  0.00     0.029 A 
ATOM     20  C6   AI d          29.035 -32.822  10.462  0.00  0.00     0.003 A 
ATOM     21  C5   AI d          27.986 -32.035  11.044  0.00  0.00     0.019 A 
ATOM     22  C4   AI d          26.646 -32.226  10.596  0.00  0.00     0.117 A 
ATOM     23  N2   AI d          26.387 -33.195   9.583  0.00  0.00    -0.264 NA
ENDBRANCH  17  18
ENDBRANCH  13  17
ENDBRANCH   7  11
ENDBRANCH   4   7
ENDBRANCH   2   3
BRANCH   2  24
ATOM     24  C15  AI d          23.646 -35.802  13.748  0.00  0.00     0.066 C 
BRANCH  24  25
ATOM     25  C16  AI d          25.098 -36.175  13.511  0.00  0.00    -0.056 A 
ATOM     26  C17  AI d          25.693 -37.269  14.236  0.00  0.00     0.007 A 
ATOM     27  C18  AI d          27.065 -37.613  14.005  0.00  0.00     0.001 A 
ATOM     28  C19  AI d          27.841 -36.872  13.056  0.00  0.00     0.000 A 
ATOM     29  C20  AI d          27.243 -35.783  12.337  0.00  0.00     0.001 A 
ATOM     30  C21  AI d          25.871 -35.425  12.555  0.00  0.00     0.007 A 
ENDBRANCH  24  25
ENDBRANCH   2  24
ENDBRANCH   1   2
BRANCH   1  31
ATOM     31  O3   AI d          20.921 -35.010  12.783  0.00  0.00    -0.391 OA
ATOM     32  H29  AI d          20.021 -34.739  12.920  0.00  0.00     0.210 HD
ENDBRANCH   1  31
BRANCH   1  33
ATOM     33  C23  AI d          20.671 -36.385  14.774  0.00  0.00     0.171 C 
BRANCH  33  34
ATOM     34  O4   AI d          19.504 -35.587  15.005  0.00  0.00    -0.391 OA
ATOM     35  H31  AI d          19.685 -34.686  14.764  0.00  0.00     0.210 HD
ENDBRANCH  33  34
BRANCH  33  36
ATOM     36  C24  AI d          20.373 -37.875  15.157  0.00  0.00     0.116 C 
BRANCH  36  37
ATOM     37  C25  AI d          18.991 -38.355  14.657  0.00  0.00     0.032 C 
BRANCH  37  38
ATOM     38  C26  AI d          18.650 -39.804  14.996  0.00  0.00    -0.013 C 
ATOM     39  C27  AI d          17.101 -40.049  15.046  0.00  0.00     0.005 C 
ATOM     40  C28  AI d          16.690 -41.564  15.186  0.00  0.00     0.000 C 
ATOM     41  C29  AI d          17.908 -42.491  15.495  0.00  0.00     0.000 C 
ATOM     42  C30  AI d          19.053 -42.309  14.432  0.00  0.00     0.000 C 
ATOM     43  C31  AI d          19.306 -40.815  13.997  0.00  0.00     0.005 C 
ENDBRANCH  37  38
ENDBRANCH  36  37
BRANCH  36  44
ATOM     44  N5   AI d          20.455 -38.017  16.617  0.00  0.00    -0.352 N 
ATOM     45  C32  AI d          21.336 -38.863  17.188  0.00  0.00     0.241 C 
ATOM     46  O5   AI d          22.147 -39.593  16.588  0.00  0.00    -0.271 OA
ATOM     47  H46  AI d          19.846 -37.476  17.198  0.00  0.00     0.163 HD
BRANCH  45  48
ATOM     48  C33  AI d          21.269 -38.882  18.730  0.00  0.00     0.181 C 
BRANCH  48  49
ATOM     49  C34  AI d          22.650 -39.038  19.458  0.00  0.00     0.009 C 
ATOM     50  C35  AI d          22.484 -39.052  20.971  0.00  0.00     0.012 C 
ATOM     51  C36  AI d          23.590 -37.873  19.130  0.00  0.00     0.012 C 
ENDBRANCH  48  49
BRANCH  48  52
ATOM     52  N6   AI d          20.344 -39.997  19.034  0.00  0.00    -0.329 N 
ATOM     53  C37  AI d          19.100 -39.826  19.567  0.00  0.00     0.319 C 
ATOM     54  O6   AI d          18.682 -38.679  19.827  0.00  0.00    -0.247 OA
ATOM     55  N7   AI d          18.318 -40.943  19.809  0.00  0.00    -0.333 N 
ATOM     56  C38  AI d          18.778 -42.316  19.514  0.00  0.00     0.154 C 
ATOM     57  H55  AI d          20.648 -40.929  18.837  0.00  0.00     0.165 HD
BRANCH  55  58
ATOM     58  C39  AI d          16.955 -40.829  20.392  0.00  0.00     0.186 C 
BRANCH  58  59
ATOM     59  C40  AI d          15.912 -40.502  19.347  0.00  0.00     0.052 A 
ATOM     60  C41  AI d          15.052 -41.532  18.860  0.00  0.00     0.029 A 
ATOM     61  C44  AI d          14.072 -41.177  17.867  0.00  0.00     0.003 A 
ATOM     62  C43  AI d          13.947 -39.834  17.366  0.00  0.00     0.019 A 
ATOM     63  C42  AI d          14.815 -38.822  17.866  0.00  0.00     0.117 A 
ATOM     64  N8   AI d          15.786 -39.170  18.849  0.00  0.00    -0.264 NA
ENDBRANCH  58  59
ENDBRANCH  55  58
ENDBRANCH  48  52
ENDBRANCH  45  48
ENDBRANCH  36  44
ENDBRANCH  33  36
ENDBRANCH   1  33
TORSDOF 21
