3guz_ligand

Created by X-TOOL on Fri Sep 26 17:34:47 2014
 21 20  0  0  0  0  0  0  0  0999 V2000
   10.7970  -12.2620    0.3240  O 0  0  0  1  0  1
   10.2210  -11.9000   -0.7230  C 0  5  0  1  0  3
    9.0580  -11.4290   -0.8090  O 0  0  0  1  0  1
   11.0630  -11.9320   -1.9960  C 0  0  0  2  0  4
   10.8930  -10.6780   -2.6850  O 0  0  0  2  0  2
   10.7810  -13.1240   -2.9290  C 0  0  0  1  0  4
   11.0140  -14.4470   -2.1540  C 0  0  0  4  0  4
    9.3140  -13.0570   -3.5090  C 0  0  0  4  0  4
   11.7240  -13.0270   -4.1610  C 0  0  0  3  0  4
   13.1430  -12.9540   -3.8010  O 0  0  0  2  0  2
   12.1164  -12.0119   -1.6895  H 0  0  0  1  0  1
    9.9762  -10.5600   -2.9039  H 0  0  0  1  0  1
   10.8134  -15.3009   -2.8177  H 0  0  0  1  0  1
   10.3370  -14.4888   -1.2880  H 0  0  0  1  0  1
   12.0568  -14.4897   -1.8066  H 0  0  0  1  0  1
    9.1774  -12.1104   -4.0523  H 0  0  0  1  0  1
    8.5901  -13.1132   -2.6827  H 0  0  0  1  0  1
    9.1524  -13.9007   -4.1961  H 0  0  0  1  0  1
   11.4616  -12.1237   -4.7312  H 0  0  0  1  0  1
   11.5688  -13.9158   -4.7903  H 0  0  0  1  0  1
   13.6666  -12.8966   -4.5916  H 0  0  0  1  0  1
  1  2  2  0  0  2
  2  3  2  0  0  2
  2  4  1  0  0  2
  4  5  1  0  0  2
  4  6  1  0  0  2
  6  7  1  0  0  2
  6  8  1  0  0  2
  6  9  1  0  0  2
  9 10  1  0  0  2
  4 11  1  0  0  2
  5 12  1  0  0  2
  7 13  1  0  0  2
  7 14  1  0  0  2
  7 15  1  0  0  2
  8 16  1  0  0  2
  8 17  1  0  0  2
  8 18  1  0  0  2
  9 19  1  0  0  2
  9 20  1  0  0  2
 10 21  1  0  0  2
M  END
> <MOLECULAR_FORMULA>
C6H11O4

> <MOLECULAR_WEIGHT>
147.1

> <NUM_HB_ATOMS>
4  

> <NUM_ROTOR>
2  

> <XLOGP2>
-0.92

$$$$
