REMARK  13 active torsions:
REMARK  status: ('A' for Active; 'I' for Inactive)
REMARK    1  A    between atoms: S8_2  and  C5_4 
REMARK    2  A    between atoms: S8_2  and  N11_13 
REMARK    3  A    between atoms: N11_13  and  C12_14 
REMARK    4  A    between atoms: N11_13  and  C16_18 
REMARK    5  A    between atoms: C12_14  and  C13_15 
REMARK    6  A    between atoms: C16_18  and  C17_19 
REMARK    7  A    between atoms: C17_19  and  O18_20 
REMARK    8  A    between atoms: C17_19  and  C19_21 
REMARK    9  A    between atoms: C19_21  and  C32_22 
REMARK   10  A    between atoms: C19_21  and  N20_29 
REMARK   11  A    between atoms: C32_22  and  C38_23 
REMARK       I    between atoms: N20_29  and  C21_30 
REMARK   12  A    between atoms: C21_30  and  C22_32 
REMARK   13  A    between atoms: C26_36  and  O27_37 
ROOT
ATOM      1  C17 MZ8 d          20.094  29.605  15.672  0.00  0.00     0.155 C 
ENDROOT
BRANCH   1   2
ATOM      2  C16 MZ8 d          19.278  30.763  16.253  0.00  0.00     0.141 C 
BRANCH   2   3
ATOM      3  N11 MZ8 d          19.546  32.028  15.533  0.00  0.00    -0.204 NA
BRANCH   3   4
ATOM      4  S8  MZ8 d          18.219  32.664  14.835  0.00  0.00     0.243 S 
ATOM      5  O9  MZ8 d          18.721  33.481  13.778  0.00  0.00    -0.206 OA
ATOM      6  O10 MZ8 d          17.444  31.589  14.284  0.00  0.00    -0.206 OA
BRANCH   4   7
ATOM      7  C5  MZ8 d          17.336  33.540  15.898  0.00  0.00     0.076 A 
ATOM      8  C4  MZ8 d          17.488  34.922  16.148  0.00  0.00     0.046 A 
ATOM      9  C3  MZ8 d          16.706  35.605  17.111  0.00  0.00     0.036 A 
ATOM     10  S1  MZ8 d          16.807  37.267  17.497  0.00  0.00    -0.081 SA
ATOM     11  C2  MZ8 d          15.757  34.886  17.846  0.00  0.00     0.074 A 
ATOM     12  C1  MZ8 d          15.542  36.976  18.652  0.00  0.00     0.167 A 
ATOM     13  N1  MZ8 d          15.112  35.696  18.727  0.00  0.00    -0.253 NA
ATOM     14  C7  MZ8 d          15.595  33.526  17.609  0.00  0.00     0.034 A 
ATOM     15  C6  MZ8 d          16.359  32.869  16.645  0.00  0.00     0.027 A 
ENDBRANCH   4   7
ENDBRANCH   3   4
BRANCH   3  16
ATOM     16  C12 MZ8 d          20.305  33.009  16.346  0.00  0.00     0.111 C 
BRANCH  16  17
ATOM     17  C13 MZ8 d          21.800  32.663  16.362  0.00  0.00    -0.009 C 
ATOM     18  C14 MZ8 d          22.414  32.617  14.963  0.00  0.00     0.011 C 
ATOM     19  C15 MZ8 d          22.530  33.643  17.274  0.00  0.00     0.011 C 
ENDBRANCH  16  17
ENDBRANCH   3  16
ENDBRANCH   2   3
ENDBRANCH   1   2
BRANCH   1  20
ATOM     20  O18 MZ8 d          20.018  28.452  16.529  0.00  0.00    -0.392 OA
ATOM     21  H17 MZ8 d          20.529  27.745  16.153  0.00  0.00     0.210 HD
ENDBRANCH   1  20
BRANCH   1  22
ATOM     22  C19 MZ8 d          19.619  29.271  14.268  0.00  0.00     0.118 C 
BRANCH  22  23
ATOM     23  C32 MZ8 d          18.303  28.478  14.200  0.00  0.00     0.066 C 
BRANCH  23  24
ATOM     24  C38 MZ8 d          17.943  28.156  12.756  0.00  0.00    -0.056 A 
ATOM     25  C33 MZ8 d          17.981  26.829  12.309  0.00  0.00     0.007 A 
ATOM     26  C34 MZ8 d          17.678  26.518  10.993  0.00  0.00     0.001 A 
ATOM     27  C35 MZ8 d          17.323  27.523  10.102  0.00  0.00     0.000 A 
ATOM     28  C36 MZ8 d          17.285  28.845  10.534  0.00  0.00     0.001 A 
ATOM     29  C37 MZ8 d          17.592  29.158  11.860  0.00  0.00     0.007 A 
ENDBRANCH  23  24
ENDBRANCH  22  23
BRANCH  22  30
ATOM     30  N20 MZ8 d          20.560  28.409  13.566  0.00  0.00    -0.349 N 
ATOM     31  C21 MZ8 d          21.416  28.806  12.632  0.00  0.00     0.252 C 
ATOM     32  O22 MZ8 d          21.577  29.959  12.254  0.00  0.00    -0.268 OA
ATOM     33  H26 MZ8 d          20.561  27.439  13.807  0.00  0.00     0.163 HD
BRANCH  31  34
ATOM     34  C22 MZ8 d          22.182  27.733  11.932  0.00  0.00     0.034 A 
ATOM     35  C23 MZ8 d          21.470  26.608  11.500  0.00  0.00     0.017 A 
ATOM     36  C24 MZ8 d          22.102  25.575  10.809  0.00  0.00     0.004 A 
ATOM     37  C25 MZ8 d          23.454  25.683  10.521  0.00  0.00     0.036 A 
ATOM     38  C26 MZ8 d          24.151  26.819  10.933  0.00  0.00     0.066 A 
ATOM     39  C27 MZ8 d          23.526  27.844  11.634  0.00  0.00     0.053 A 
BRANCH  38  40
ATOM     40  O27 MZ8 d          25.473  26.922  10.660  0.00  0.00    -0.361 OA
ATOM     41  H30 MZ8 d          25.803  27.745  11.002  0.00  0.00     0.217 HD
ENDBRANCH  38  40
ENDBRANCH  31  34
ENDBRANCH  22  30
ENDBRANCH   1  22
TORSDOF 13
