REMARK  14 active torsions:
REMARK  status: ('A' for Active; 'I' for Inactive)
REMARK    1  A    between atoms: O3_17  and  C1_1 
REMARK    2  A    between atoms: C2_2  and  O2_7 
REMARK    3  A    between atoms: C3_3  and  O3_8 
REMARK    4  A    between atoms: C4_4  and  O4_9 
REMARK    5  A    between atoms: C5_5  and  C6_6 
REMARK    6  A    between atoms: C6_6  and  O6_11 
REMARK    7  A    between atoms: OH_32  and  C1_13 
REMARK    8  A    between atoms: C2_14  and  N2_15 
REMARK       I    between atoms: N2_15  and  C7_23 
REMARK    9  A    between atoms: C3_16  and  O3_17 
REMARK   10  A    between atoms: C4_18  and  O4_19 
REMARK   11  A    between atoms: C5_20  and  C6_21 
REMARK   12  A    between atoms: C6_21  and  O6_22 
REMARK   13  A    between atoms: C1_26  and  N1_33 
REMARK   14  A    between atoms: C4_29  and  OH_32 
ROOT
ATOM      1  O   GAL d         -14.635  13.088 -32.932  0.00  0.00    -0.349 OA
ATOM      2  C1  GAL d         -15.303  11.956 -33.512  0.00  0.00     0.292 C 
ATOM      3  C2  GAL d         -14.728  10.659 -32.940  0.00  0.00     0.170 C 
ATOM      4  C3  GAL d         -14.967  10.628 -31.430  0.00  0.00     0.183 C 
ATOM      5  C4  GAL d         -14.245  11.845 -30.851  0.00  0.00     0.180 C 
ATOM      6  C5  GAL d         -14.774  13.127 -31.501  0.00  0.00     0.179 C 
ENDROOT
BRANCH   4   7
ATOM      7  O3  GAL d         -14.454   9.396 -30.901  0.00  0.00    -0.348 OA
BRANCH   7   8
ATOM      8  C1  GAL d         -14.887   9.193 -29.547  0.00  0.00     0.292 C 
ATOM      9  C2  GAL d         -14.948   7.682 -29.313  0.00  0.00     0.204 C 
ATOM     10  C3  GAL d         -15.265   7.364 -27.851  0.00  0.00     0.183 C 
ATOM     11  C4  GAL d         -14.260   8.092 -26.957  0.00  0.00     0.180 C 
ATOM     12  C5  GAL d         -14.288   9.587 -27.281  0.00  0.00     0.179 C 
ATOM     13  O5  GAL d         -13.929   9.791 -28.657  0.00  0.00    -0.348 OA
BRANCH   9  14
ATOM     14  O2  GAL d         -15.932   7.088 -30.165  0.00  0.00    -0.388 OA
ATOM     15  H8  GAL d         -15.728   7.290 -31.071  0.00  0.00     0.210 HD
ENDBRANCH   9  14
BRANCH  10  16
ATOM     16  O3  GAL d         -15.159   5.953 -27.644  0.00  0.00    -0.390 OA
ATOM     17  H9  GAL d         -14.279   5.668 -27.860  0.00  0.00     0.210 HD
ENDBRANCH  10  16
BRANCH  11  18
ATOM     18  O4  GAL d         -12.949   7.576 -27.203  0.00  0.00    -0.390 OA
ATOM     19  H10 GAL d         -12.932   6.648 -27.002  0.00  0.00     0.210 HD
ENDBRANCH  11  18
BRANCH  12  20
ATOM     20  C6  GAL d         -13.304  10.325 -26.372  0.00  0.00     0.198 C 
BRANCH  20  21
ATOM     21  O6  GAL d         -13.342  11.723 -26.670  0.00  0.00    -0.398 OA
ATOM     22  H11 GAL d         -13.100  11.859 -27.578  0.00  0.00     0.209 HD
ENDBRANCH  20  21
ENDBRANCH  12  20
ENDBRANCH   7   8
ENDBRANCH   4   7
BRANCH   3  23
ATOM     23  N2  GAL d         -15.416   9.511 -33.547  0.00  0.00    -0.360 N 
ATOM     24  C7  GAL d         -14.874   8.800 -34.532  0.00  0.00     0.147 C 
ATOM     25  O7  GAL d         -13.645   9.129 -35.011  0.00  0.00    -0.178 OA
ATOM     26  C8  GAL d         -15.564   7.717 -35.065  0.00  0.00     0.100 C 
ATOM     27  H14 GAL d         -16.322   9.256 -33.208  0.00  0.00     0.162 HD
ENDBRANCH   3  23
BRANCH   5  28
ATOM     28  O4  GAL d         -12.843  11.720 -31.100  0.00  0.00    -0.390 OA
ATOM     29  H17 GAL d         -12.518  10.929 -30.686  0.00  0.00     0.210 HD
ENDBRANCH   5  28
BRANCH   2  30
ATOM     30  OH  GAL d         -16.706  11.933 -33.208  0.00  0.00    -0.318 OA
BRANCH  30  31
ATOM     31  C4  GAL d         -17.441  12.889 -33.838  0.00  0.00     0.072 A 
ATOM     32  C3  GAL d         -18.739  13.115 -33.395  0.00  0.00     0.039 A 
ATOM     33  C2  GAL d         -19.582  13.967 -34.099  0.00  0.00     0.039 A 
ATOM     34  C1  GAL d         -19.124  14.599 -35.249  0.00  0.00     0.103 A 
ATOM     35  C6  GAL d         -17.822  14.385 -35.687  0.00  0.00     0.039 A 
ATOM     36  C5  GAL d         -16.980  13.530 -34.983  0.00  0.00     0.039 A 
BRANCH  34  37
ATOM     37  N1  GAL d         -19.955  15.373 -35.943  0.00  0.00    -0.116 N 
ATOM     38  O2  GAL d         -19.528  15.987 -37.151  0.00  0.00    -0.532 OA
ATOM     39  O3  GAL d         -21.282  15.576 -35.479  0.00  0.00    -0.532 OA
ENDBRANCH  34  37
ENDBRANCH  30  31
ENDBRANCH   2  30
BRANCH   6  40
ATOM     40  C6  GAL d         -13.978  14.320 -30.971  0.00  0.00     0.198 C 
BRANCH  40  41
ATOM     41  O6  GAL d         -14.483  15.528 -31.548  0.00  0.00    -0.398 OA
ATOM     42  H21 GAL d         -14.398  15.486 -32.493  0.00  0.00     0.209 HD
ENDBRANCH  40  41
ENDBRANCH   6  40
TORSDOF 14
