REMARK  7 active torsions:
REMARK  status: ('A' for Active; 'I' for Inactive)
REMARK    1  A    between atoms: P_1  and  O5'_5 
REMARK    2  A    between atoms: O5'_5  and  C5'_6 
REMARK    3  A    between atoms: C5'_6  and  C4'_7 
REMARK    4  A    between atoms: C3'_9  and  O3'_10 
REMARK    5  A    between atoms: C2'_11  and  O2'_12 
REMARK    6  A    between atoms: C1'_13  and  N9_14 
REMARK    7  A    between atoms: C6_18  and  N6_19 
ROOT
ATOM      1  C4' AMP d         117.315  58.132  19.142  0.00  0.00     0.180 C 
ATOM      2  O4' AMP d         117.904  56.867  19.558  0.00  0.00    -0.353 OA
ATOM      3  C3' AMP d         116.368  57.745  18.018  0.00  0.00     0.182 C 
ATOM      4  C2' AMP d         117.157  56.639  17.334  0.00  0.00     0.198 C 
ATOM      5  C1' AMP d         117.700  55.888  18.549  0.00  0.00     0.262 C 
ENDROOT
BRANCH   5   6
ATOM      6  N9  AMP d         116.724  54.920  19.051  0.00  0.00    -0.294 N 
ATOM      7  C8  AMP d         115.921  55.040  20.159  0.00  0.00     0.214 A 
ATOM      8  N7  AMP d         115.117  54.019  20.343  0.00  0.00    -0.236 NA
ATOM      9  C5  AMP d         115.415  53.166  19.291  0.00  0.00     0.149 A 
ATOM     10  C6  AMP d         114.905  51.913  18.919  0.00  0.00     0.155 A 
ATOM     11  C4  AMP d         116.408  53.704  18.491  0.00  0.00     0.167 A 
ATOM     12  N1  AMP d         115.423  51.329  17.817  0.00  0.00    -0.222 NA
ATOM     13  C2  AMP d         116.382  51.970  17.142  0.00  0.00     0.237 A 
ATOM     14  N3  AMP d         116.941  53.150  17.390  0.00  0.00    -0.222 NA
BRANCH  10  15
ATOM     15  N6  AMP d         113.938  51.276  19.589  0.00  0.00    -0.382 N 
ATOM     16  H10 AMP d         113.606  50.356  19.264  0.00  0.00     0.157 HD
ATOM     17  H11 AMP d         113.525  51.705  20.430  0.00  0.00     0.157 HD
ENDBRANCH  10  15
ENDBRANCH   5   6
BRANCH   4  18
ATOM     18  O2' AMP d         118.233  57.165  16.582  0.00  0.00    -0.388 OA
ATOM     19  H7  AMP d         117.895  57.752  15.916  0.00  0.00     0.210 HD
ENDBRANCH   4  18
BRANCH   1  20
ATOM     20  C5' AMP d         116.674  58.823  20.328  0.00  0.00     0.217 C 
BRANCH  20  21
ATOM     21  O5' AMP d         115.537  58.068  20.798  0.00  0.00    -0.280 OA
BRANCH  21  22
ATOM     22  P   AMP d         114.275  58.812  21.519  0.00  0.00     0.422 P 
ATOM     23  O1P AMP d         113.742  59.808  20.509  0.00  0.00    -0.617 OA
ATOM     24  O2P AMP d         113.274  57.719  21.845  0.00  0.00    -0.617 OA
ATOM     25  O3P AMP d         114.828  59.490  22.763  0.00  0.00    -0.617 OA
ENDBRANCH  21  22
ENDBRANCH  20  21
ENDBRANCH   1  20
BRANCH   3  26
ATOM     26  O3' AMP d         116.133  58.834  17.137  0.00  0.00    -0.390 OA
ATOM     27  H5  AMP d         116.956  59.114  16.754  0.00  0.00     0.210 HD
ENDBRANCH   3  26
TORSDOF 7
