REMARK  2 active torsions:
REMARK  status: ('A' for Active; 'I' for Inactive)
REMARK    1  A    between atoms: N1_21  and  C7_7 
REMARK    2  A    between atoms: C16_8  and  O21_23 
ROOT
ATOM      1  C11 MOL d           4.729  12.146  42.002  0.00  0.00     0.053 A 
ATOM      2  C20 MOL d           3.758  13.499  40.266  0.00  0.00     0.045 A 
ATOM      3  C8  MOL d           4.357  13.043  43.015  0.00  0.00     0.024 A 
ATOM      4  C9  MOL d           4.317  13.679  45.313  0.00  0.00     0.065 A 
ATOM      5  C15 MOL d           3.349  14.458  41.216  0.00  0.00    -0.030 A 
ATOM      6  C10 MOL d           3.653  14.242  42.616  0.00  0.00     0.077 A 
ATOM      7  C7  MOL d           4.729  12.754  44.380  0.00  0.00     0.059 A 
ATOM      8  C16 MOL d           4.472  12.356  40.643  0.00  0.00     0.069 A 
ATOM      9  C13 MOL d           4.278  13.829  46.669  0.00  0.00     0.067 A 
ATOM     10  C12 MOL d           3.534  14.890  44.859  0.00  0.00     0.159 A 
ATOM     11  C23 MOL d           2.614  15.667  40.711  0.00  0.00     0.050 C 
ATOM     12  C19 MOL d           4.890  13.005  47.730  0.00  0.00     0.073 C 
ATOM     13  N18 MOL d           3.700  14.967  47.032  0.00  0.00    -0.177 NA
ATOM     14  N17 MOL d           3.221  15.629  45.914  0.00  0.00    -0.260 N 
ATOM     15  N14 MOL d           3.252  15.120  43.593  0.00  0.00    -0.228 NA
ATOM     16  H20 MOL d           2.716  16.527  45.904  0.00  0.00     0.191 HD
ENDROOT
BRANCH   7  17
ATOM     17  N1  MOL d           5.508  11.627  44.703  0.00  0.00    -0.376 N 
ATOM     18  C2  MOL d           4.848  10.381  45.018  0.00  0.00     0.150 C 
ATOM     19  C3  MOL d           5.747   9.422  45.788  0.00  0.00     0.252 C 
ATOM     20  N4  MOL d           7.073   9.390  45.094  0.00  0.00    -0.072 N 
ATOM     21  C5  MOL d           7.769  10.699  45.211  0.00  0.00     0.252 C 
ATOM     22  H21 MOL d           6.929   9.179  44.119  0.00  0.00     0.277 HD
ATOM     23  H22 MOL d           7.646   8.674  45.512  0.00  0.00     0.277 HD
ATOM     24  C6  MOL d           6.972  11.740  44.461  0.00  0.00     0.150 C 
ENDBRANCH   7  17
BRANCH   8  25
ATOM     25  O21 MOL d           4.817  11.523  39.612  0.00  0.00    -0.356 OA
ATOM     26  C22 MOL d           5.855  10.567  39.787  0.00  0.00     0.210 C 
ENDBRANCH   8  25
TORSDOF 2
