REMARK  7 active torsions:
REMARK  status: ('A' for Active; 'I' for Inactive)
REMARK    1  A    between atoms: P_1  and  O5'_5 
REMARK    2  A    between atoms: O5'_5  and  C5'_6 
REMARK    3  A    between atoms: C5'_6  and  C4'_7 
REMARK    4  A    between atoms: C3'_9  and  O3'_10 
REMARK    5  A    between atoms: C2'_11  and  O2'_12 
REMARK    6  A    between atoms: C1'_13  and  N9_14 
REMARK    7  A    between atoms: C2_21  and  N2_22 
ROOT
ATOM      1  C4' MOL d          28.196  32.470  39.994  0.00  0.00     0.180 C 
ATOM      2  O4' MOL d          27.648  31.208  39.617  0.00  0.00    -0.353 OA
ATOM      3  C3' MOL d          29.711  32.304  40.006  0.00  0.00     0.182 C 
ATOM      4  C2' MOL d          29.957  30.816  39.951  0.00  0.00     0.198 C 
ATOM      5  C1' MOL d          28.589  30.161  39.846  0.00  0.00     0.262 C 
ENDROOT
BRANCH   5   6
ATOM      6  N9  MOL d          28.525  29.196  38.720  0.00  0.00    -0.295 N 
ATOM      7  C8  MOL d          28.167  27.901  38.819  0.00  0.00     0.214 A 
ATOM      8  N7  MOL d          28.196  27.341  37.587  0.00  0.00    -0.234 NA
ATOM      9  C5  MOL d          28.569  28.301  36.709  0.00  0.00     0.171 A 
ATOM     10  C6  MOL d          28.764  28.310  35.335  0.00  0.00     0.292 A 
ATOM     11  C4  MOL d          28.764  29.471  37.430  0.00  0.00     0.161 A 
ATOM     12  O6  MOL d          28.584  27.255  34.687  0.00  0.00    -0.265 OA
ATOM     13  N1  MOL d          29.141  29.448  34.731  0.00  0.00    -0.154 N 
ATOM     14  C2  MOL d          29.325  30.576  35.436  0.00  0.00     0.680 A 
ATOM     15  H10 MOL d          29.287  29.456  33.742  0.00  0.00     0.187 HD
ATOM     16  N3  MOL d          29.144  30.596  36.778  0.00  0.00    -0.174 N 
ATOM     17  H13 MOL d          29.296  31.468  37.304  0.00  0.00     0.186 HD
BRANCH  14  18
ATOM     18  N2  MOL d          29.704  31.715  34.803  0.00  0.00    -0.234 N 
ATOM     19  H11 MOL d          29.846  32.581  35.342  0.00  0.00     0.174 HD
ATOM     20  H12 MOL d          29.850  31.713  33.783  0.00  0.00     0.174 HD
ENDBRANCH  14  18
ENDBRANCH   5   6
BRANCH   4  21
ATOM     21  O2' MOL d          30.573  30.456  41.185  0.00  0.00    -0.388 OA
ATOM     22  H7  MOL d          31.390  30.931  41.280  0.00  0.00     0.210 HD
ENDBRANCH   4  21
BRANCH   1  23
ATOM     23  C5' MOL d          27.703  33.563  39.042  0.00  0.00     0.217 C 
BRANCH  23  24
ATOM     24  O5' MOL d          26.272  33.579  39.111  0.00  0.00    -0.280 OA
BRANCH  24  25
ATOM     25  P   MOL d          25.397  34.646  38.274  0.00  0.00     0.422 P 
ATOM     26  O1P MOL d          25.945  35.987  38.684  0.00  0.00    -0.617 OA
ATOM     27  O2P MOL d          25.693  34.306  36.830  0.00  0.00    -0.617 OA
ATOM     28  O3P MOL d          23.974  34.357  38.691  0.00  0.00    -0.617 OA
ENDBRANCH  24  25
ENDBRANCH  23  24
ENDBRANCH   1  23
BRANCH   3  29
ATOM     29  O3' MOL d          30.240  32.795  41.244  0.00  0.00    -0.390 OA
ATOM     30  H5  MOL d          29.863  32.304  41.965  0.00  0.00     0.210 HD
ENDBRANCH   3  29
TORSDOF 7
