REMARK  9 active torsions:
REMARK  status: ('A' for Active; 'I' for Inactive)
REMARK    1  A    between atoms: C4_3  and  S7_4 
REMARK    2  A    between atoms: S7_4  and  N10_6 
REMARK    3  A    between atoms: C6_12  and  N25_25 
REMARK    4  A    between atoms: C1_13  and  S11_14 
REMARK    5  A    between atoms: S11_14  and  C21_17 
REMARK    6  A    between atoms: C21_17  and  C24_18 
REMARK    7  A    between atoms: C24_18  and  C30_19 
REMARK    8  A    between atoms: N25_25  and  C14_26 
REMARK    9  A    between atoms: C14_26  and  C15_27 
ROOT
ATOM      1  F26 V1F d          14.216   5.057  14.997  0.00  0.00    -0.202 F 
ATOM      2  C5  V1F d          15.521   5.157  15.048  0.00  0.00     0.170 A 
ATOM      3  C4  V1F d          16.174   4.161  15.784  0.00  0.00     0.161 A 
ATOM      4  C3  V1F d          17.566   4.281  15.897  0.00  0.00     0.182 A 
ATOM      5  F12 V1F d          18.256   3.353  16.611  0.00  0.00    -0.201 F 
ATOM      6  C2  V1F d          18.271   5.282  15.264  0.00  0.00     0.180 A 
ATOM      7  F13 V1F d          19.624   5.332  15.431  0.00  0.00    -0.201 F 
ATOM      8  C6  V1F d          16.208   6.173  14.365  0.00  0.00     0.094 A 
ATOM      9  C1  V1F d          17.615   6.248  14.486  0.00  0.00     0.130 A 
ENDROOT
BRANCH   9  10
ATOM     10  S11 V1F d          18.704   7.464  13.700  0.00  0.00     0.181 S 
ATOM     11  O22 V1F d          19.322   8.528  14.608  0.00  0.00    -0.222 OA
ATOM     12  O23 V1F d          17.903   8.378  12.741  0.00  0.00    -0.222 OA
BRANCH  10  13
ATOM     13  C21 V1F d          20.005   6.606  12.727  0.00  0.00     0.150 C 
BRANCH  13  14
ATOM     14  C24 V1F d          19.588   5.777  11.478  0.00  0.00     0.054 C 
BRANCH  14  15
ATOM     15  C30 V1F d          18.436   4.804  11.456  0.00  0.00    -0.057 A 
ATOM     16  C29 V1F d          18.327   3.734  12.363  0.00  0.00     0.007 A 
ATOM     17  C28 V1F d          17.225   2.853  12.256  0.00  0.00     0.001 A 
ATOM     18  C27 V1F d          16.217   3.003  11.265  0.00  0.00     0.000 A 
ATOM     19  C31 V1F d          16.317   4.088  10.393  0.00  0.00     0.001 A 
ATOM     20  C32 V1F d          17.416   4.956  10.478  0.00  0.00     0.007 A 
ENDBRANCH  14  15
ENDBRANCH  13  14
ENDBRANCH  10  13
ENDBRANCH   9  10
BRANCH   8  21
ATOM     21  N25 V1F d          15.546   7.143  13.594  0.00  0.00    -0.382 N 
ATOM     22  H12 V1F d          15.695   8.144  13.786  0.00  0.00     0.160 HD
BRANCH  21  23
ATOM     23  C14 V1F d          14.658   6.736  12.534  0.00  0.00     0.158 C 
BRANCH  23  24
ATOM     24  C15 V1F d          14.489   7.889  11.630  0.00  0.00    -0.041 A 
ATOM     25  C20 V1F d          13.800   9.023  12.107  0.00  0.00     0.009 A 
ATOM     26  C19 V1F d          13.621  10.131  11.254  0.00  0.00     0.001 A 
ATOM     27  C18 V1F d          14.142  10.090   9.956  0.00  0.00     0.000 A 
ATOM     28  C17 V1F d          14.815   8.942   9.488  0.00  0.00     0.001 A 
ATOM     29  C16 V1F d          14.974   7.834  10.311  0.00  0.00     0.009 A 
ENDBRANCH  23  24
ENDBRANCH  21  23
ENDBRANCH   8  21
BRANCH   3  30
ATOM     30  S7  V1F d          15.357   2.831  16.692  0.00  0.00     0.263 S 
ATOM     31  O9  V1F d          13.850   2.924  16.584  0.00  0.00    -0.201 OA
ATOM     32  O8  V1F d          15.847   3.052  18.082  0.00  0.00    -0.201 OA
BRANCH  30  33
ATOM     33  N10 V1F d          15.785   1.279  16.110  0.00  0.00    -0.324 N 
ATOM     34  H1  V1F d          15.396   0.461  16.534  0.00  0.00     0.169 HD
ATOM     35  H2  V1F d          16.424   1.190  15.346  0.00  0.00     0.169 HD
ENDBRANCH  30  33
ENDBRANCH   3  30
TORSDOF 9
