REMARK  28 active torsions:
REMARK  status: ('A' for Active; 'I' for Inactive)
REMARK    1  A    between atoms: N_1  and  CA_2 
REMARK    2  A    between atoms: CA_2  and  C_3 
REMARK    3  A    between atoms: CA_2  and  CB_5 
REMARK       I    between atoms: C_3  and  N_10 
REMARK    4  A    between atoms: CB_5  and  CG_6 
REMARK    5  A    between atoms: CG_6  and  CD_7 
REMARK    6  A    between atoms: N_10  and  CA_11 
REMARK    7  A    between atoms: CA_11  and  C_12 
REMARK    8  A    between atoms: CA_11  and  CB_14 
REMARK       I    between atoms: C_12  and  N_18 
REMARK    9  A    between atoms: CB_14  and  CG_15 
REMARK   10  A    between atoms: CA_19  and  C_20 
REMARK       I    between atoms: C_20  and  N_25 
REMARK   11  A    between atoms: N_25  and  CA_26 
REMARK   12  A    between atoms: CA_26  and  C_27 
REMARK   13  A    between atoms: CA_26  and  CB_29 
REMARK       I    between atoms: C_27  and  N_33 
REMARK   14  A    between atoms: CB_29  and  CG_30 
REMARK   15  A    between atoms: N_33  and  CA_34 
REMARK   16  A    between atoms: CA_34  and  C_35 
REMARK   17  A    between atoms: CA_34  and  CB_37 
REMARK       I    between atoms: C_35  and  N_40 
REMARK   18  A    between atoms: N_40  and  CA_41 
REMARK   19  A    between atoms: CA_41  and  C_42 
REMARK   20  A    between atoms: CA_41  and  CB_44 
REMARK       I    between atoms: C_42  and  N_49 
REMARK   21  A    between atoms: CB_44  and  CG_45 
REMARK   22  A    between atoms: CG_45  and  CD_46 
REMARK   23  A    between atoms: CD_46  and  CE_47 
REMARK   24  A    between atoms: CE_47  and  NZ_48 
REMARK   25  A    between atoms: N_49  and  CA_50 
REMARK   26  A    between atoms: CA_50  and  C_51 
REMARK   27  A    between atoms: CA_50  and  CB_53 
REMARK   28  A    between atoms: CB_53  and  CG1_54 
ROOT
ATOM      1  CA  GLU d          56.530  87.799  30.009  0.00  0.00     0.177 C 
ENDROOT
BRANCH   1   2
ATOM      2  N   GLU d          56.936  88.279  28.668  0.00  0.00    -0.346 N 
ATOM      3  C   GLU d          56.437  87.736  27.576  0.00  0.00     0.241 C 
ATOM      4  O   GLU d          55.798  86.669  27.568  0.00  0.00    -0.271 OA
ATOM      5  H27 GLU d          57.597  89.025  28.590  0.00  0.00     0.163 HD
BRANCH   3   6
ATOM      6  CA  GLU d          56.735  88.481  26.277  0.00  0.00     0.179 C 
ATOM      7  N   GLU d          56.642  87.509  25.203  0.00  0.00    -0.337 N 
ATOM      8  C   GLU d          57.447  86.425  25.262  0.00  0.00     0.243 C 
ATOM      9  CD  GLU d          55.691  87.926  24.132  0.00  0.00     0.127 C 
ATOM     10  O   GLU d          58.348  86.277  26.094  0.00  0.00    -0.271 OA
ATOM     11  CG  GLU d          55.367  89.377  24.478  0.00  0.00     0.022 C 
ATOM     12  CB  GLU d          55.611  89.503  25.959  0.00  0.00     0.037 C 
BRANCH   8  13
ATOM     13  CA  GLU d          57.252  85.371  24.196  0.00  0.00     0.177 C 
BRANCH  13  14
ATOM     14  N   GLU d          58.554  84.735  24.031  0.00  0.00    -0.346 N 
ATOM     15  C   GLU d          58.991  84.249  22.874  0.00  0.00     0.249 C 
ATOM     16  O   GLU d          58.231  84.050  21.912  0.00  0.00    -0.271 OA
ATOM     17  H9  GLU d          59.150  84.661  24.831  0.00  0.00     0.163 HD
BRANCH  15  18
ATOM     18  CA  GLU d          60.479  83.835  22.825  0.00  0.00     0.275 C 
BRANCH  18  19
ATOM     19  N   GLU d          61.205  84.209  24.087  0.00  0.00    -0.066 N 
ATOM     20  H1  GLU d          62.169  83.924  24.017  0.00  0.00     0.275 HD
ATOM     21  H2  GLU d          60.774  83.747  24.872  0.00  0.00     0.275 HD
ATOM     22  H3  GLU d          61.159  85.207  24.218  0.00  0.00     0.275 HD
ENDBRANCH  18  19
BRANCH  18  23
ATOM     23  CB  GLU d          60.559  82.319  22.613  0.00  0.00     0.053 C 
BRANCH  23  24
ATOM     24  CG  GLU d          59.837  81.529  23.704  0.00  0.00     0.115 C 
BRANCH  24  25
ATOM     25  CD  GLU d          60.136  80.024  23.735  0.00  0.00     0.172 C 
ATOM     26  OE1 GLU d          59.164  79.258  23.624  0.00  0.00    -0.648 OA
ATOM     27  OE2 GLU d          61.311  79.584  23.884  0.00  0.00    -0.648 OA
ENDBRANCH  24  25
ENDBRANCH  23  24
ENDBRANCH  18  23
ENDBRANCH  15  18
ENDBRANCH  13  14
BRANCH  13  28
ATOM     28  CB  GLU d          56.153  84.374  24.647  0.00  0.00     0.038 C 
BRANCH  28  29
ATOM     29  CG  GLU d          55.450  83.575  23.537  0.00  0.00    -0.020 C 
ATOM     30  CD1 GLU d          54.397  82.607  24.081  0.00  0.00     0.009 C 
ATOM     31  CD2 GLU d          54.834  84.496  22.470  0.00  0.00     0.009 C 
ENDBRANCH  28  29
ENDBRANCH  13  28
ENDBRANCH   8  13
ENDBRANCH   3   6
ENDBRANCH   1   2
BRANCH   1  32
ATOM     32  C   GLU d          55.060  87.825  30.340  0.00  0.00     0.241 C 
ATOM     33  O   GLU d          54.321  88.667  29.825  0.00  0.00    -0.271 OA
ATOM     34  N   GLU d          54.642  86.958  31.259  0.00  0.00    -0.346 N 
ATOM     35  H38 GLU d          55.302  86.320  31.655  0.00  0.00     0.163 HD
BRANCH  34  36
ATOM     36  CA  GLU d          53.248  86.906  31.711  0.00  0.00     0.180 C 
BRANCH  36  37
ATOM     37  C   GLU d          53.105  87.556  33.060  0.00  0.00     0.241 C 
ATOM     38  O   GLU d          53.804  87.204  34.019  0.00  0.00    -0.271 OA
ATOM     39  N   GLU d          52.218  88.535  33.117  0.00  0.00    -0.346 N 
ATOM     40  H47 GLU d          51.732  88.802  32.285  0.00  0.00     0.163 HD
BRANCH  39  41
ATOM     41  CA  GLU d          51.936  89.222  34.341  0.00  0.00     0.176 C 
BRANCH  41  42
ATOM     42  C   GLU d          51.261  88.157  35.178  0.00  0.00     0.241 C 
ATOM     43  O   GLU d          50.235  87.637  34.791  0.00  0.00    -0.271 OA
ATOM     44  N   GLU d          51.835  87.755  36.292  0.00  0.00    -0.344 N 
ATOM     45  H60 GLU d          52.681  88.171  36.626  0.00  0.00     0.163 HD
BRANCH  44  46
ATOM     46  CA  GLU d          51.171  86.661  37.024  0.00  0.00     0.189 C 
BRANCH  46  47
ATOM     47  C   GLU d          50.362  87.162  38.230  0.00  0.00     0.197 C 
ATOM     48  O   GLU d          50.773  87.147  39.380  0.00  0.00    -0.646 OA
ATOM     49  OXT GLU d          49.238  87.637  38.064  0.00  0.00    -0.646 OA
ENDBRANCH  46  47
BRANCH  46  50
ATOM     50  CB  GLU d          52.079  85.404  37.322  0.00  0.00     0.014 C 
ATOM     51  CG2 GLU d          53.322  85.773  38.124  0.00  0.00     0.012 C 
BRANCH  50  52
ATOM     52  CG1 GLU d          51.274  84.283  38.041  0.00  0.00     0.002 C 
ATOM     53  CD1 GLU d          51.475  82.848  37.546  0.00  0.00     0.005 C 
ENDBRANCH  50  52
ENDBRANCH  46  50
ENDBRANCH  44  46
ENDBRANCH  41  42
BRANCH  41  54
ATOM     54  CB  GLU d          51.014  90.409  34.014  0.00  0.00     0.035 C 
BRANCH  54  55
ATOM     55  CG  GLU d          50.541  91.202  35.217  0.00  0.00     0.004 C 
BRANCH  55  56
ATOM     56  CD  GLU d          51.667  91.993  35.868  0.00  0.00     0.027 C 
BRANCH  56  57
ATOM     57  CE  GLU d          51.126  93.162  36.700  0.00  0.00     0.229 C 
BRANCH  57  58
ATOM     58  NZ  GLU d          50.270  92.697  37.835  0.00  0.00    -0.079 N 
ATOM     59  H57 GLU d          49.937  93.495  38.353  0.00  0.00     0.274 HD
ATOM     60  H58 GLU d          50.812  92.103  38.443  0.00  0.00     0.274 HD
ATOM     61  H59 GLU d          49.484  92.180  37.473  0.00  0.00     0.274 HD
ENDBRANCH  57  58
ENDBRANCH  56  57
ENDBRANCH  55  56
ENDBRANCH  54  55
ENDBRANCH  41  54
ENDBRANCH  39  41
ENDBRANCH  36  37
BRANCH  36  62
ATOM     62  CB  GLU d          52.734  85.458  31.807  0.00  0.00     0.009 C 
ATOM     63  CG1 GLU d          51.611  85.318  32.827  0.00  0.00     0.012 C 
ATOM     64  CG2 GLU d          52.259  85.012  30.448  0.00  0.00     0.012 C 
ENDBRANCH  36  62
ENDBRANCH  34  36
ENDBRANCH   1  32
BRANCH   1  65
ATOM     65  CB  GLU d          57.232  88.660  31.039  0.00  0.00     0.038 C 
BRANCH  65  66
ATOM     66  CG  GLU d          58.683  88.233  31.223  0.00  0.00    -0.020 C 
ATOM     67  CD1 GLU d          59.432  89.360  31.954  0.00  0.00     0.009 C 
ATOM     68  CD2 GLU d          58.716  86.959  32.039  0.00  0.00     0.009 C 
ENDBRANCH  65  66
ENDBRANCH   1  65
TORSDOF 28
