REMARK  15 active torsions:
REMARK  status: ('A' for Active; 'I' for Inactive)
REMARK    1  A    between atoms: C2_5  and  C1_1 
REMARK    2  A    between atoms: C1_1  and  O3_10 
REMARK    3  A    between atoms: S1_4  and  N1_2 
REMARK    4  A    between atoms: O3_10  and  S1_4 
REMARK    5  A    between atoms: C3_9  and  C2_5 
REMARK    6  A    between atoms: S2_8  and  N2_6 
REMARK    7  A    between atoms: O4_12  and  S2_8 
REMARK    8  A    between atoms: C4_11  and  C3_9 
REMARK    9  A    between atoms: C5_13  and  C4_11 
REMARK   10  A    between atoms: C10_20  and  O4_12 
REMARK   11  A    between atoms: C6_15  and  C5_13 
REMARK   12  A    between atoms: C7_17  and  C6_15 
REMARK   13  A    between atoms: C8_18  and  C7_17 
REMARK   14  A    between atoms: C9_19  and  C8_18 
REMARK   15  A    between atoms: C9_19  and  C10_20 
ROOT
ATOM      1  C5  O60 d          -3.160   5.879  14.179  0.00  0.00     0.000 C 
ENDROOT
BRANCH   1   2
ATOM      2  C4  O60 d          -4.474   5.507  13.558  0.00  0.00     0.000 C 
BRANCH   2   3
ATOM      3  C3  O60 d          -5.107   4.279  14.152  0.00  0.00     0.002 C 
BRANCH   3   4
ATOM      4  C2  O60 d          -4.315   3.027  13.913  0.00  0.00     0.028 C 
BRANCH   4   5
ATOM      5  C1  O60 d          -4.946   1.805  14.460  0.00  0.00     0.192 C 
BRANCH   5   6
ATOM      6  O3  O60 d          -4.999   1.951  15.913  0.00  0.00    -0.260 OA
BRANCH   6   7
ATOM      7  S1  O60 d          -5.762   0.838  16.708  0.00  0.00     0.355 S 
ATOM      8  O1  O60 d          -7.137   1.047  16.442  0.00  0.00    -0.176 OA
ATOM      9  O2  O60 d          -5.289   0.899  18.046  0.00  0.00    -0.176 OA
BRANCH   7  10
ATOM     10  N1  O60 d          -5.318  -0.546  16.085  0.00  0.00    -0.306 N 
ATOM     11  H3  O60 d          -5.690  -1.400  16.448  0.00  0.00     0.171 HD
ATOM     12  H4  O60 d          -4.665  -0.567  15.328  0.00  0.00     0.171 HD
ENDBRANCH   7  10
ENDBRANCH   6   7
ENDBRANCH   5   6
ENDBRANCH   4   5
ENDBRANCH   3   4
ENDBRANCH   2   3
ENDBRANCH   1   2
BRANCH   1  13
ATOM     13  C6  O60 d          -2.519   7.042  13.544  0.00  0.00     0.000 C 
BRANCH  13  14
ATOM     14  C7  O60 d          -1.288   7.511  14.261  0.00  0.00     0.000 C 
BRANCH  14  15
ATOM     15  C8  O60 d          -0.714   8.790  13.714  0.00  0.00     0.002 C 
BRANCH  15  16
ATOM     16  C9  O60 d          -1.616   9.972  13.896  0.00  0.00     0.028 C 
BRANCH  16  17
ATOM     17  C10 O60 d          -1.273  11.107  13.028  0.00  0.00     0.192 C 
BRANCH  17  18
ATOM     18  O4  O60 d          -2.455  11.955  12.993  0.00  0.00    -0.260 OA
BRANCH  18  19
ATOM     19  S2  O60 d          -2.470  13.147  11.969  0.00  0.00     0.355 S 
ATOM     20  O5  O60 d          -1.445  14.045  12.387  0.00  0.00    -0.176 OA
ATOM     21  O6  O60 d          -3.821  13.598  11.907  0.00  0.00    -0.176 OA
BRANCH  19  22
ATOM     22  N2  O60 d          -2.074  12.543  10.555  0.00  0.00    -0.306 N 
ATOM     23  H7  O60 d          -2.023  13.139   9.753  0.00  0.00     0.171 HD
ATOM     24  H8  O60 d          -1.875  11.567  10.466  0.00  0.00     0.171 HD
ENDBRANCH  19  22
ENDBRANCH  18  19
ENDBRANCH  17  18
ENDBRANCH  16  17
ENDBRANCH  15  16
ENDBRANCH  14  15
ENDBRANCH  13  14
ENDBRANCH   1  13
TORSDOF 15
