REMARK  26 active torsions:
REMARK  status: ('A' for Active; 'I' for Inactive)
REMARK    1  A    between atoms: N_1  and  CA_2 
REMARK    2  A    between atoms: CA_2  and  C_3 
REMARK       I    between atoms: C_3  and  N_5 
REMARK    3  A    between atoms: CA_6  and  C_7 
REMARK       I    between atoms: C_7  and  N_12 
REMARK    4  A    between atoms: N_12  and  CA_13 
REMARK    5  A    between atoms: CA_13  and  C_14 
REMARK       I    between atoms: C_14  and  N_16 
REMARK    6  A    between atoms: N_16  and  CA_17 
REMARK    7  A    between atoms: CA_17  and  C_18 
REMARK    8  A    between atoms: CA_17  and  CB_20 
REMARK       I    between atoms: C_18  and  N_25 
REMARK    9  A    between atoms: CB_20  and  CG_21 
REMARK   10  A    between atoms: CG_21  and  CD_22 
REMARK   11  A    between atoms: N_25  and  CA_26 
REMARK   12  A    between atoms: CA_26  and  C_27 
REMARK   13  A    between atoms: CA_26  and  CB_29 
REMARK       I    between atoms: C_27  and  N_34 
REMARK   14  A    between atoms: CB_29  and  CG_30 
REMARK   15  A    between atoms: CG_30  and  CD_31 
REMARK   16  A    between atoms: N_34  and  CA_35 
REMARK   17  A    between atoms: CA_35  and  C_36 
REMARK   18  A    between atoms: CA_35  and  CB_38 
REMARK       I    between atoms: C_36  and  N_42 
REMARK   19  A    between atoms: CB_38  and  CG_39 
REMARK   20  A    between atoms: N_42  and  CA_43 
REMARK   21  A    between atoms: CA_43  and  C_44 
REMARK   22  A    between atoms: CA_43  and  CB_46 
REMARK       I    between atoms: C_44  and  N_50 
REMARK   23  A    between atoms: CB_46  and  CG_47 
REMARK   24  A    between atoms: CA_51  and  C_52 
REMARK       I    between atoms: C_52  and  N_57 
REMARK   25  A    between atoms: N_57  and  CA_58 
REMARK   26  A    between atoms: CA_58  and  C_59 
ROOT
ATOM      1  CA  LEU d          -5.930  25.862 -14.683  0.00  0.00     0.177 C 
ENDROOT
BRANCH   1   2
ATOM      2  N   LEU d          -5.663  27.300 -14.825  0.00  0.00    -0.346 N 
ATOM      3  C   LEU d          -4.667  27.754 -15.585  0.00  0.00     0.241 C 
ATOM      4  O   LEU d          -3.846  27.021 -16.125  0.00  0.00    -0.271 OA
ATOM      5  H22 LEU d          -6.243  27.954 -14.339  0.00  0.00     0.163 HD
BRANCH   3   6
ATOM      6  CA  LEU d          -4.579  29.266 -15.759  0.00  0.00     0.177 C 
BRANCH   6   7
ATOM      7  N   LEU d          -3.203  29.762 -15.655  0.00  0.00    -0.346 N 
ATOM      8  C   LEU d          -2.478  29.678 -14.542  0.00  0.00     0.236 C 
ATOM      9  O   LEU d          -2.908  29.185 -13.477  0.00  0.00    -0.272 OA
ATOM     10  H16 LEU d          -2.788  30.185 -16.461  0.00  0.00     0.163 HD
BRANCH   8  11
ATOM     11  CA  LEU d          -1.057  30.206 -14.646  0.00  0.00     0.225 C 
BRANCH  11  12
ATOM     12  N   LEU d          -0.296  30.123 -13.389  0.00  0.00    -0.351 N 
ATOM     13  C   LEU d           0.331  29.011 -12.999  0.00  0.00     0.241 C 
ATOM     14  O   LEU d           0.371  27.990 -13.688  0.00  0.00    -0.271 OA
ATOM     15  H13 LEU d          -0.247  30.932 -12.803  0.00  0.00     0.163 HD
BRANCH  13  16
ATOM     16  CA  LEU d           1.021  29.017 -11.621  0.00  0.00     0.179 C 
ATOM     17  N   LEU d           1.155  30.313 -10.929  0.00  0.00    -0.337 N 
ATOM     18  C   LEU d           1.969  31.341 -11.273  0.00  0.00     0.246 C 
ATOM     19  CD  LEU d           0.311  30.373  -9.720  0.00  0.00     0.127 C 
ATOM     20  O   LEU d           1.988  32.410 -10.655  0.00  0.00    -0.272 OA
ATOM     21  CG  LEU d          -0.505  29.103  -9.798  0.00  0.00     0.022 C 
ATOM     22  CB  LEU d           0.227  28.169 -10.623  0.00  0.00     0.037 C 
BRANCH  18  23
ATOM     23  CA  LEU d           2.885  31.149 -12.473  0.00  0.00     0.332 C 
BRANCH  23  24
ATOM     24  N   LEU d           4.302  30.908 -12.053  0.00  0.00    -0.071 N 
ATOM     25  H1  LEU d           4.879  30.786 -12.871  0.00  0.00     0.274 HD
ATOM     26  H2  LEU d           4.347  30.078 -11.483  0.00  0.00     0.274 HD
ATOM     27  H3  LEU d           4.634  31.698 -11.523  0.00  0.00     0.274 HD
ENDBRANCH  23  24
ENDBRANCH  18  23
ENDBRANCH  13  16
ENDBRANCH  11  12
ENDBRANCH   8  11
ENDBRANCH   6   7
BRANCH   6  28
ATOM     28  CB  LEU d          -5.208  29.687 -17.099  0.00  0.00     0.045 C 
BRANCH  28  29
ATOM     29  CG  LEU d          -5.488  31.183 -17.148  0.00  0.00     0.116 C 
BRANCH  29  30
ATOM     30  CD  LEU d          -5.799  31.729 -18.540  0.00  0.00     0.172 C 
ATOM     31  OE1 LEU d          -6.689  31.183 -19.240  0.00  0.00    -0.648 OA
ATOM     32  OE2 LEU d          -5.159  32.749 -18.905  0.00  0.00    -0.648 OA
ENDBRANCH  29  30
ENDBRANCH  28  29
ENDBRANCH   6  28
ENDBRANCH   3   6
ENDBRANCH   1   2
BRANCH   1  33
ATOM     33  C   LEU d          -6.076  25.147 -16.038  0.00  0.00     0.241 C 
ATOM     34  O   LEU d          -6.981  25.442 -16.832  0.00  0.00    -0.271 OA
ATOM     35  N   LEU d          -5.183  24.201 -16.295  0.00  0.00    -0.346 N 
ATOM     36  H28 LEU d          -4.512  23.943 -15.600  0.00  0.00     0.163 HD
BRANCH  35  37
ATOM     37  CA  LEU d          -5.181  23.541 -17.588  0.00  0.00     0.186 C 
BRANCH  37  38
ATOM     38  C   LEU d          -6.124  22.335 -17.579  0.00  0.00     0.241 C 
ATOM     39  O   LEU d          -5.709  21.193 -17.725  0.00  0.00    -0.271 OA
ATOM     40  N   LEU d          -7.403  22.637 -17.401  0.00  0.00    -0.346 N 
ATOM     41  H32 LEU d          -7.644  23.593 -17.232  0.00  0.00     0.163 HD
BRANCH  40  42
ATOM     42  CA  LEU d          -8.472  21.657 -17.438  0.00  0.00     0.177 C 
BRANCH  42  43
ATOM     43  C   LEU d          -9.680  22.340 -18.069  0.00  0.00     0.243 C 
ATOM     44  O   LEU d          -9.842  23.567 -17.941  0.00  0.00    -0.271 OA
ATOM     45  N   LEU d         -10.531  21.550 -18.748  0.00  0.00    -0.337 N 
ATOM     46  CA  LEU d         -11.660  22.098 -19.483  0.00  0.00     0.179 C 
ATOM     47  CD  LEU d         -10.461  20.081 -18.854  0.00  0.00     0.127 C 
ATOM     48  CB  LEU d         -12.281  20.861 -20.150  0.00  0.00     0.037 C 
ATOM     49  CG  LEU d         -11.792  19.705 -19.375  0.00  0.00     0.022 C 
BRANCH  46  50
ATOM     50  C   LEU d         -12.694  22.821 -18.607  0.00  0.00     0.241 C 
ATOM     51  O   LEU d         -12.814  22.537 -17.407  0.00  0.00    -0.271 OA
ATOM     52  N   LEU d         -13.426  23.752 -19.225  0.00  0.00    -0.349 N 
ATOM     53  H50 LEU d         -13.156  24.037 -20.145  0.00  0.00     0.163 HD
BRANCH  52  54
ATOM     54  CA  LEU d         -14.613  24.380 -18.617  0.00  0.00     0.235 C 
BRANCH  54  55
ATOM     55  C   LEU d         -15.609  23.356 -18.096  0.00  0.00     0.191 C 
ATOM     56  O   LEU d         -16.214  23.517 -17.023  0.00  0.00    -0.647 OA
ATOM     57  OXT LEU d         -15.827  22.311 -18.720  0.00  0.00    -0.647 OA
ENDBRANCH  54  55
ENDBRANCH  52  54
ENDBRANCH  46  50
ENDBRANCH  42  43
BRANCH  42  58
ATOM     58  CB  LEU d          -8.809  21.110 -16.029  0.00  0.00     0.038 C 
BRANCH  58  59
ATOM     59  CG  LEU d          -7.894  20.031 -15.423  0.00  0.00    -0.020 C 
ATOM     60  CD1 LEU d          -8.372  19.676 -14.006  0.00  0.00     0.009 C 
ATOM     61  CD2 LEU d          -7.859  18.752 -16.295  0.00  0.00     0.009 C 
ENDBRANCH  58  59
ENDBRANCH  42  58
ENDBRANCH  40  42
ENDBRANCH  37  38
BRANCH  37  62
ATOM     62  CB  LEU d          -3.756  23.198 -18.035  0.00  0.00     0.147 C 
BRANCH  62  63
ATOM     63  CG  LEU d          -3.717  22.564 -19.415  0.00  0.00     0.175 C 
ATOM     64  OD1 LEU d          -2.840  21.698 -19.629  0.00  0.00    -0.648 OA
ATOM     65  OD2 LEU d          -4.574  22.909 -20.269  0.00  0.00    -0.648 OA
ENDBRANCH  62  63
ENDBRANCH  37  62
ENDBRANCH  35  37
ENDBRANCH   1  33
BRANCH   1  66
ATOM     66  CB  LEU d          -7.166  25.609 -13.807  0.00  0.00     0.045 C 
BRANCH  66  67
ATOM     67  CG  LEU d          -7.393  24.127 -13.476  0.00  0.00     0.116 C 
BRANCH  67  68
ATOM     68  CD  LEU d          -8.767  23.870 -12.845  0.00  0.00     0.172 C 
ATOM     69  OE1 LEU d          -9.643  24.763 -12.928  0.00  0.00    -0.648 OA
ATOM     70  OE2 LEU d          -8.958  22.782 -12.249  0.00  0.00    -0.648 OA
ENDBRANCH  67  68
ENDBRANCH  66  67
ENDBRANCH   1  66
TORSDOF 26
