REMARK  12 active torsions:
REMARK  status: ('A' for Active; 'I' for Inactive)
REMARK    1  A    between atoms: S1_2  and  C18_4 
REMARK    2  A    between atoms: S1_2  and  N2_14 
REMARK    3  A    between atoms: N2_14  and  C1_15 
REMARK    4  A    between atoms: C2_16  and  O1_17 
REMARK    5  A    between atoms: O1_17  and  C7_18 
REMARK    6  A    between atoms: C10_21  and  C28_22 
REMARK    7  A    between atoms: C28_22  and  N4_23 
REMARK    8  A    between atoms: C28_22  and  N3_24 
REMARK    9  A    between atoms: C3_29  and  O2_31 
REMARK   10  A    between atoms: O2_31  and  C6_32 
REMARK   11  A    between atoms: C15_35  and  C29_36 
REMARK   12  A    between atoms: C29_36  and  N6_37 
ROOT
ATOM      1  C1  N4A d          16.192  63.519  23.081  0.00  0.00     0.096 A 
ATOM      2  C2  N4A d          16.550  62.411  23.797  0.00  0.00     0.200 A 
ATOM      3  C5  N4A d          15.236  64.398  23.577  0.00  0.00     0.039 A 
ATOM      4  C4  N4A d          14.667  64.108  24.811  0.00  0.00     0.061 A 
ATOM      5  C3  N4A d          15.050  62.961  25.528  0.00  0.00     0.172 A 
ATOM      6  N1  N4A d          15.990  62.128  25.003  0.00  0.00    -0.198 NA
ENDROOT
BRANCH   1   7
ATOM      7  N2  N4A d          16.836  63.517  21.905  0.00  0.00    -0.276 N 
ATOM      8  H   N4A d          17.313  62.660  21.710  0.00  0.00     0.179 HD
BRANCH   7   9
ATOM      9  S1  N4A d          16.989  64.592  20.776  0.00  0.00     0.263 S 
ATOM     10  O4  N4A d          17.975  64.132  19.821  0.00  0.00    -0.200 OA
ATOM     11  O3  N4A d          17.756  65.422  21.650  0.00  0.00    -0.200 OA
BRANCH   9  12
ATOM     12  C18 N4A d          15.913  65.613  20.173  0.00  0.00     0.080 A 
ATOM     13  C23 N4A d          15.337  66.658  20.911  0.00  0.00     0.026 A 
ATOM     14  C22 N4A d          14.446  67.548  20.302  0.00  0.00     0.014 A 
ATOM     15  C21 N4A d          14.159  67.403  18.954  0.00  0.00    -0.026 A 
ATOM     16  C27 N4A d          13.279  68.280  18.314  0.00  0.00     0.012 A 
ATOM     17  C20 N4A d          14.765  66.385  18.229  0.00  0.00    -0.025 A 
ATOM     18  C26 N4A d          13.013  68.118  16.961  0.00  0.00     0.001 A 
ATOM     19  C25 N4A d          13.625  67.106  16.249  0.00  0.00     0.001 A 
ATOM     20  C24 N4A d          14.499  66.236  16.888  0.00  0.00     0.012 A 
ATOM     21  C19 N4A d          15.651  65.505  18.821  0.00  0.00     0.037 A 
ENDBRANCH   9  12
ENDBRANCH   7   9
ENDBRANCH   1   7
BRANCH   2  22
ATOM     22  O1  N4A d          17.498  61.634  23.185  0.00  0.00    -0.290 OA
BRANCH  22  23
ATOM     23  C7  N4A d          18.165  60.689  23.903  0.00  0.00     0.078 A 
ATOM     24  C12 N4A d          18.221  59.380  23.428  0.00  0.00     0.038 A 
ATOM     25  C11 N4A d          18.883  58.422  24.181  0.00  0.00     0.018 A 
ATOM     26  C10 N4A d          19.470  58.789  25.399  0.00  0.00     0.007 A 
ATOM     27  C9  N4A d          19.408  60.100  25.870  0.00  0.00     0.018 A 
ATOM     28  C8  N4A d          18.748  61.054  25.121  0.00  0.00     0.038 A 
BRANCH  26  29
ATOM     29  C28 N4A d          20.178  57.735  26.168  0.00  0.00     0.102 C 
BRANCH  29  30
ATOM     30  N4  N4A d          20.798  57.998  27.308  0.00  0.00    -0.385 N 
ATOM     31  H   N4A d          21.280  57.244  27.818  0.00  0.00     0.157 HD
ATOM     32  H   N4A d          20.798  58.956  27.685  0.00  0.00     0.157 HD
ENDBRANCH  29  30
BRANCH  29  33
ATOM     33  N3  N4A d          20.160  56.576  25.699  0.00  0.00    -0.385 N 
ATOM     34  H   N4A d          19.673  56.387  24.811  0.00  0.00     0.157 HD
ATOM     35  H   N4A d          20.632  55.810  26.201  0.00  0.00     0.157 HD
ENDBRANCH  29  33
ENDBRANCH  26  29
ENDBRANCH  22  23
ENDBRANCH   2  22
BRANCH   5  36
ATOM     36  O2  N4A d          14.491  62.675  26.765  0.00  0.00    -0.292 OA
BRANCH  36  37
ATOM     37  C6  N4A d          14.726  63.516  27.837  0.00  0.00     0.077 A 
ATOM     38  C17 N4A d          14.885  63.028  29.145  0.00  0.00     0.038 A 
ATOM     39  C16 N4A d          15.114  63.929  30.211  0.00  0.00     0.018 A 
ATOM     40  C15 N4A d          15.178  65.313  29.979  0.00  0.00     0.007 A 
ATOM     41  C14 N4A d          15.011  65.782  28.687  0.00  0.00     0.018 A 
ATOM     42  C13 N4A d          14.793  64.903  27.639  0.00  0.00     0.038 A 
BRANCH  40  43
ATOM     43  C29 N4A d          15.400  66.354  31.045  0.00  0.00     0.102 C 
ATOM     44  N5  N4A d          14.982  66.168  32.302  0.00  0.00    -0.385 N 
ATOM     45  H   N4A d          14.527  65.283  32.568  0.00  0.00     0.157 HD
ATOM     46  H   N4A d          15.115  66.910  33.004  0.00  0.00     0.157 HD
BRANCH  43  47
ATOM     47  N6  N4A d          15.960  67.450  30.727  0.00  0.00    -0.385 N 
ATOM     48  H   N4A d          16.120  68.173  31.443  0.00  0.00     0.157 HD
ATOM     49  H   N4A d          16.254  67.615  29.754  0.00  0.00     0.157 HD
ENDBRANCH  43  47
ENDBRANCH  40  43
ENDBRANCH  36  37
ENDBRANCH   5  36
TORSDOF 12
