REMARK  5 active torsions:
REMARK  status: ('A' for Active; 'I' for Inactive)
REMARK    1  A    between atoms: C3_3  and  C8_8 
REMARK    2  A    between atoms: C23_23  and  C3_3 
REMARK    3  A    between atoms: C11_11  and  C14_14 
REMARK    4  A    between atoms: N20_20  and  C23_23 
REMARK    5  A    between atoms: C28_28  and  O31_31 
ROOT
ATOM      1  N1  Z93 d          19.353  13.364  -4.810  0.00  0.00    -0.277 N 
ATOM      2  C2  Z93 d          18.366  14.073  -5.456  0.00  0.00     0.260 A 
ATOM      3  C3  Z93 d          18.368  13.717  -6.979  0.00  0.00     0.159 A 
ATOM      4  N4  Z93 d          19.415  12.681  -6.950  0.00  0.00    -0.319 N 
ATOM      5  C5  Z93 d          19.989  12.493  -5.651  0.00  0.00     0.324 A 
ATOM      6  O6  Z93 d          20.890  11.711  -5.273  0.00  0.00    -0.247 OA
ATOM      7  O7  Z93 d          17.643  14.911  -4.939  0.00  0.00    -0.270 OA
ATOM      8  H1  Z93 d          19.578  13.473  -3.842  0.00  0.00     0.173 HD
ATOM      9  H2  Z93 d          19.697  12.161  -7.756  0.00  0.00     0.166 HD
ENDROOT
BRANCH   3  10
ATOM     10  C8  Z93 d          17.062  13.057  -7.361  0.00  0.00    -0.019 A 
ATOM     11  C9  Z93 d          16.570  13.133  -8.696  0.00  0.00     0.011 A 
ATOM     12  C10 Z93 d          15.345  12.536  -9.039  0.00  0.00     0.013 A 
ATOM     13  C11 Z93 d          14.565  11.850  -8.068  0.00  0.00    -0.025 A 
ATOM     14  C12 Z93 d          15.028  11.783  -6.721  0.00  0.00     0.013 A 
ATOM     15  C13 Z93 d          16.264  12.370  -6.367  0.00  0.00     0.011 A 
BRANCH  13  16
ATOM     16  C14 Z93 d          13.280  11.214  -8.436  0.00  0.00    -0.008 A 
ATOM     17  C15 Z93 d          12.259  10.903  -7.476  0.00  0.00     0.015 A 
ATOM     18  C16 Z93 d          11.044  10.311  -7.861  0.00  0.00     0.020 A 
ATOM     19  C17 Z93 d          10.844  10.041  -9.211  0.00  0.00     0.116 A 
ATOM     20  N18 Z93 d          11.757  10.322 -10.189  0.00  0.00    -0.272 NA
ATOM     21  C19 Z93 d          12.953  10.903  -9.784  0.00  0.00     0.128 A 
ENDBRANCH  13  16
ENDBRANCH   3  10
BRANCH   3  22
ATOM     22  C23 Z93 d          18.740  15.072  -7.769  0.00  0.00     0.173 C 
BRANCH  22  23
ATOM     23  N20 Z93 d          20.059  15.499  -7.289  0.00  0.00    -0.341 N 
ATOM     24  C21 Z93 d          20.272  16.286  -6.055  0.00  0.00     0.165 A 
ATOM     25  C25 Z93 d          21.764  16.282  -5.953  0.00  0.00    -0.024 A 
ATOM     26  C24 Z93 d          22.360  15.532  -7.034  0.00  0.00     0.042 A 
ATOM     27  C26 Z93 d          22.537  16.913  -4.985  0.00  0.00     0.012 A 
ATOM     28  C22 Z93 d          21.247  15.020  -7.870  0.00  0.00     0.254 A 
ATOM     29  C29 Z93 d          23.773  15.375  -7.180  0.00  0.00     0.054 A 
ATOM     30  O30 Z93 d          21.349  14.352  -8.881  0.00  0.00    -0.267 OA
ATOM     31  C28 Z93 d          24.558  16.013  -6.185  0.00  0.00     0.069 A 
ATOM     32  C27 Z93 d          23.944  16.756  -5.112  0.00  0.00     0.037 A 
BRANCH  31  33
ATOM     33  O31 Z93 d          25.948  15.922  -6.358  0.00  0.00    -0.356 OA
ATOM     34  C32 Z93 d          26.808  16.565  -5.376  0.00  0.00     0.210 C 
ENDBRANCH  31  33
ENDBRANCH  22  23
ENDBRANCH   3  22
TORSDOF 5
