REMARK  8 active torsions:
REMARK  status: ('A' for Active; 'I' for Inactive)
REMARK    1  A    between atoms: C5'_7  and  C35_9 
REMARK    2  A    between atoms: C35_9  and  N3_10 
REMARK    3  A    between atoms: C5_13  and  C5A_16 
REMARK    4  A    between atoms: C5A_16  and  C5B_17 
REMARK    5  A    between atoms: C5B_17  and  O5G_18 
REMARK    6  A    between atoms: O5G_18  and  P1_19 
REMARK    7  A    between atoms: P1_19  and  O11_20 
REMARK    8  A    between atoms: O11_20  and  P2_23 
ROOT
ATOM      1  N3  TDP d          26.896 -32.700  10.844  0.00  0.00    -0.349 N 
ATOM      2  C2  TDP d          27.528 -32.177  11.905  0.00  0.00     0.141 A 
ATOM      3  S1  TDP d          26.469 -31.597  13.092  0.00  0.00    -0.087 SA
ATOM      4  C5  TDP d          25.093 -32.076  12.133  0.00  0.00     0.008 A 
ATOM      5  C4  TDP d          25.485 -32.660  10.949  0.00  0.00     0.021 A 
ATOM      6  C4A TDP d          24.606 -33.214   9.863  0.00  0.00     0.069 C 
ENDROOT
BRANCH   1   7
ATOM      7  C35 TDP d          27.618 -33.163   9.577  0.00  0.00     0.172 C 
BRANCH   7   8
ATOM      8  C5' TDP d          27.585 -34.670   9.325  0.00  0.00     0.023 A 
ATOM      9  C4' TDP d          28.254 -35.667  10.194  0.00  0.00     0.132 A 
ATOM     10  N3' TDP d          28.227 -37.027   9.854  0.00  0.00    -0.216 NA
ATOM     11  N4' TDP d          28.889 -35.350  11.312  0.00  0.00    -0.383 N 
ATOM     12  C2' TDP d          27.592 -37.409   8.732  0.00  0.00     0.124 A 
ATOM     13  N1' TDP d          26.950 -36.511   7.888  0.00  0.00    -0.245 NA
ATOM     14  C2A TDP d          27.565 -38.849   8.347  0.00  0.00     0.093 C 
ATOM     15  C6' TDP d          26.951 -35.146   8.197  0.00  0.00     0.131 A 
ATOM     16  H4  TDP d          28.942 -34.366  11.613  0.00  0.00     0.157 HD
ATOM     17  H5  TDP d          29.330 -36.087  11.880  0.00  0.00     0.157 HD
ENDBRANCH   7   8
ENDBRANCH   1   7
BRANCH   4  18
ATOM     18  C5A TDP d          23.705 -31.915  12.651  0.00  0.00     0.075 C 
BRANCH  18  19
ATOM     19  C5B TDP d          23.486 -32.829  13.808  0.00  0.00     0.186 C 
BRANCH  19  20
ATOM     20  O5G TDP d          22.096 -32.763  14.196  0.00  0.00    -0.289 OA
BRANCH  20  21
ATOM     21  P1  TDP d          21.537 -33.699  15.370  0.00  0.00     0.418 P 
ATOM     22  O12 TDP d          20.126 -33.393  15.527  0.00  0.00    -0.624 OA
ATOM     23  O13 TDP d          21.929 -35.122  15.109  0.00  0.00    -0.624 OA
BRANCH  21  24
ATOM     24  O11 TDP d          22.363 -33.158  16.640  0.00  0.00    -0.173 OA
BRANCH  24  25
ATOM     25  P2  TDP d          22.302 -31.855  17.568  0.00  0.00     0.431 P 
ATOM     26  O21 TDP d          22.257 -32.396  19.016  0.00  0.00    -0.616 OA
ATOM     27  O22 TDP d          23.554 -31.091  17.360  0.00  0.00    -0.616 OA
ATOM     28  O23 TDP d          21.055 -31.137  17.269  0.00  0.00    -0.616 OA
ENDBRANCH  24  25
ENDBRANCH  21  24
ENDBRANCH  20  21
ENDBRANCH  19  20
ENDBRANCH  18  19
ENDBRANCH   4  18
TORSDOF 8
