REMARK  6 active torsions:
REMARK  status: ('A' for Active; 'I' for Inactive)
REMARK    1  A    between atoms: C6_9  and  N9_10 
REMARK       I    between atoms: N9_10  and  C10_11 
REMARK    2  A    between atoms: C10_11  and  C11_13 
REMARK    3  A    between atoms: C11_13  and  O11_14 
REMARK    4  A    between atoms: C11_13  and  C13_16 
REMARK    5  A    between atoms: C13_16  and  O14_17 
REMARK    6  A    between atoms: O14_17  and  C16_18 
ROOT
ATOM      1  C5  MOL d          26.214   3.382   3.921  0.00  0.00     0.049 A 
ATOM      2  C4  MOL d          25.235   4.373   3.858  0.00  0.00     0.029 A 
ATOM      3  I7  MOL d          23.218   3.878   4.163  0.00  0.00    -0.043 I 
ATOM      4  C3  MOL d          25.612   5.687   3.605  0.00  0.00     0.061 A 
ATOM      5  C8  MOL d          24.646   6.740   3.508  0.00  0.00     0.100 C 
ATOM      6  N8  MOL d          23.888   7.582   3.425  0.00  0.00    -0.191 NA
ATOM      7  C2  MOL d          26.954   6.008   3.422  0.00  0.00     0.026 A 
ATOM      8  C1  MOL d          27.925   5.015   3.486  0.00  0.00     0.031 A 
ATOM      9  C6  MOL d          27.559   3.695   3.736  0.00  0.00     0.036 A 
ENDROOT
BRANCH   9  10
ATOM     10  N9  MOL d          28.541   2.794   3.768  0.00  0.00    -0.324 N 
ATOM     11  C10 MOL d          28.402   1.487   3.976  0.00  0.00     0.258 C 
ATOM     12  O10 MOL d          27.332   0.918   4.186  0.00  0.00    -0.270 OA
ATOM     13  H4  MOL d          29.471   3.132   3.622  0.00  0.00     0.169 HD
BRANCH  11  14
ATOM     14  C11 MOL d          29.719   0.706   3.960  0.00  0.00     0.156 C 
ATOM     15  C12 MOL d          29.597  -0.499   3.024  0.00  0.00     0.059 C 
BRANCH  14  16
ATOM     16  O11 MOL d          30.767   1.573   3.518  0.00  0.00    -0.378 OA
ATOM     17  H5  MOL d          30.838   2.311   4.112  0.00  0.00     0.211 HD
ENDBRANCH  14  16
BRANCH  14  18
ATOM     18  C13 MOL d          30.020   0.218   5.369  0.00  0.00     0.223 C 
BRANCH  18  19
ATOM     19  O14 MOL d          30.129   1.347   6.252  0.00  0.00    -0.348 OA
BRANCH  19  20
ATOM     20  C16 MOL d          29.871   1.064   7.560  0.00  0.00     0.069 A 
ATOM     21  C17 MOL d          30.232  -0.151   8.138  0.00  0.00     0.038 A 
ATOM     22  C18 MOL d          29.998  -0.386   9.490  0.00  0.00     0.025 A 
ATOM     23  C19 MOL d          29.401   0.597  10.272  0.00  0.00     0.044 A 
ATOM     24  C22 MOL d          29.215   0.385  11.676  0.00  0.00     0.099 C 
ATOM     25  C20 MOL d          29.032   1.811   9.698  0.00  0.00     0.025 A 
ATOM     26  N22 MOL d          29.072   0.225  12.793  0.00  0.00    -0.191 NA
ATOM     27  C21 MOL d          29.267   2.043   8.346  0.00  0.00     0.038 A 
ENDBRANCH  19  20
ENDBRANCH  18  19
ENDBRANCH  14  18
ENDBRANCH  11  14
ENDBRANCH   9  10
TORSDOF 6
