REMARK  1 active torsions:
REMARK  status: ('A' for Active; 'I' for Inactive)
REMARK    1  A    between atoms: C1_1  and  C2_4 
ROOT
ATOM      1  C1  PYR d         -48.587 -31.339 -18.092  0.00  0.00     0.216 C 
ATOM      2  O1  PYR d         -49.279 -30.775 -17.139  0.00  0.00    -0.646 OA
ATOM      3  O2  PYR d         -49.107 -31.481 -19.295  0.00  0.00    -0.646 OA
ENDROOT
BRANCH   1   4
ATOM      4  C2  PYR d         -47.298 -31.803 -17.825  0.00  0.00     0.223 C 
ATOM      5  O3  PYR d         -46.599 -32.296 -18.811  0.00  0.00    -0.213 OA
ATOM      6  C3  PYR d         -46.736 -31.789 -16.437  0.00  0.00     0.065 C 
ENDBRANCH   1   4
TORSDOF 1
