REMARK  8 active torsions:
REMARK  status: ('A' for Active; 'I' for Inactive)
REMARK       I    between atoms: N1_3  and  C20_36 
REMARK    1  A    between atoms: C28_44  and  N1_3 
REMARK    2  A    between atoms: O1_4  and  C9_24 
REMARK    3  A    between atoms: C20_36  and  O1_4 
REMARK    4  A    between atoms: N3_10  and  S1_5 
REMARK    5  A    between atoms: S1_5  and  C23_39 
REMARK    6  A    between atoms: C2_6  and  C4_12 
REMARK       I    between atoms: C4_12  and  N3_10 
REMARK       I    between atoms: C35_51  and  N4_13 
REMARK    7  A    between atoms: C30_46  and  O8_23 
REMARK    8  A    between atoms: O8_23  and  C35_51 
ROOT
ATOM      1  C1  TSV d         -12.501  -6.169  17.050  0.00  0.00     0.053 A 
ATOM      2  C2  TSV d         -12.134  -6.639  15.634  0.00  0.00     0.122 A 
ATOM      3  N2  TSV d         -12.406  -8.026  15.359  0.00  0.00    -0.341 N 
ATOM      4  C3  TSV d         -13.420  -5.826  15.884  0.00  0.00     0.048 A 
ATOM      5  O3  TSV d         -15.541  -8.363  15.235  0.00  0.00    -0.271 OA
ATOM      6  C5  TSV d         -13.501  -4.375  15.494  0.00  0.00    -0.023 C 
ATOM      7  N5  TSV d         -14.897  -9.847  13.695  0.00  0.00    -0.334 N 
ATOM      8  O7  TSV d         -13.129  -7.662  13.274  0.00  0.00    -0.271 OA
ATOM      9  C10 TSV d         -14.460  -3.906  14.682  0.00  0.00    -0.030 C 
ATOM     10  C11 TSV d         -12.966  -8.414  14.222  0.00  0.00     0.241 C 
ATOM     11  C13 TSV d         -15.553  -4.772  14.087  0.00  0.00     0.027 C 
ATOM     12  C15 TSV d         -13.507  -9.812  14.177  0.00  0.00     0.181 C 
ATOM     13  C18 TSV d         -15.425  -4.837  12.571  0.00  0.00     0.004 C 
ATOM     14  C19 TSV d         -16.600  -5.608  11.956  0.00  0.00     0.000 C 
ATOM     15  C22 TSV d         -16.508  -7.120  12.201  0.00  0.00     0.002 C 
ATOM     16  C25 TSV d         -17.523  -7.614  13.237  0.00  0.00     0.035 C 
ATOM     17  C27 TSV d         -12.771 -10.669  13.165  0.00  0.00     0.069 C 
ATOM     18  C28 TSV d         -17.214  -9.031  13.708  0.00  0.00     0.179 C 
ATOM     19  C30 TSV d         -13.816 -11.671  12.759  0.00  0.00     0.154 C 
ATOM     20  C33 TSV d         -15.817  -9.073  14.273  0.00  0.00     0.243 C 
ATOM     21  C34 TSV d         -15.055 -10.819  12.599  0.00  0.00     0.159 C 
ATOM     22  H4  TSV d         -12.166  -8.714  16.044  0.00  0.00     0.163 HD
ENDROOT
BRANCH  19  23
ATOM     23  O8  TSV d         -14.080 -12.578  13.820  0.00  0.00    -0.296 OA
BRANCH  23  24
ATOM     24  C35 TSV d         -13.252 -13.756  13.904  0.00  0.00     0.371 C 
ATOM     25  N4  TSV d         -13.415 -14.441  15.017  0.00  0.00    -0.278 N 
ATOM     26  C12 TSV d         -12.862 -15.786  15.275  0.00  0.00     0.114 A 
ATOM     27  C31 TSV d         -14.213 -13.941  16.141  0.00  0.00     0.117 A 
ATOM     28  C24 TSV d         -13.414 -16.093  16.634  0.00  0.00    -0.005 A 
ATOM     29  C16 TSV d         -13.232 -17.256  17.385  0.00  0.00     0.014 A 
ATOM     30  C26 TSV d         -14.156 -15.075  17.121  0.00  0.00     0.030 A 
ATOM     31  C14 TSV d         -13.834 -17.337  18.636  0.00  0.00     0.004 A 
ATOM     32  C17 TSV d         -14.592 -16.282  19.135  0.00  0.00     0.043 A 
ATOM     33  C21 TSV d         -14.764 -15.134  18.355  0.00  0.00     0.128 A 
ATOM     34  F1  TSV d         -15.491 -14.115  18.824  0.00  0.00    -0.205 F 
ATOM     35  O5  TSV d         -12.517 -14.039  12.973  0.00  0.00    -0.238 OA
ENDBRANCH  23  24
ENDBRANCH  19  23
BRANCH  18  36
ATOM     36  N1  TSV d         -18.143  -9.449  14.732  0.00  0.00    -0.324 N 
ATOM     37  C20 TSV d         -18.325 -10.732  15.025  0.00  0.00     0.362 C 
ATOM     38  O2  TSV d         -17.827 -11.665  14.398  0.00  0.00    -0.238 OA
ATOM     39  H3  TSV d         -18.662  -8.756  15.232  0.00  0.00     0.165 HD
BRANCH  37  40
ATOM     40  O1  TSV d         -19.114 -10.977  16.197  0.00  0.00    -0.294 OA
BRANCH  40  41
ATOM     41  C9  TSV d         -19.448 -12.273  16.685  0.00  0.00     0.061 C 
ATOM     42  C6  TSV d         -18.188 -13.077  17.008  0.00  0.00     0.046 C 
ATOM     43  C7  TSV d         -20.264 -12.040  17.946  0.00  0.00     0.046 C 
ATOM     44  C8  TSV d         -20.293 -12.989  15.636  0.00  0.00     0.046 C 
ENDBRANCH  40  41
ENDBRANCH  37  40
ENDBRANCH  18  36
BRANCH   2  45
ATOM     45  C4  TSV d         -10.914  -5.993  15.055  0.00  0.00     0.260 C 
ATOM     46  N3  TSV d         -10.116  -6.757  14.285  0.00  0.00    -0.252 N 
ATOM     47  H6  TSV d         -10.323  -7.723  14.132  0.00  0.00     0.181 HD
ATOM     48  O9  TSV d         -10.659  -4.826  15.286  0.00  0.00    -0.270 OA
BRANCH  46  49
ATOM     49  S1  TSV d          -8.842  -6.087  13.628  0.00  0.00     0.237 S 
ATOM     50  O4  TSV d          -7.922  -5.576  14.602  0.00  0.00    -0.205 OA
ATOM     51  O6  TSV d          -9.260  -5.075  12.682  0.00  0.00    -0.205 OA
BRANCH  49  52
ATOM     52  C23 TSV d          -8.113  -7.296  12.725  0.00  0.00     0.130 A 
ATOM     53  C29 TSV d          -6.662  -7.096  12.288  0.00  0.00     0.023 A 
ATOM     54  C32 TSV d          -6.985  -8.069  13.411  0.00  0.00     0.023 A 
ENDBRANCH  49  52
ENDBRANCH  46  49
ENDBRANCH   2  45
TORSDOF 8
