REMARK  8 active torsions:
REMARK  status: ('A' for Active; 'I' for Inactive)
REMARK    1  A    between atoms: C4_6  and  C5_7 
REMARK    2  A    between atoms: C6_8  and  S1_9 
REMARK    3  A    between atoms: S1_9  and  N1_12 
REMARK    4  A    between atoms: N1_12  and  C12_13 
REMARK    5  A    between atoms: N2_18  and  C15_19 
REMARK    6  A    between atoms: C27_22  and  N4_26 
REMARK    7  A    between atoms: C8_30  and  C10_31 
REMARK    8  A    between atoms: C10_31  and  N5_32 
ROOT
ATOM      1  C12 GSI d           5.927   6.952  22.602  0.00  0.00     0.187 C 
ATOM      2  C13 GSI d           4.583   6.459  22.064  0.00  0.00     0.056 C 
ATOM      3  C14 GSI d           4.973   5.114  21.443  0.00  0.00     0.135 C 
ATOM      4  C50 GSI d           6.965   6.258  21.738  0.00  0.00     0.247 C 
ATOM      5  O3  GSI d           8.133   6.598  21.595  0.00  0.00    -0.271 OA
ATOM      6  N2  GSI d           6.393   5.208  21.139  0.00  0.00    -0.313 N 
ENDROOT
BRANCH   6   7
ATOM      7  C15 GSI d           7.057   4.315  20.345  0.00  0.00     0.076 A 
ATOM      8  C21 GSI d           6.965   2.929  20.635  0.00  0.00     0.035 A 
ATOM      9  C24 GSI d           7.661   2.026  19.805  0.00  0.00     0.032 A 
ATOM     10  C27 GSI d           8.411   2.481  18.705  0.00  0.00     0.043 A 
ATOM     11  C26 GSI d           8.505   3.865  18.423  0.00  0.00     0.074 A 
ATOM     12  C22 GSI d           7.825   4.756  19.261  0.00  0.00     0.145 A 
ATOM     13  F1  GSI d           7.887   6.078  19.015  0.00  0.00    -0.204 F 
BRANCH  10  14
ATOM     14  N4  GSI d           9.100   1.592  17.868  0.00  0.00    -0.307 N 
ATOM     15  C9  GSI d          10.205   0.897  18.284  0.00  0.00     0.118 A 
ATOM     16  C7  GSI d          10.652   0.120  17.188  0.00  0.00     0.136 A 
ATOM     17  N3  GSI d           9.791   0.376  16.167  0.00  0.00    -0.244 NA
ATOM     18  C8  GSI d           8.854   1.263  16.575  0.00  0.00     0.136 A 
BRANCH  18  19
ATOM     19  C10 GSI d           7.737   1.794  15.687  0.00  0.00     0.312 C 
BRANCH  19  20
ATOM     20  N5  GSI d           7.111   0.745  14.851  0.00  0.00    -0.072 N 
ATOM     21  C11 GSI d           6.414  -0.254  15.679  0.00  0.00     0.269 C 
ATOM     22  C16 GSI d           6.170   1.371  13.911  0.00  0.00     0.269 C 
ATOM     23  H18 GSI d           7.833   0.277  14.326  0.00  0.00     0.279 HD
ENDBRANCH  19  20
ENDBRANCH  18  19
ENDBRANCH  10  14
ENDBRANCH   6   7
BRANCH   1  24
ATOM     24  N1  GSI d           6.010   8.386  22.476  0.00  0.00    -0.302 N 
ATOM     25  H5  GSI d           5.710   8.815  21.624  0.00  0.00     0.173 HD
BRANCH  24  26
ATOM     26  S1  GSI d           6.570   9.320  23.664  0.00  0.00     0.249 S 
ATOM     27  O2  GSI d           6.574  10.581  23.002  0.00  0.00    -0.201 OA
ATOM     28  O1  GSI d           5.852   9.025  24.849  0.00  0.00    -0.201 OA
BRANCH  26  29
ATOM     29  C6  GSI d           8.234   8.908  23.962  0.00  0.00     0.132 C 
ATOM     30  C5  GSI d           8.456   8.451  25.212  0.00  0.00     0.032 C 
BRANCH  30  31
ATOM     31  C4  GSI d           9.759   8.039  25.729  0.00  0.00     0.007 A 
ATOM     32  C3  GSI d           9.887   7.357  26.987  0.00  0.00     0.021 A 
ATOM     33  C2  GSI d          11.250   7.032  27.294  0.00  0.00     0.033 A 
ATOM     34  C1  GSI d          12.099   7.504  26.229  0.00  0.00     0.075 A 
ATOM     35 CL1  GSI d          13.822   7.275  26.215  0.00  0.00    -0.076 Cl
ATOM     36  S2  GSI d          11.277   8.277  24.955  0.00  0.00    -0.078 SA
ENDBRANCH  30  31
ENDBRANCH  26  29
ENDBRANCH  24  26
ENDBRANCH   1  24
TORSDOF 8
