REMARK  9 active torsions:
REMARK  status: ('A' for Active; 'I' for Inactive)
REMARK    1  A    between atoms: C25_1  and  C27_3 
REMARK       I    between atoms: N24_15  and  C25_1 
REMARK    2  A    between atoms: C33_9  and  O38_14 
REMARK    3  A    between atoms: C21_16  and  N24_15 
REMARK    4  A    between atoms: C22_17  and  C21_16 
REMARK    5  A    between atoms: C21_16  and  C20_19 
REMARK       I    between atoms: N13_38  and  C22_17 
REMARK    6  A    between atoms: C20_19  and  C17_20 
REMARK    7  A    between atoms: C12_37  and  C5_30 
REMARK    8  A    between atoms: C8_33  and  N10_35 
REMARK    9  A    between atoms: C12_37  and  N13_38 
ROOT
ATOM      1  C21 XJ8 d         -25.941 -54.063 -11.701  0.00  0.00     0.181 C 
ENDROOT
BRANCH   1   2
ATOM      2  N24 XJ8 d         -26.694 -54.424 -10.500  0.00  0.00    -0.343 N 
ATOM      3  C25 XJ8 d         -26.423 -55.516  -9.750  0.00  0.00     0.252 C 
ATOM      4  O26 XJ8 d         -25.514 -56.271 -10.054  0.00  0.00    -0.268 OA
ATOM      5  H7  XJ8 d         -27.449 -53.832 -10.219  0.00  0.00     0.163 HD
BRANCH   3   6
ATOM      6  C27 XJ8 d         -27.300 -55.838  -8.592  0.00  0.00     0.033 A 
ATOM      7  C28 XJ8 d         -28.501 -55.125  -8.403  0.00  0.00     0.019 A 
ATOM      8  C29 XJ8 d         -29.355 -55.412  -7.366  0.00  0.00     0.031 A 
ATOM      9  C30 XJ8 d         -29.042 -56.438  -6.465  0.00  0.00     0.048 A 
ATOM     10  C31 XJ8 d         -27.842 -57.181  -6.655  0.00  0.00     0.025 A 
ATOM     11  N37 XJ8 d         -29.897 -56.777  -5.424  0.00  0.00    -0.323 N 
ATOM     12  C32 XJ8 d         -26.978 -56.882  -7.720  0.00  0.00     0.033 A 
ATOM     13  C33 XJ8 d         -27.527 -58.277  -5.722  0.00  0.00     0.083 A 
ATOM     14  C34 XJ8 d         -28.429 -58.577  -4.728  0.00  0.00     0.111 A 
ATOM     15  C35 XJ8 d         -29.626 -57.821  -4.594  0.00  0.00     0.248 A 
ATOM     16  O36 XJ8 d         -30.423 -58.099  -3.699  0.00  0.00    -0.268 OA
ATOM     17  H5  XJ8 d         -30.730 -56.242  -5.281  0.00  0.00     0.169 HD
BRANCH  13  18
ATOM     18  O38 XJ8 d         -26.360 -58.959  -5.874  0.00  0.00    -0.360 OA
ATOM     19  H6  XJ8 d         -25.839 -58.873  -5.084  0.00  0.00     0.217 HD
ENDBRANCH  13  18
ENDBRANCH   3   6
ENDBRANCH   1   2
BRANCH   1  20
ATOM     20  C22 XJ8 d         -25.115 -52.828 -11.522  0.00  0.00     0.241 C 
ATOM     21  O23 XJ8 d         -25.282 -52.128 -10.547  0.00  0.00    -0.271 OA
ATOM     22  N13 XJ8 d         -24.246 -52.493 -12.502  0.00  0.00    -0.355 N 
ATOM     23  H25 XJ8 d         -24.157 -53.087 -13.301  0.00  0.00     0.162 HD
BRANCH  22  24
ATOM     24  C12 XJ8 d         -23.434 -51.282 -12.419  0.00  0.00     0.162 C 
BRANCH  24  25
ATOM     25  C5  XJ8 d         -21.983 -51.586 -12.184  0.00  0.00    -0.028 A 
ATOM     26  C4  XJ8 d         -21.523 -52.880 -12.096  0.00  0.00     0.010 A 
ATOM     27  C3  XJ8 d         -20.170 -53.159 -11.855  0.00  0.00     0.003 A 
ATOM     28  C2  XJ8 d         -19.273 -52.135 -11.692  0.00  0.00     0.032 A 
ATOM     29  C1  XJ8 d         -19.730 -50.795 -11.761  0.00  0.00     0.070 A 
ATOM     30  C6  XJ8 d         -21.103 -50.506 -12.010  0.00  0.00     0.001 A 
ATOM     31  N7  XJ8 d         -18.883 -49.783 -11.602  0.00  0.00    -0.231 NA
ATOM     32  C11 XJ8 d         -21.544 -49.146 -12.082  0.00  0.00     0.018 A 
ATOM     33  C9  XJ8 d         -20.613 -48.152 -11.910  0.00  0.00     0.051 A 
ATOM     34  C8  XJ8 d         -19.274 -48.525 -11.658  0.00  0.00     0.121 A 
BRANCH  34  35
ATOM     35  N10 XJ8 d         -18.293 -47.562 -11.467  0.00  0.00    -0.384 N 
ATOM     36  H20 XJ8 d         -18.539 -46.562 -11.500  0.00  0.00     0.157 HD
ATOM     37  H21 XJ8 d         -17.319 -47.847 -11.293  0.00  0.00     0.157 HD
ENDBRANCH  34  35
ENDBRANCH  24  25
ENDBRANCH  22  24
ENDBRANCH   1  20
BRANCH   1  38
ATOM     38  C20 XJ8 d         -27.000 -53.664 -12.742  0.00  0.00     0.073 C 
BRANCH  38  39
ATOM     39  C17 XJ8 d         -27.918 -54.784 -13.197  0.00  0.00    -0.056 A 
ATOM     40  C16 XJ8 d         -29.291 -54.645 -13.022  0.00  0.00     0.007 A 
ATOM     41  C15 XJ8 d         -30.150 -55.658 -13.442  0.00  0.00     0.001 A 
ATOM     42  C14 XJ8 d         -29.631 -56.796 -14.060  0.00  0.00     0.000 A 
ATOM     43  C19 XJ8 d         -28.257 -56.938 -14.257  0.00  0.00     0.001 A 
ATOM     44  C18 XJ8 d         -27.402 -55.922 -13.829  0.00  0.00     0.007 A 
ENDBRANCH  38  39
ENDBRANCH   1  38
TORSDOF 9
