REMARK  5 active torsions:
REMARK  status: ('A' for Active; 'I' for Inactive)
REMARK    1  A    between atoms: CAX_10  and  NAS_11 
REMARK       I    between atoms: NAS_11  and  CAU_12 
REMARK       I    between atoms: CAU_12  and  NAT_14 
REMARK    2  A    between atoms: NAT_14  and  CAZ_15 
REMARK    3  A    between atoms: CAY_17  and  CBD_18 
REMARK    4  A    between atoms: NBC_23  and  CAW_24 
REMARK    5  A    between atoms: CAV_29  and  NAD_30 
ROOT
ATOM      1  CAZ MOL d          -1.191  31.256  -7.990  0.00  0.00     0.135 A 
ATOM      2  CAQ MOL d          -1.767  30.203  -7.382  0.00  0.00     0.080 A 
ATOM      3  CAY MOL d          -0.735  29.450  -6.968  0.00  0.00     0.066 A 
ATOM      4  NAR MOL d           0.401  30.038  -7.335  0.00  0.00    -0.169 NA
ATOM      5  NBC MOL d           0.148  31.098  -7.914  0.00  0.00    -0.217 N 
ENDROOT
BRANCH   1   6
ATOM      6  NAT MOL d          -1.820  32.310  -8.562  0.00  0.00    -0.293 N 
ATOM      7  CAU MOL d          -2.839  32.992  -8.010  0.00  0.00     0.326 C 
ATOM      8  NAS MOL d          -3.320  34.040  -8.711  0.00  0.00    -0.308 N 
ATOM      9  OAE MOL d          -3.307  32.694  -6.907  0.00  0.00    -0.247 OA
ATOM     10  H8  MOL d          -2.897  34.267  -9.588  0.00  0.00     0.170 HD
ATOM     11  H9  MOL d          -1.502  32.604  -9.464  0.00  0.00     0.172 HD
BRANCH   8  12
ATOM     12  CAX MOL d          -4.357  34.797  -8.269  0.00  0.00     0.047 A 
ATOM     13  CBB MOL d          -5.316  35.303  -9.167  0.00  0.00     0.001 A 
ATOM     14  CAO MOL d          -5.204  35.041 -10.534  0.00  0.00     0.014 A 
ATOM     15  CBA MOL d          -6.401  36.079  -8.692  0.00  0.00    -0.024 A 
ATOM     16  CAG MOL d          -6.179  35.551 -11.395  0.00  0.00     0.001 A 
ATOM     17  CAF MOL d          -7.246  36.323 -10.930  0.00  0.00     0.001 A 
ATOM     18  CAM MOL d          -7.351  36.585  -9.569  0.00  0.00     0.012 A 
ATOM     19  CAN MOL d          -6.537  36.347  -7.333  0.00  0.00     0.012 A 
ATOM     20  CAI MOL d          -5.593  35.830  -6.448  0.00  0.00     0.003 A 
ATOM     21  CAL MOL d          -4.519  35.078  -6.902  0.00  0.00     0.030 A 
ENDBRANCH   8  12
ENDBRANCH   1   6
BRANCH   5  22
ATOM     22  CAW MOL d           1.132  31.885  -8.395  0.00  0.00     0.062 A 
ATOM     23  CAP MOL d           1.186  33.246  -8.164  0.00  0.00     0.060 A 
ATOM     24  CAV MOL d           2.233  34.025  -8.684  0.00  0.00     0.027 A 
ATOM     25  CAJ MOL d           3.261  33.454  -9.439  0.00  0.00     0.029 A 
ATOM     26  CAH MOL d           3.230  32.082  -9.682  0.00  0.00     0.005 A 
ATOM     27  CAK MOL d           2.170  31.320  -9.149  0.00  0.00     0.032 A 
BRANCH  24  28
ATOM     28  NAD MOL d           2.246  35.337  -8.428  0.00  0.00    -0.399 N 
ATOM     29  H24 MOL d           1.490  35.761  -7.872  0.00  0.00     0.156 HD
ATOM     30  H25 MOL d           3.012  35.924  -8.787  0.00  0.00     0.156 HD
ENDBRANCH  24  28
ENDBRANCH   5  22
BRANCH   3  31
ATOM     31  CBD MOL d          -0.761  28.074  -6.221  0.00  0.00    -0.005 C 
ATOM     32  CAB MOL d          -1.456  27.030  -7.112  0.00  0.00     0.021 C 
ATOM     33  CAC MOL d           0.667  27.619  -5.925  0.00  0.00     0.021 C 
ATOM     34  CAA MOL d          -1.457  28.153  -4.859  0.00  0.00     0.021 C 
ENDBRANCH   3  31
TORSDOF 5
