REMARK  7 active torsions:
REMARK  status: ('A' for Active; 'I' for Inactive)
REMARK    1  A    between atoms: C2_2  and  N3_3 
REMARK    2  A    between atoms: N3_3  and  C4_4 
REMARK    3  A    between atoms: C9_9  and  C20_20 
REMARK    4  A    between atoms: N12_12  and  C13_13 
REMARK    5  A    between atoms: C17_17  and  N19_19 
REMARK    6  A    between atoms: C21_21  and  C22_22 
REMARK    7  A    between atoms: C22_22  and  O25_25 
ROOT
ATOM      1  C4  MOL d          13.007 -34.203  14.056  0.00  0.00     0.722 A 
ATOM      2  N5  MOL d          13.823 -33.412  13.401  0.00  0.00    -0.062 NA
ATOM      3  C6  MOL d          13.596 -32.114  13.765  0.00  0.00     0.104 A 
ATOM      4  C7  MOL d          14.166 -30.888  13.381  0.00  0.00     0.036 A 
ATOM      5  C8  MOL d          13.735 -29.705  13.938  0.00  0.00     0.023 A 
ATOM      6  C9  MOL d          12.698 -29.709  14.882  0.00  0.00     0.020 A 
ATOM      7  C10 MOL d          12.121 -30.920  15.270  0.00  0.00     0.054 A 
ATOM      8  C11 MOL d          12.562 -32.118  14.724  0.00  0.00     0.106 A 
ATOM      9  N12 MOL d          12.206 -33.454  14.888  0.00  0.00     0.031 N 
ENDROOT
BRANCH   9  10
ATOM     10  C13 MOL d          11.238 -33.954  15.754  0.00  0.00     0.765 A 
ATOM     11  N14 MOL d          10.891 -35.248  15.730  0.00  0.00    -0.054 NA
ATOM     12  C15 MOL d           9.974 -35.714  16.579  0.00  0.00     0.272 A 
ATOM     13  N16 MOL d           9.406 -34.890  17.461  0.00  0.00    -0.055 NA
ATOM     14  C17 MOL d           9.768 -33.596  17.488  0.00  0.00     0.737 A 
ATOM     15  N18 MOL d          10.681 -33.135  16.646  0.00  0.00     0.131 NA
BRANCH  14  16
ATOM     16  N19 MOL d           9.207 -32.711  18.374  0.00  0.00    -0.230 N 
ATOM     17  H   MOL d           8.494 -33.034  19.043  0.00  0.00     0.174 HD
ATOM     18  H   MOL d           9.499 -31.723  18.370  0.00  0.00     0.174 HD
ENDBRANCH  14  16
ENDBRANCH   9  10
BRANCH   1  19
ATOM     19  N3  MOL d          12.944 -35.582  13.945  0.00  0.00    -0.224 N 
ATOM     20  H   MOL d          12.399 -36.117  14.636  0.00  0.00     0.177 HD
BRANCH  19  21
ATOM     21  C2  MOL d          13.637 -36.305  12.863  0.00  0.00     0.134 C 
ATOM     22  C1  MOL d          12.722 -36.482  11.648  0.00  0.00     0.027 C 
ENDBRANCH  19  21
ENDBRANCH   1  19
BRANCH   6  23
ATOM     23  C20 MOL d          12.232 -28.485  15.474  0.00  0.00    -0.064 C 
ATOM     24  C21 MOL d          11.833 -27.489  15.954  0.00  0.00    -0.064 C 
BRANCH  24  25
ATOM     25  C22 MOL d          11.271 -26.279  16.588  0.00  0.00     0.114 C 
ATOM     26  C23 MOL d           9.761 -26.506  16.736  0.00  0.00     0.060 C 
ATOM     27  C24 MOL d          11.923 -26.074  17.952  0.00  0.00     0.060 C 
BRANCH  25  28
ATOM     28  O25 MOL d          11.427 -25.106  15.776  0.00  0.00    -0.378 OA
ATOM     29  H   MOL d          12.352 -24.926  15.657  0.00  0.00     0.211 HD
ENDBRANCH  25  28
ENDBRANCH  24  25
ENDBRANCH   6  23
TORSDOF 7
