REMARK  4 active torsions:
REMARK  status: ('A' for Active; 'I' for Inactive)
REMARK    1  A    between atoms: C1_1  and  C2_2 
REMARK    2  A    between atoms: C5_5  and  C8_6 
REMARK    3  A    between atoms: C9_7  and  C10_10 
REMARK    4  A    between atoms: C10_10  and  C11_11 
ROOT
ATOM      1  C11 MOL d          41.046  13.729  84.075  0.00  0.00     0.015 A 
ATOM      2  C12 MOL d          41.500  13.254  82.849  0.00  0.00     0.024 A 
ATOM      3  C13 MOL d          42.637  13.764  82.198  0.00  0.00    -0.042 A 
ATOM      4  C14 MOL d          43.051  13.168  80.844  0.00  0.00    -0.020 C 
ATOM      5  C15 MOL d          44.501  13.601  80.505  0.00  0.00     0.015 C 
ATOM      6  C16 MOL d          44.706  15.080  80.725  0.00  0.00     0.015 C 
ATOM      7  C17 MOL d          44.592  15.451  82.218  0.00  0.00    -0.020 C 
ATOM      8  C18 MOL d          43.348  14.811  82.823  0.00  0.00    -0.043 A 
ATOM      9  C19 MOL d          42.876  15.268  84.046  0.00  0.00     0.009 A 
ATOM     10  C20 MOL d          41.772  14.759  84.663  0.00  0.00     0.016 A 
ATOM     11  C21 MOL d          42.081  13.699  79.809  0.00  0.00     0.020 C 
ATOM     12  C22 MOL d          43.010  11.656  80.873  0.00  0.00     0.020 C 
ATOM     13  C23 MOL d          44.483  16.979  82.238  0.00  0.00     0.020 C 
ATOM     14  C24 MOL d          45.851  15.053  82.986  0.00  0.00     0.020 C 
ENDROOT
BRANCH   1  15
ATOM     15  C10 MOL d          39.846  13.144  84.698  0.00  0.00     0.182 C 
ATOM     16  O3  MOL d          39.514  11.968  84.418  0.00  0.00    -0.288 OA
BRANCH  15  17
ATOM     17  C9  MOL d          38.903  13.902  85.556  0.00  0.00     0.056 C 
ATOM     18  C8  MOL d          38.681  15.199  85.514  0.00  0.00     0.015 C 
BRANCH  18  19
ATOM     19  C5  MOL d          37.790  16.010  86.283  0.00  0.00    -0.036 C 
ATOM     20  C4  MOL d          37.659  17.378  86.056  0.00  0.00     0.012 C 
ATOM     21  C3  MOL d          36.702  18.055  86.759  0.00  0.00     0.019 C 
ATOM     22  C2  MOL d          35.791  17.534  87.632  0.00  0.00     0.040 C 
ATOM     23  C7  MOL d          36.088  16.161  88.062  0.00  0.00     0.019 C 
ATOM     24  C6  MOL d          36.994  15.451  87.262  0.00  0.00     0.012 C 
BRANCH  22  25
ATOM     25  C1  MOL d          34.748  18.156  88.412  0.00  0.00     0.209 C 
ATOM     26  O2  MOL d          34.218  17.763  89.412  0.00  0.00    -0.644 OA
ATOM     27  O1  MOL d          34.406  19.309  87.847  0.00  0.00    -0.644 OA
ENDBRANCH  22  25
ENDBRANCH  18  19
ENDBRANCH  15  17
ENDBRANCH   1  15
TORSDOF 4
