REMARK  5 active torsions:
REMARK  status: ('A' for Active; 'I' for Inactive)
REMARK    1  A    between atoms: C13_21  and  C14_15 
REMARK    2  A    between atoms: C6_25  and  C7_17 
REMARK       I    between atoms: C5_22  and  N3_30 
REMARK    3  A    between atoms: O2_32  and  C5_22 
REMARK    4  A    between atoms: N3_30  and  C4_23 
REMARK    5  A    between atoms: C6_25  and  O2_32 
ROOT
ATOM      1  C22 WSH d           2.468   7.758  17.727  0.00  0.00     0.001 A 
ATOM      2  C23 WSH d           1.303   8.473  17.898  0.00  0.00     0.002 A 
ATOM      3  C21 WSH d           2.987   7.017  18.765  0.00  0.00     0.016 A 
ATOM      4  C24 WSH d           0.653   8.453  19.112  0.00  0.00     0.031 A 
ATOM      5  C20 WSH d           2.341   6.993  19.985  0.00  0.00     0.021 A 
ATOM      6  C25 WSH d           1.178   7.717  20.153  0.00  0.00     0.055 A 
ATOM      7  C3  WSH d           0.179   6.567  22.135  0.00  0.00     0.179 A 
ATOM      8  C2  WSH d          -0.244   8.704  22.013  0.00  0.00     0.131 A 
ATOM      9  C13 WSH d           2.922   6.202  21.080  0.00  0.00     0.076 C 
ATOM     10  C4  WSH d           0.851   5.278  21.716  0.00  0.00     0.283 C 
ATOM     11  C1  WSH d          -0.222  10.105  21.561  0.00  0.00     0.093 C 
ATOM     12  N2  WSH d          -0.665   6.865  23.090  0.00  0.00    -0.130 NA
ATOM     13  N1  WSH d          -0.935   8.213  23.011  0.00  0.00    -0.135 NA
ATOM     14  N4  WSH d           2.303   5.417  21.885  0.00  0.00    -0.254 NA
ATOM     15  N5  WSH d           0.477   7.709  21.406  0.00  0.00    -0.280 N 
ENDROOT
BRANCH  10  16
ATOM     16  N3  WSH d           0.388   4.245  22.600  0.00  0.00    -0.307 N 
ATOM     17  C5  WSH d           0.658   2.952  22.360  0.00  0.00     0.362 C 
ATOM     18  O1  WSH d           1.290   2.529  21.402  0.00  0.00    -0.238 OA
ATOM     19  H21 WSH d          -0.145   4.493  23.409  0.00  0.00     0.167 HD
BRANCH  17  20
ATOM     20  O2  WSH d           0.119   2.168  23.336  0.00  0.00    -0.299 OA
BRANCH  20  21
ATOM     21  C6  WSH d           0.813   0.932  23.535  0.00  0.00     0.219 C 
BRANCH  21  22
ATOM     22  C7  WSH d          -0.176  -0.177  23.667  0.00  0.00    -0.034 A 
ATOM     23  C12 WSH d          -0.708  -0.476  24.899  0.00  0.00     0.009 A 
ATOM     24  C11 WSH d          -1.626  -1.495  25.037  0.00  0.00     0.001 A 
ATOM     25  C10 WSH d          -2.015  -2.220  23.933  0.00  0.00     0.000 A 
ATOM     26  C9  WSH d          -1.484  -1.925  22.696  0.00  0.00     0.001 A 
ATOM     27  C8  WSH d          -0.566  -0.904  22.565  0.00  0.00     0.009 A 
ENDBRANCH  21  22
ENDBRANCH  20  21
ENDBRANCH  17  20
ENDBRANCH  10  16
BRANCH   9  28
ATOM     28  C14 WSH d           4.400   6.343  21.247  0.00  0.00    -0.007 A 
ATOM     29  C19 WSH d           5.020   7.564  21.109  0.00  0.00     0.014 A 
ATOM     30  C18 WSH d           6.382   7.682  21.260  0.00  0.00     0.001 A 
ATOM     31  C17 WSH d           7.139   6.574  21.556  0.00  0.00     0.000 A 
ATOM     32  C16 WSH d           6.529   5.349  21.697  0.00  0.00     0.001 A 
ATOM     33  C15 WSH d           5.163   5.234  21.540  0.00  0.00     0.014 A 
ENDBRANCH   9  28
TORSDOF 5
