REMARK  14 active torsions:
REMARK  status: ('A' for Active; 'I' for Inactive)
REMARK       I    between atoms: N1_26  and  C3_3 
REMARK    1  A    between atoms: C3_3  and  O1_29 
REMARK    2  A    between atoms: O1_29  and  C4_4 
REMARK    3  A    between atoms: C6_6  and  C5_5 
REMARK    4  A    between atoms: C5_5  and  C7_7 
REMARK    5  A    between atoms: C5_5  and  N1_26 
REMARK    6  A    between atoms: C14_14  and  C6_6 
REMARK    7  A    between atoms: C6_6  and  O3_31 
REMARK    8  A    between atoms: C7_7  and  C8_8 
REMARK    9  A    between atoms: N2_27  and  C14_14 
REMARK   10  A    between atoms: C15_15  and  C16_16 
REMARK   11  A    between atoms: N2_27  and  C15_15 
REMARK   12  A    between atoms: S1_35  and  C17_17 
REMARK   13  A    between atoms: C20_20  and  N3_28 
REMARK   14  A    between atoms: N2_27  and  S1_35 
ROOT
ATOM      1  C6  MOL d          13.419  19.445  17.961  0.00  0.00     0.160 C 
ENDROOT
BRANCH   1   2
ATOM      2  C5  MOL d          13.833  20.560  17.000  0.00  0.00     0.121 C 
BRANCH   2   3
ATOM      3  C7  MOL d          14.563  20.066  15.758  0.00  0.00     0.066 C 
BRANCH   3   4
ATOM      4  C8  MOL d          14.967  21.218  14.855  0.00  0.00    -0.056 C 
ATOM      5  C9  MOL d          16.289  21.660  14.798  0.00  0.00     0.007 C 
ATOM      6  C11 MOL d          16.617  22.788  14.035  0.00  0.00     0.001 C 
ATOM      7  C13 MOL d          15.646  23.347  13.221  0.00  0.00     0.000 C 
ATOM      8  C12 MOL d          14.344  22.889  13.224  0.00  0.00     0.001 C 
ATOM      9  C10 MOL d          14.030  21.822  14.048  0.00  0.00     0.007 C 
ENDBRANCH   3   4
ENDBRANCH   2   3
BRANCH   2  10
ATOM     10  N1  MOL d          14.732  21.486  17.681  0.00  0.00    -0.329 N 
ATOM     11  C3  MOL d          14.420  22.724  18.083  0.00  0.00     0.361 C 
ATOM     12  O2  MOL d          13.294  23.222  18.032  0.00  0.00    -0.238 OA
ATOM     13  H32 MOL d          15.662  21.168  17.863  0.00  0.00     0.165 HD
BRANCH  11  14
ATOM     14  O1  MOL d          15.492  23.361  18.640  0.00  0.00    -0.296 OA
BRANCH  14  15
ATOM     15  C4  MOL d          15.271  24.687  19.159  0.00  0.00     0.159 C 
ATOM     16  C1  MOL d          16.610  25.329  19.489  0.00  0.00     0.200 C 
ATOM     17  O6  MOL d          16.952  24.846  20.783  0.00  0.00    -0.389 OA
ATOM     18  C25 MOL d          15.743  24.899  21.512  0.00  0.00     0.170 C 
ATOM     19  C2  MOL d          14.628  24.526  20.552  0.00  0.00     0.061 C 
ENDBRANCH  14  15
ENDBRANCH  11  14
ENDBRANCH   2  10
ENDBRANCH   1   2
BRANCH   1  20
ATOM     20  C14 MOL d          12.331  18.516  17.400  0.00  0.00     0.169 C 
BRANCH  20  21
ATOM     21  N2  MOL d          11.026  19.168  17.379  0.00  0.00    -0.304 N 
BRANCH  21  22
ATOM     22  C15 MOL d          10.092  18.817  18.449  0.00  0.00     0.139 C 
BRANCH  22  23
ATOM     23  C16 MOL d          10.479  19.393  19.813  0.00  0.00    -0.004 C 
ATOM     24  C23 MOL d          10.424  20.922  19.776  0.00  0.00     0.011 C 
ATOM     25  C24 MOL d           9.451  18.895  20.840  0.00  0.00     0.011 C 
ENDBRANCH  22  23
ENDBRANCH  21  22
BRANCH  21  26
ATOM     26  S1  MOL d          10.343  19.505  15.923  0.00  0.00     0.260 S 
ATOM     27  O4  MOL d          11.432  19.853  14.975  0.00  0.00    -0.200 OA
ATOM     28  O5  MOL d           9.271  20.497  16.077  0.00  0.00    -0.200 OA
BRANCH  26  29
ATOM     29  C17 MOL d           9.581  18.042  15.259  0.00  0.00     0.079 A 
ATOM     30  C18 MOL d          10.291  17.147  14.491  0.00  0.00     0.027 A 
ATOM     31  C19 MOL d           9.770  15.941  14.032  0.00  0.00     0.030 A 
ATOM     32  C20 MOL d           8.448  15.629  14.336  0.00  0.00     0.025 A 
ATOM     33  C21 MOL d           7.698  16.574  15.034  0.00  0.00     0.030 A 
ATOM     34  C22 MOL d           8.263  17.760  15.534  0.00  0.00     0.027 A 
BRANCH  32  35
ATOM     35  N3  MOL d           7.939  14.449  13.939  0.00  0.00    -0.399 N 
ATOM     36  H33 MOL d           8.530  13.780  13.425  0.00  0.00     0.156 HD
ATOM     37  H34 MOL d           6.958  14.214  14.149  0.00  0.00     0.156 HD
ENDBRANCH  32  35
ENDBRANCH  26  29
ENDBRANCH  21  26
ENDBRANCH  20  21
ENDBRANCH   1  20
BRANCH   1  38
ATOM     38  O3  MOL d          14.552  18.633  18.272  0.00  0.00    -0.392 OA
ATOM     39  H35 MOL d          15.245  19.180  18.623  0.00  0.00     0.210 HD
ENDBRANCH   1  38
TORSDOF 14
