3u7k_ligand

Created by X-TOOL on Fri Sep 26 17:34:57 2014
 65 66  0  0  0  0  0  0  0  0999 V2000
  -16.7390   84.8790   68.7910  C 0  0  0  1  0  3
  -15.8440   86.3270   70.3670  N 0  0  0  2  0  3
  -15.9900   85.4150   67.9820  O 0  0  0  1  0  1
  -17.0930   85.6700   70.0330  C 0  0  0  2  0  4
  -18.2490   86.6640   69.8370  C 0  0  0  1  0  4
  -18.5860   87.3400   71.1680  C 0  0  0  4  0  4
  -17.9000   87.7850   68.8540  C 0  0  0  4  0  4
  -19.5090   85.9450   69.3590  C 0  0  0  4  0  4
  -15.1350   86.0770   71.4660  C 0  0  0  1  0  3
  -15.5220   85.2850   72.3130  O 0  0  0  1  0  1
  -13.9970   86.7650   71.5590  N 0  0  0  2  0  3
  -13.0740   86.7280   72.5670  C 0  0  0  1  0  3
  -13.2220   85.9280   73.7000  C 0  0  0  2  0  3
  -12.2490   85.9330   74.7050  C 0  0  0  2  0  3
  -11.1210   86.7440   74.5840  C 0  0  0  2  0  3
  -10.9670   87.5440   73.4490  C 0  0  0  2  0  3
  -11.9460   87.5330   72.4470  C 0  0  0  1  0  3
  -11.7950   88.3150   71.3330  O 0  0  0  1  0  2
  -10.5800   88.2480   70.5830  C 0  0  0  4  0  4
  -17.1970   83.6290   68.5680  N 0  0  0  1  0  3
  -16.7910   82.9620   67.3330  C 0  0  0  3  0  4
  -17.9580   82.5640   66.4440  C 0  0  0  1  0  3
  -18.9580   83.2610   66.3100  O 0  0  0  1  0  1
  -17.7880   81.4060   65.8170  N 0  0  0  2  0  3
  -18.7330   80.8890   64.9380  O 0  0  0  2  0  2
  -18.0860   82.8350   69.4290  C 0  0  0  3  0  4
  -17.2520   82.0260   70.4220  C 0  0  0  2  0  4
  -18.1510   81.4890   71.5380  C 0  0  0  3  0  4
  -17.5490   80.1600   71.9850  C 0  0  0  3  0  4
  -16.5180   79.7560   70.9430  C 0  0  0  3  0  4
  -16.6150   80.7840   69.8120  C 0  0  0  3  0  4
  -15.4921   87.0129   69.7300  H 0  0  0  1  0  1
  -17.3795   84.9794   70.8398  H 0  0  0  1  0  1
  -19.4135   88.0494   71.0198  H 0  0  0  1  0  1
  -17.7024   87.8799   71.5392  H 0  0  0  1  0  1
  -18.8844   86.5767   71.9017  H 0  0  0  1  0  1
  -17.6485   87.3496   67.8757  H 0  0  0  1  0  1
  -17.0381   88.3520   69.2354  H 0  0  0  1  0  1
  -18.7627   88.4586   68.7446  H 0  0  0  1  0  1
  -19.7612   85.1393   70.0641  H 0  0  0  1  0  1
  -19.3308   85.5168   68.3615  H 0  0  0  1  0  1
  -20.3424   86.6610   69.3072  H 0  0  0  1  0  1
  -13.7938   87.3830   70.7995  H 0  0  0  1  0  1
  -14.0978   85.2975   73.8025  H 0  0  0  1  0  1
  -12.3721   85.3050   75.5799  H 0  0  0  1  0  1
  -10.3692   86.7536   75.3649  H 0  0  0  1  0  1
  -10.0904   88.1729   73.3437  H 0  0  0  1  0  1
  -10.6374   88.9395   69.7294  H 0  0  0  1  0  1
  -10.4326   87.2221   70.2145  H 0  0  0  1  0  1
   -9.7349   88.5309   71.2278  H 0  0  0  1  0  1
  -16.2294   82.0537   67.5968  H 0  0  0  1  0  1
  -16.1398   83.6444   66.7671  H 0  0  0  1  0  1
  -16.9497   80.8868   65.9831  H 0  0  0  1  0  1
  -18.4251   80.0575   64.5969  H 0  0  0  1  0  1
  -18.6811   82.1497   68.8075  H 0  0  0  1  0  1
  -18.7590   83.5084   69.9799  H 0  0  0  1  0  1
  -16.4696   82.6776   70.8382  H 0  0  0  1  0  1
  -19.1726   81.3345   71.1605  H 0  0  0  1  0  1
  -18.1742   82.1968   72.3797  H 0  0  0  1  0  1
  -18.3358   79.3942   72.0523  H 0  0  0  1  0  1
  -17.0661   80.2768   72.9664  H 0  0  0  1  0  1
  -16.7392   78.7486   70.5605  H 0  0  0  1  0  1
  -15.5094   79.7684   71.3819  H 0  0  0  1  0  1
  -15.6131   81.0203   69.4242  H 0  0  0  1  0  1
  -17.2418   80.3953   68.9959  H 0  0  0  1  0  1
  1  3  2  0  0  2
  1  4  1  0  0  2
  1 20  1  0  0  2
  4  2  1  0  0  2
  2  9  1  0  0  2
  4  5  1  0  0  2
  5  6  1  0  0  2
  5  7  1  0  0  2
  5  8  1  0  0  2
  9 10  2  0  0  2
  9 11  1  0  0  2
 11 12  1  0  0  2
 12 13  4  0  0  1
 12 17  4  0  0  1
 13 14  4  0  0  1
 14 15  4  0  0  1
 15 16  4  0  0  1
 16 17  4  0  0  1
 17 18  1  0  0  2
 18 19  1  0  0  2
 20 21  1  0  0  2
 20 26  1  0  0  2
 21 22  1  0  0  2
 22 23  2  0  0  2
 22 24  1  0  0  2
 24 25  1  0  0  2
 26 27  1  0  0  2
 27 28  1  0  0  1
 27 31  1  0  0  1
 28 29  1  0  0  1
 29 30  1  0  0  1
 30 31  1  0  0  1
  2 32  1  0  0  2
  4 33  1  0  0  2
  6 34  1  0  0  2
  6 35  1  0  0  2
  6 36  1  0  0  2
  7 37  1  0  0  2
  7 38  1  0  0  2
  7 39  1  0  0  2
  8 40  1  0  0  2
  8 41  1  0  0  2
  8 42  1  0  0  2
 11 43  1  0  0  2
 13 44  1  0  0  2
 14 45  1  0  0  2
 15 46  1  0  0  2
 16 47  1  0  0  2
 19 48  1  0  0  2
 19 49  1  0  0  2
 19 50  1  0  0  2
 21 51  1  0  0  2
 21 52  1  0  0  2
 24 53  1  0  0  2
 25 54  1  0  0  2
 26 55  1  0  0  2
 26 56  1  0  0  2
 27 57  1  0  0  2
 28 58  1  0  0  2
 28 59  1  0  0  2
 29 60  1  0  0  2
 29 61  1  0  0  2
 30 62  1  0  0  2
 30 63  1  0  0  2
 31 64  1  0  0  2
 31 65  1  0  0  2
M  END
> <MOLECULAR_FORMULA>
C22H34N4O5

> <MOLECULAR_WEIGHT>
434.3

> <NUM_HB_ATOMS>
8  

> <NUM_ROTOR>
7  

> <XLOGP2>
2.27 

$$$$
