REMARK  8 active torsions:
REMARK  status: ('A' for Active; 'I' for Inactive)
REMARK    1  A    between atoms: C1_1  and  O1'_12 
REMARK    2  A    between atoms: C2_2  and  O2_3 
REMARK    3  A    between atoms: C3_4  and  O3_5 
REMARK    4  A    between atoms: C4_6  and  O4_7 
REMARK    5  A    between atoms: C5_8  and  C6_9 
REMARK    6  A    between atoms: C6_9  and  O6_10 
REMARK    7  A    between atoms: O1'_12  and  C1'_13 
REMARK    8  A    between atoms: C4'_16  and  N1'_19 
ROOT
ATOM      1  C1  MOL d           9.526   8.669   9.763  0.00  0.00     0.298 C 
ATOM      2  C2  MOL d          10.855   8.027  10.033  0.00  0.00     0.205 C 
ATOM      3  C3  MOL d          11.402   7.411   8.832  0.00  0.00     0.183 C 
ATOM      4  C4  MOL d          10.490   6.516   8.238  0.00  0.00     0.180 C 
ATOM      5  C5  MOL d           9.142   7.125   8.018  0.00  0.00     0.179 C 
ATOM      6  O5  MOL d           8.621   7.765   9.232  0.00  0.00    -0.348 OA
ENDROOT
BRANCH   1   7
ATOM      7  O1' MOL d           9.021   9.185  10.959  0.00  0.00    -0.318 OA
BRANCH   7   8
ATOM      8  C1' MOL d           8.093  10.262  10.632  0.00  0.00     0.072 A 
ATOM      9  C2' MOL d           7.912  10.629   9.324  0.00  0.00     0.039 A 
ATOM     10  C3' MOL d           6.998  11.692   8.995  0.00  0.00     0.039 A 
ATOM     11  C4' MOL d           6.327  12.319   9.983  0.00  0.00     0.103 A 
ATOM     12  C5' MOL d           6.512  11.942  11.304  0.00  0.00     0.039 A 
ATOM     13  C6' MOL d           7.414  10.895  11.625  0.00  0.00     0.039 A 
BRANCH  11  14
ATOM     14  N1' MOL d           5.396  13.388   9.669  0.00  0.00    -0.116 N 
ATOM     15  O2' MOL d           5.325  13.868   8.423  0.00  0.00    -0.532 OA
ATOM     16  O3' MOL d           4.591  13.834  10.593  0.00  0.00    -0.532 OA
ENDBRANCH  11  14
ENDBRANCH   7   8
ENDBRANCH   1   7
BRANCH   2  17
ATOM     17  O2  MOL d          11.764   8.978  10.539  0.00  0.00    -0.388 OA
ATOM     18  H3  MOL d          12.600   8.558  10.705  0.00  0.00     0.210 HD
ENDBRANCH   2  17
BRANCH   3  19
ATOM     19  O3  MOL d          12.635   6.718   9.224  0.00  0.00    -0.390 OA
ATOM     20  H5  MOL d          12.432   6.058   9.876  0.00  0.00     0.210 HD
ENDBRANCH   3  19
BRANCH   5  21
ATOM     21  C6  MOL d           8.176   6.091   7.521  0.00  0.00     0.198 C 
BRANCH  21  22
ATOM     22  O6  MOL d           6.993   6.529   7.008  0.00  0.00    -0.398 OA
ATOM     23  H11 MOL d           6.474   5.783   6.730  0.00  0.00     0.209 HD
ENDBRANCH  21  22
ENDBRANCH   5  21
BRANCH   4  24
ATOM     24  O4  MOL d          10.334   5.331   9.070  0.00  0.00    -0.390 OA
ATOM     25  H7  MOL d          11.175   4.900   9.166  0.00  0.00     0.210 HD
ENDBRANCH   4  24
TORSDOF 8
