REMARK  2 active torsions:
REMARK  status: ('A' for Active; 'I' for Inactive)
REMARK    1  A    between atoms: C9_9  and  C10_11 
REMARK    2  A    between atoms: C13_14  and  O4_18 
ROOT
ATOM      1  C1  DFL d          -4.704  34.816 -15.472  0.00  0.00     0.003 A 
ATOM      2  C2  DFL d          -5.430  35.534 -16.432  0.00  0.00     0.001 A 
ATOM      3  C3  DFL d          -6.317  36.530 -16.018  0.00  0.00     0.018 A 
ATOM      4  C4  DFL d          -6.508  36.796 -14.660  0.00  0.00     0.048 A 
ATOM      5  C5  DFL d          -5.745  36.099 -13.717  0.00  0.00     0.090 A 
ATOM      6  C6  DFL d          -4.866  35.091 -14.100  0.00  0.00     0.038 A 
ATOM      7  C7  DFL d          -7.394  37.807 -14.221  0.00  0.00     0.187 A 
ATOM      8  C8  DFL d          -7.404  38.162 -12.875  0.00  0.00     0.093 A 
ATOM      9  C9  DFL d          -6.621  37.490 -11.948  0.00  0.00     0.090 A 
ATOM     10  O1  DFL d          -5.874  36.419 -12.378  0.00  0.00    -0.309 OA
ATOM     11  O2  DFL d          -8.194  38.375 -14.990  0.00  0.00    -0.287 OA
ENDROOT
BRANCH   9  12
ATOM     12  C10 DFL d          -6.589  37.758 -10.524  0.00  0.00    -0.002 A 
ATOM     13  C11 DFL d          -7.392  38.729  -9.906  0.00  0.00     0.017 A 
ATOM     14  C12 DFL d          -7.355  38.994  -8.540  0.00  0.00     0.037 A 
ATOM     15  C13 DFL d          -6.491  38.229  -7.753  0.00  0.00     0.065 A 
ATOM     16  C14 DFL d          -5.695  37.235  -8.319  0.00  0.00     0.037 A 
ATOM     17  C15 DFL d          -5.736  37.006  -9.693  0.00  0.00     0.017 A 
BRANCH  15  18
ATOM     18  O4  DFL d          -6.425  38.428  -6.429  0.00  0.00    -0.361 OA
ATOM     19  H10 DFL d          -7.017  39.130  -6.186  0.00  0.00     0.217 HD
ENDBRANCH  15  18
ENDBRANCH   9  12
TORSDOF 2
