REMARK  8 active torsions:
REMARK  status: ('A' for Active; 'I' for Inactive)
REMARK    1  A    between atoms: C3_3  and  C2_2 
REMARK    2  A    between atoms: N4_16  and  C3_3 
REMARK    3  A    between atoms: C7_4  and  C5_17 
REMARK    4  A    between atoms: C15_9  and  C13_8 
REMARK       I    between atoms: C13_8  and  N12_19 
REMARK    5  A    between atoms: C17_21  and  C15_9 
REMARK    6  A    between atoms: C15_9  and  N30_28 
REMARK    7  A    between atoms: C24_14  and  C17_21 
REMARK       I    between atoms: C5_17  and  N4_16 
REMARK    8  A    between atoms: C17_21  and  C18_22 
ROOT
ATOM      1  C15 MOL d          17.729 -14.970  23.552  0.00  0.00     0.287 C 
ENDROOT
BRANCH   1   2
ATOM      2  C13 MOL d          17.456 -13.638  22.902  0.00  0.00     0.252 C 
ATOM      3  N12 MOL d          18.250 -13.192  21.908  0.00  0.00    -0.337 N 
ATOM      4  C7  MOL d          18.094 -11.915  21.185  0.00  0.00     0.179 C 
ATOM      5  C11 MOL d          19.404 -13.910  21.313  0.00  0.00     0.127 C 
ATOM      6  C9  MOL d          19.118 -11.915  20.026  0.00  0.00     0.037 C 
ATOM      7  C10 MOL d          20.243 -12.838  20.576  0.00  0.00     0.022 C 
ATOM      8  O14 MOL d          16.511 -12.981  23.316  0.00  0.00    -0.271 OA
BRANCH   4   9
ATOM      9  C5  MOL d          16.670 -11.828  20.676  0.00  0.00     0.240 C 
ATOM     10  N4  MOL d          15.992 -10.664  20.819  0.00  0.00    -0.359 N 
ATOM     11  H21 MOL d          16.449  -9.881  21.242  0.00  0.00     0.162 HD
ATOM     12  O6  MOL d          16.158 -12.816  20.162  0.00  0.00    -0.271 OA
BRANCH  10  13
ATOM     13  C3  MOL d          14.608 -10.526  20.369  0.00  0.00     0.122 C 
BRANCH  13  14
ATOM     14  C2  MOL d          13.819  -9.754  21.430  0.00  0.00     0.015 C 
ATOM     15  C1  MOL d          12.368  -9.612  20.967  0.00  0.00     0.006 C 
ENDBRANCH  13  14
ENDBRANCH  10  13
ENDBRANCH   4   9
ENDBRANCH   1   2
BRANCH   1  16
ATOM     16  C17 MOL d          18.229 -14.763  25.000  0.00  0.00     0.091 C 
BRANCH  16  17
ATOM     17  C24 MOL d          19.644 -14.198  25.077  0.00  0.00    -0.047 A 
ATOM     18  C25 MOL d          20.689 -14.747  24.333  0.00  0.00     0.008 A 
ATOM     19  C26 MOL d          21.976 -14.226  24.404  0.00  0.00     0.001 A 
ATOM     20  C27 MOL d          22.242 -13.142  25.225  0.00  0.00     0.000 A 
ATOM     21  C28 MOL d          21.210 -12.591  25.982  0.00  0.00     0.001 A 
ATOM     22  C29 MOL d          19.922 -13.117  25.912  0.00  0.00     0.008 A 
ENDBRANCH  16  17
BRANCH  16  23
ATOM     23  C18 MOL d          18.142 -16.020  25.848  0.00  0.00    -0.047 A 
ATOM     24  C19 MOL d          18.601 -17.254  25.379  0.00  0.00     0.008 A 
ATOM     25  C20 MOL d          18.518 -18.387  26.188  0.00  0.00     0.001 A 
ATOM     26  C21 MOL d          17.970 -18.290  27.466  0.00  0.00     0.000 A 
ATOM     27  C22 MOL d          17.522 -17.059  27.936  0.00  0.00     0.001 A 
ATOM     28  C23 MOL d          17.613 -15.928  27.125  0.00  0.00     0.008 A 
ENDBRANCH  16  23
ENDBRANCH   1  16
BRANCH   1  29
ATOM     29  N30 MOL d          16.494 -15.764  23.478  0.00  0.00    -0.065 N 
ATOM     30  H28 MOL d          16.217 -15.866  22.514  0.00  0.00     0.275 HD
ATOM     31  H29 MOL d          15.763 -15.296  23.990  0.00  0.00     0.275 HD
ATOM     32  H30 MOL d          16.655 -16.675  23.879  0.00  0.00     0.275 HD
ENDBRANCH   1  29
TORSDOF 8
