REMARK  18 active torsions:
REMARK  status: ('A' for Active; 'I' for Inactive)
REMARK    1  A    between atoms: C17_19  and  C16_7 
REMARK       I    between atoms: C21_9  and  N21_21 
REMARK    2  A    between atoms: C23_23  and  C21_9 
REMARK    3  A    between atoms: C22_10  and  C27_12 
REMARK       I    between atoms: N3_33  and  C22_10 
REMARK    4  A    between atoms: C30_13  and  C38_36 
REMARK       I    between atoms: N4_40  and  C30_13 
REMARK    5  A    between atoms: C32_15  and  C31_14 
REMARK    6  A    between atoms: C31_14  and  C33_16 
REMARK    7  A    between atoms: C31_14  and  N3_33 
REMARK    8  A    between atoms: C37_35  and  C32_15 
REMARK    9  A    between atoms: C32_15  and  O31_38 
REMARK   10  A    between atoms: C33_16  and  C34_17 
REMARK   11  A    between atoms: N21_21  and  C17_19 
REMARK   12  A    between atoms: C25_24  and  N22_27 
REMARK   13  A    between atoms: N22_27  and  S2_29 
REMARK   14  A    between atoms: C38_36  and  C37_35 
REMARK   15  A    between atoms: C41_41  and  N4_40 
REMARK   16  A    between atoms: C41_41  and  C42_42 
REMARK   17  A    between atoms: C41_41  and  C45_45 
REMARK       I    between atoms: C45_45  and  N5_46 
REMARK   18  A    between atoms: N5_46  and  C51_47 
ROOT
ATOM      1  C22 MOL d          -3.319  -3.938  30.073  0.00  0.00     0.252 C 
ATOM      2  O22 MOL d          -4.348  -3.845  29.374  0.00  0.00    -0.268 OA
ATOM      3  N3  MOL d          -3.366  -4.299  31.372  0.00  0.00    -0.350 N 
ATOM      4  H28 MOL d          -2.496  -4.346  31.862  0.00  0.00     0.163 HD
ENDROOT
BRANCH   3   5
ATOM      5  C31 MOL d          -4.581  -4.630  32.133  0.00  0.00     0.114 C 
BRANCH   5   6
ATOM      6  C32 MOL d          -5.046  -3.484  33.074  0.00  0.00     0.141 C 
BRANCH   6   7
ATOM      7  C37 MOL d          -5.417  -2.207  32.296  0.00  0.00     0.047 C 
BRANCH   7   8
ATOM      8  C38 MOL d          -6.697  -1.501  32.763  0.00  0.00     0.076 C 
ATOM      9  C39 MOL d          -6.591   0.011  32.408  0.00  0.00     0.020 C 
BRANCH   8  10
ATOM     10  C30 MOL d          -7.975  -2.129  32.115  0.00  0.00     0.222 C 
ATOM     11  O32 MOL d          -7.981  -2.527  30.947  0.00  0.00    -0.273 OA
ATOM     12  N4  MOL d          -9.068  -2.190  32.891  0.00  0.00    -0.347 N 
ATOM     13  H39 MOL d          -9.006  -1.862  33.834  0.00  0.00     0.163 HD
BRANCH  12  14
ATOM     14  C41 MOL d         -10.365  -2.725  32.407  0.00  0.00     0.180 C 
BRANCH  14  15
ATOM     15  C42 MOL d         -11.311  -3.013  33.638  0.00  0.00     0.009 C 
ATOM     16  C43 MOL d         -12.641  -3.661  33.196  0.00  0.00     0.012 C 
ATOM     17  C44 MOL d         -11.695  -1.767  34.477  0.00  0.00     0.012 C 
ENDBRANCH  14  15
BRANCH  14  18
ATOM     18  C45 MOL d         -10.896  -1.693  31.334  0.00  0.00     0.241 C 
ATOM     19  O4  MOL d         -10.827  -0.467  31.523  0.00  0.00    -0.271 OA
ATOM     20  N5  MOL d         -11.394  -2.226  30.210  0.00  0.00    -0.355 N 
ATOM     21  H48 MOL d         -11.411  -3.223  30.134  0.00  0.00     0.162 HD
BRANCH  20  22
ATOM     22  C51 MOL d         -11.916  -1.445  29.084  0.00  0.00     0.076 C 
ATOM     23  C53 MOL d         -13.322  -1.963  28.796  0.00  0.00     0.032 C 
ATOM     24  C52 MOL d         -10.987  -1.668  27.889  0.00  0.00     0.032 C 
ENDBRANCH  20  22
ENDBRANCH  14  18
ENDBRANCH  12  14
ENDBRANCH   8  10
ENDBRANCH   7   8
ENDBRANCH   6   7
BRANCH   6  25
ATOM     25  O31 MOL d          -4.025  -3.120  33.983  0.00  0.00    -0.393 OA
ATOM     26  H38 MOL d          -3.764  -3.882  34.487  0.00  0.00     0.210 HD
ENDBRANCH   6  25
ENDBRANCH   5   6
BRANCH   5  27
ATOM     27  C33 MOL d          -4.259  -5.979  32.873  0.00  0.00     0.031 C 
BRANCH  27  28
ATOM     28  C34 MOL d          -3.346  -7.001  32.105  0.00  0.00    -0.021 C 
ATOM     29  C35 MOL d          -2.800  -8.089  33.039  0.00  0.00     0.009 C 
ATOM     30  C36 MOL d          -4.099  -7.697  30.968  0.00  0.00     0.009 C 
ENDBRANCH  27  28
ENDBRANCH   5  27
ENDBRANCH   3   5
BRANCH   1  31
ATOM     31  C27 MOL d          -1.951  -3.714  29.523  0.00  0.00     0.034 A 
ATOM     32  C26 MOL d          -1.714  -2.761  28.517  0.00  0.00     0.041 A 
ATOM     33  C25 MOL d          -0.406  -2.555  27.973  0.00  0.00     0.026 A 
ATOM     34  C24 MOL d           0.662  -3.361  28.487  0.00  0.00     0.041 A 
ATOM     35  C23 MOL d           0.437  -4.326  29.502  0.00  0.00     0.034 A 
ATOM     36  C28 MOL d          -0.862  -4.471  29.986  0.00  0.00     0.034 A 
BRANCH  33  37
ATOM     37  N22 MOL d          -0.160  -1.568  26.896  0.00  0.00    -0.181 NA
ATOM     38  C29 MOL d          -1.228  -0.566  26.564  0.00  0.00     0.135 C 
BRANCH  37  39
ATOM     39  S2  MOL d           1.410  -0.747  26.999  0.00  0.00     0.211 S 
ATOM     40  C20 MOL d           2.564  -1.573  25.932  0.00  0.00     0.180 C 
ATOM     41  O23 MOL d           1.293   0.730  26.469  0.00  0.00    -0.211 OA
ATOM     42  O24 MOL d           1.997  -0.627  28.454  0.00  0.00    -0.211 OA
ENDBRANCH  37  39
ENDBRANCH  33  37
BRANCH  35  43
ATOM     43  C21 MOL d           1.552  -5.171  30.028  0.00  0.00     0.252 C 
ATOM     44  N21 MOL d           1.569  -5.379  31.358  0.00  0.00    -0.349 N 
ATOM     45  H22 MOL d           0.849  -4.952  31.905  0.00  0.00     0.163 HD
ATOM     46  O21 MOL d           2.407  -5.674  29.280  0.00  0.00    -0.268 OA
BRANCH  44  47
ATOM     47  C17 MOL d           2.566  -6.185  32.058  0.00  0.00     0.114 C 
ATOM     48  C18 MOL d           1.760  -7.271  32.796  0.00  0.00     0.037 C 
BRANCH  47  49
ATOM     49  C16 MOL d           3.475  -5.329  32.968  0.00  0.00    -0.036 A 
ATOM     50  C11 MOL d           4.892  -5.436  32.814  0.00  0.00     0.009 A 
ATOM     51  C12 MOL d           5.765  -4.675  33.624  0.00  0.00     0.001 A 
ATOM     52  C13 MOL d           5.230  -3.798  34.598  0.00  0.00     0.000 A 
ATOM     53  C14 MOL d           3.823  -3.681  34.761  0.00  0.00     0.001 A 
ATOM     54  C15 MOL d           2.948  -4.442  33.949  0.00  0.00     0.009 A 
ENDBRANCH  47  49
ENDBRANCH  44  47
ENDBRANCH  35  43
ENDBRANCH   1  31
TORSDOF 18
