3okv_ligand

Created by X-TOOL on Fri Sep 26 17:34:49 2014
 53 56  0  0  0  0  0  0  0  0999 V2000
   -5.2380    5.8260   15.0670  C 0  0  0  4  0  4
   -1.2650    4.9030   10.2280  C 0  0  0  4  0  4
   -5.4230   -0.3350   16.4610  N 0  0  0  3  0  3
   -1.2530    5.0900    6.9310  O 0  0  0  1  0  1
   -5.4680    1.2950   18.3910  O 0  0  0  1  0  1
   -7.1130    1.6020   16.6270  O 0  0  0  1  0  1
   -4.0990    1.2730   14.2150  C 0  0  0  2  0  3
   -5.0260    3.5870   12.9930  C 0  0  0  2  0  3
   -5.9500    4.4720   15.1510  C 0  0  0  3  0  4
   -0.1020    3.1340    7.8800  C 0  0  0  3  0  4
   -3.1590    0.3170   12.1470  C 0  0  0  3  0  4
   -0.5010    2.3540    9.1530  C 0  0  0  3  0  4
   -2.5880    0.7560   10.8010  C 0  0  0  3  0  4
   -4.1630    4.2820   10.3470  C 0  0  0  3  0  4
   -3.4600    4.6200    9.0060  C 0  0  0  3  0  4
   -4.8710    2.0370   16.3160  O 0  0  0  1  0  2
   -1.1430    4.2610    7.8320  C 0  0  0  1  0  3
   -5.2030    3.4020   14.3680  C 0  0  0  1  0  3
   -3.8940    1.4600   12.8530  C 0  0  0  1  0  3
   -4.7770    2.2170   14.9520  C 0  0  0  1  0  3
   -4.3650    2.6170   12.2390  C 0  0  0  1  0  3
   -4.0750    2.7930   10.7490  C 0  0  0  2  0  4
   -2.6330    2.2690   10.6100  C 0  0  0  2  0  4
   -1.9950    2.6630    9.2790  C 0  0  0  2  0  4
   -2.0030    4.1600    9.0970  C 0  0  0  1  0  4
   -5.7530    1.1560   16.9260  S 0  0  0  1  0  4
   -5.8034    6.5739   15.6423  H 0  0  0  1  0  1
   -5.1756    6.1429   14.0155  H 0  0  0  1  0  1
   -4.2239    5.7335   15.4829  H 0  0  0  1  0  1
   -1.3041    5.9864   10.0415  H 0  0  0  1  0  1
   -0.2158    4.5740   10.2593  H 0  0  0  1  0  1
   -1.7484    4.6790   11.1903  H 0  0  0  1  0  1
   -5.9668   -1.0990   16.8083  H 0  0  0  1  0  1
   -4.6725   -0.5050   15.8224  H 0  0  0  1  0  1
   -3.7229    0.3790   14.6992  H 0  0  0  1  0  1
   -5.4022    4.4835   12.5135  H 0  0  0  1  0  1
   -6.9644    4.5749   14.7381  H 0  0  0  1  0  1
   -6.0127    4.1654   16.2055  H 0  0  0  1  0  1
   -0.1680    2.4953    6.9869  H 0  0  0  1  0  1
    0.9170    3.5392    7.9666  H 0  0  0  1  0  1
   -2.3342   -0.0260   12.7889  H 0  0  0  1  0  1
   -3.8639   -0.5111   11.9817  H 0  0  0  1  0  1
    0.0547    2.7155   10.0308  H 0  0  0  1  0  1
   -0.3278    1.2749    9.0282  H 0  0  0  1  0  1
   -3.1727    0.2821    9.9988  H 0  0  0  1  0  1
   -1.5413    0.4239   10.7371  H 0  0  0  1  0  1
   -5.2253    4.5532   10.2578  H 0  0  0  1  0  1
   -3.6967    4.8823   11.1421  H 0  0  0  1  0  1
   -3.4969    5.7052    8.8300  H 0  0  0  1  0  1
   -3.9640    4.0971    8.1798  H 0  0  0  1  0  1
   -4.7722    2.2030   10.1360  H 0  0  0  1  0  1
   -2.0358    2.7279   11.4117  H 0  0  0  1  0  1
   -2.5521    2.1659    8.4712  H 0  0  0  1  0  1
  9  1  1  0  0  2
 25  2  1  0  0  2
 26  3  1  0  0  2
 17  4  2  0  0  2
 26  5  2  0  0  2
 26  6  2  0  0  2
 19  7  4  0  0  1
  7 20  4  0  0  1
  8 18  4  0  0  1
 21  8  4  0  0  1
 18  9  1  0  0  2
 10 12  1  0  0  1
 17 10  1  0  0  1
 11 13  1  0  0  1
 19 11  1  0  0  1
 12 24  1  0  0  1
 13 23  1  0  0  1
 14 15  1  0  0  1
 22 14  1  0  0  1
 15 25  1  0  0  1
 20 16  1  0  0  2
 16 26  1  0  0  2
 25 17  1  0  0  1
 18 20  4  0  0  1
 21 19  4  0  0  1
 21 22  1  0  0  1
 22 23  1  0  0  1
 23 24  1  0  0  1
 24 25  1  0  0  1
  1 27  1  0  0  2
  1 28  1  0  0  2
  1 29  1  0  0  2
  2 30  1  0  0  2
  2 31  1  0  0  2
  2 32  1  0  0  2
  3 33  1  0  0  2
  3 34  1  0  0  2
  7 35  1  0  0  2
  8 36  1  0  0  2
  9 37  1  0  0  2
  9 38  1  0  0  2
 10 39  1  0  0  2
 10 40  1  0  0  2
 11 41  1  0  0  2
 11 42  1  0  0  2
 12 43  1  0  0  2
 12 44  1  0  0  2
 13 45  1  0  0  2
 13 46  1  0  0  2
 14 47  1  0  0  2
 14 48  1  0  0  2
 15 49  1  0  0  2
 15 50  1  0  0  2
 22 51  1  0  0  2
 23 52  1  0  0  2
 24 53  1  0  0  2
M  END
> <MOLECULAR_FORMULA>
C20H27NO4S

> <MOLECULAR_WEIGHT>
377.3

> <NUM_HB_ATOMS>
5  

> <NUM_ROTOR>
3  

> <XLOGP2>
3.12 

$$$$
