REMARK  14 active torsions:
REMARK  status: ('A' for Active; 'I' for Inactive)
REMARK       I    between atoms: N1_26  and  C3_3 
REMARK    1  A    between atoms: C3_3  and  O1_29 
REMARK    2  A    between atoms: O1_29  and  C4_4 
REMARK    3  A    between atoms: C6_6  and  C5_5 
REMARK    4  A    between atoms: C5_5  and  C7_7 
REMARK    5  A    between atoms: C5_5  and  N1_26 
REMARK    6  A    between atoms: C14_14  and  C6_6 
REMARK    7  A    between atoms: C6_6  and  O3_31 
REMARK    8  A    between atoms: C7_7  and  C8_8 
REMARK    9  A    between atoms: N2_27  and  C14_14 
REMARK   10  A    between atoms: C15_15  and  C16_16 
REMARK   11  A    between atoms: N2_27  and  C15_15 
REMARK   12  A    between atoms: S1_35  and  C17_17 
REMARK   13  A    between atoms: C20_20  and  N3_28 
REMARK   14  A    between atoms: N2_27  and  S1_35 
ROOT
ATOM      1  C6  MOL d          -3.270   2.246   9.249  0.00  0.00     0.155 C 
ENDROOT
BRANCH   1   2
ATOM      2  C5  MOL d          -2.495   3.157  10.239  0.00  0.00     0.120 C 
BRANCH   2   3
ATOM      3  C7  MOL d          -1.128   3.701   9.772  0.00  0.00     0.066 C 
BRANCH   3   4
ATOM      4  C8  MOL d          -0.453   4.474  10.897  0.00  0.00    -0.056 A 
ATOM      5  C9  MOL d           0.689   3.933  11.509  0.00  0.00     0.007 A 
ATOM      6  C11 MOL d           1.341   4.587  12.563  0.00  0.00     0.001 A 
ATOM      7  C13 MOL d           0.829   5.799  13.021  0.00  0.00     0.000 A 
ATOM      8  C12 MOL d          -0.285   6.363  12.413  0.00  0.00     0.001 A 
ATOM      9  C10 MOL d          -0.939   5.720  11.351  0.00  0.00     0.007 A 
ENDBRANCH   3   4
ENDBRANCH   2   3
BRANCH   2  10
ATOM     10  N1  MOL d          -2.276   2.485  11.519  0.00  0.00    -0.329 N 
ATOM     11  C3  MOL d          -2.924   2.780  12.658  0.00  0.00     0.361 C 
ATOM     12  O2  MOL d          -3.767   3.655  12.794  0.00  0.00    -0.238 OA
ATOM     13  H32 MOL d          -1.595   1.753  11.549  0.00  0.00     0.165 HD
BRANCH  11  14
ATOM     14  O1  MOL d          -2.561   1.933  13.782  0.00  0.00    -0.296 OA
BRANCH  14  15
ATOM     15  C4  MOL d          -3.393   2.053  14.929  0.00  0.00     0.159 C 
ATOM     16  C1  MOL d          -2.662   1.363  16.067  0.00  0.00     0.200 C 
ATOM     17  O6  MOL d          -3.095   0.010  16.000  0.00  0.00    -0.389 OA
ATOM     18  C25 MOL d          -4.480   0.060  15.695  0.00  0.00     0.170 C 
ATOM     19  C2  MOL d          -4.639   1.238  14.735  0.00  0.00     0.061 C 
ENDBRANCH  14  15
ENDBRANCH  11  14
ENDBRANCH   2  10
ENDBRANCH   1   2
BRANCH   1  20
ATOM     20  C14 MOL d          -3.739   2.932   7.951  0.00  0.00     0.141 C 
BRANCH  20  21
ATOM     21  N2  MOL d          -4.899   3.789   8.289  0.00  0.00    -0.204 NA
BRANCH  21  22
ATOM     22  C15 MOL d          -6.196   3.267   7.796  0.00  0.00     0.111 C 
BRANCH  22  23
ATOM     23  C16 MOL d          -6.862   2.312   8.818  0.00  0.00    -0.009 C 
ATOM     24  C23 MOL d          -7.053   2.942  10.189  0.00  0.00     0.011 C 
ATOM     25  C24 MOL d          -8.231   1.828   8.349  0.00  0.00     0.011 C 
ENDBRANCH  22  23
ENDBRANCH  21  22
BRANCH  21  26
ATOM     26  S1  MOL d          -4.577   5.369   8.022  0.00  0.00     0.243 S 
ATOM     27  O4  MOL d          -3.223   5.630   8.410  0.00  0.00    -0.206 OA
ATOM     28  O5  MOL d          -5.528   6.080   8.838  0.00  0.00    -0.206 OA
BRANCH  26  29
ATOM     29  C17 MOL d          -4.678   5.818   6.479  0.00  0.00     0.074 A 
ATOM     30  C18 MOL d          -3.507   5.929   5.722  0.00  0.00     0.027 A 
ATOM     31  C19 MOL d          -3.580   6.314   4.376  0.00  0.00     0.030 A 
ATOM     32  C20 MOL d          -4.825   6.559   3.797  0.00  0.00     0.025 A 
ATOM     33  C21 MOL d          -5.983   6.446   4.552  0.00  0.00     0.030 A 
ATOM     34  C22 MOL d          -5.914   6.073   5.896  0.00  0.00     0.027 A 
BRANCH  32  35
ATOM     35  N3  MOL d          -4.927   6.922   2.488  0.00  0.00    -0.399 N 
ATOM     36  H33 MOL d          -4.079   7.011   1.911  0.00  0.00     0.156 HD
ATOM     37  H34 MOL d          -5.853   7.107   2.075  0.00  0.00     0.156 HD
ENDBRANCH  32  35
ENDBRANCH  26  29
ENDBRANCH  21  26
ENDBRANCH  20  21
ENDBRANCH   1  20
BRANCH   1  38
ATOM     38  O3  MOL d          -2.519   1.063   8.900  0.00  0.00    -0.392 OA
ATOM     39  H35 MOL d          -2.224   0.631   9.693  0.00  0.00     0.210 HD
ENDBRANCH   1  38
TORSDOF 14
