REMARK  17 active torsions:
REMARK  status: ('A' for Active; 'I' for Inactive)
REMARK    1  A    between atoms: O1_2  and  C2_3 
REMARK    2  A    between atoms: C5_6  and  S1_9 
REMARK    3  A    between atoms: S1_9  and  N1_12 
REMARK    4  A    between atoms: N1_12  and  C8_13 
REMARK    5  A    between atoms: N1_12  and  C12_17 
REMARK    6  A    between atoms: C8_13  and  C9_14 
REMARK    7  A    between atoms: C12_17  and  C13_18 
REMARK    8  A    between atoms: C13_18  and  O4_19 
REMARK    9  A    between atoms: C13_18  and  C14_20 
REMARK   10  A    between atoms: C14_20  and  C15_21 
REMARK   11  A    between atoms: C14_20  and  N2_28 
REMARK   12  A    between atoms: C15_21  and  C16_22 
REMARK   13  A    between atoms: C23_30  and  C24_31 
REMARK   14  A    between atoms: C24_31  and  O5_32 
REMARK   15  A    between atoms: O5_32  and  C25_33 
REMARK       I    between atoms: C25_33  and  N3_35 
REMARK   16  A    between atoms: N3_35  and  C26_36 
REMARK   17  A    between atoms: C27_37  and  O7_38 
ROOT
ATOM      1  C14 AB2 d         -10.492  16.391  27.745  0.00  0.00     0.146 C 
ENDROOT
BRANCH   1   2
ATOM      2  C13 AB2 d         -10.164  17.875  27.344  0.00  0.00     0.162 C 
BRANCH   2   3
ATOM      3  C12 AB2 d          -9.959  17.973  25.798  0.00  0.00     0.169 C 
BRANCH   3   4
ATOM      4  N1  AB2 d          -8.707  17.423  25.258  0.00  0.00    -0.304 N 
BRANCH   4   5
ATOM      5  S1  AB2 d          -8.806  15.902  24.431  0.00  0.00     0.260 S 
ATOM      6  O2  AB2 d         -10.013  15.157  24.362  0.00  0.00    -0.200 OA
ATOM      7  O3  AB2 d          -7.779  15.005  24.874  0.00  0.00    -0.200 OA
BRANCH   5   8
ATOM      8  C5  AB2 d          -8.499  16.218  22.720  0.00  0.00     0.079 A 
ATOM      9  C4  AB2 d          -9.541  16.605  21.912  0.00  0.00     0.028 A 
ATOM     10  C3  AB2 d          -9.278  16.893  20.562  0.00  0.00     0.038 A 
ATOM     11  C2  AB2 d          -7.986  16.702  20.079  0.00  0.00     0.068 A 
ATOM     12  C7  AB2 d          -6.932  16.313  20.898  0.00  0.00     0.038 A 
ATOM     13  C6  AB2 d          -7.190  16.085  22.257  0.00  0.00     0.028 A 
BRANCH  11  14
ATOM     14  O1  AB2 d          -7.726  16.906  18.755  0.00  0.00    -0.356 OA
ATOM     15  C1  AB2 d          -6.618  16.243  18.149  0.00  0.00     0.210 C 
ENDBRANCH  11  14
ENDBRANCH   5   8
ENDBRANCH   4   5
BRANCH   4  16
ATOM     16  C8  AB2 d          -7.503  18.078  25.723  0.00  0.00     0.139 C 
BRANCH  16  17
ATOM     17  C9  AB2 d          -6.632  17.513  26.854  0.00  0.00    -0.004 C 
ATOM     18  C10 AB2 d          -5.647  16.409  26.439  0.00  0.00     0.011 C 
ATOM     19  C11 AB2 d          -6.187  18.491  27.938  0.00  0.00     0.011 C 
ENDBRANCH  16  17
ENDBRANCH   4  16
ENDBRANCH   3   4
ENDBRANCH   2   3
BRANCH   2  20
ATOM     20  O4  AB2 d         -11.150  18.772  27.764  0.00  0.00    -0.392 OA
ATOM     21  H20 AB2 d         -11.262  18.700  28.705  0.00  0.00     0.210 HD
ENDBRANCH   2  20
ENDBRANCH   1   2
BRANCH   1  22
ATOM     22  C15 AB2 d         -12.024  16.051  27.622  0.00  0.00     0.068 C 
BRANCH  22  23
ATOM     23  C16 AB2 d         -12.211  14.549  27.850  0.00  0.00    -0.056 A 
ATOM     24  C17 AB2 d         -12.022  13.672  26.781  0.00  0.00     0.007 A 
ATOM     25  C18 AB2 d         -12.138  12.310  27.034  0.00  0.00     0.001 A 
ATOM     26  C19 AB2 d         -12.532  11.907  28.300  0.00  0.00     0.000 A 
ATOM     27  C20 AB2 d         -12.767  12.766  29.363  0.00  0.00     0.001 A 
ATOM     28  C21 AB2 d         -12.596  14.133  29.113  0.00  0.00     0.007 A 
ENDBRANCH  22  23
ENDBRANCH   1  22
BRANCH   1  29
ATOM     29  N2  AB2 d          -9.894  16.096  29.047  0.00  0.00    -0.253 N 
ATOM     30  C22 AB2 d         -10.387  16.298  30.309  0.00  0.00     0.145 A 
ATOM     31  C23 AB2 d          -9.417  15.880  31.197  0.00  0.00     0.099 A 
ATOM     32  N4  AB2 d          -8.391  15.364  30.470  0.00  0.00    -0.133 NA
ATOM     33  N5  AB2 d          -8.666  15.549  29.218  0.00  0.00    -0.066 NA
BRANCH  31  34
ATOM     34  C24 AB2 d          -9.535  15.877  32.690  0.00  0.00     0.243 C 
BRANCH  34  35
ATOM     35  O5  AB2 d         -10.831  15.383  33.004  0.00  0.00    -0.298 OA
BRANCH  35  36
ATOM     36  C25 AB2 d         -11.387  15.369  34.231  0.00  0.00     0.361 C 
ATOM     37  O6  AB2 d         -11.467  16.404  34.858  0.00  0.00    -0.238 OA
ATOM     38  N3  AB2 d         -11.816  14.165  34.674  0.00  0.00    -0.326 N 
ATOM     39  H32 AB2 d         -11.248  13.712  35.362  0.00  0.00     0.165 HD
BRANCH  38  40
ATOM     40  C26 AB2 d         -13.049  13.442  34.243  0.00  0.00     0.149 C 
ATOM     41  C27 AB2 d         -13.445  13.640  32.752  0.00  0.00     0.149 C 
ATOM     42  C28 AB2 d         -13.890  12.251  32.317  0.00  0.00     0.073 C 
ATOM     43  C29 AB2 d         -13.172  11.274  33.255  0.00  0.00    -0.047 A 
ATOM     44  C30 AB2 d         -12.954   9.903  33.156  0.00  0.00     0.008 A 
ATOM     45  C34 AB2 d         -12.689  11.976  34.352  0.00  0.00    -0.026 A 
ATOM     46  C31 AB2 d         -12.261   9.224  34.164  0.00  0.00     0.001 A 
ATOM     47  C32 AB2 d         -11.783   9.936  35.252  0.00  0.00     0.001 A 
ATOM     48  C33 AB2 d         -11.958  11.303  35.321  0.00  0.00     0.010 A 
BRANCH  41  49
ATOM     49  O7  AB2 d         -14.320  14.716  32.426  0.00  0.00    -0.393 OA
ATOM     50  H35 AB2 d         -14.478  14.722  31.489  0.00  0.00     0.210 HD
ENDBRANCH  41  49
ENDBRANCH  38  40
ENDBRANCH  35  36
ENDBRANCH  34  35
ENDBRANCH  31  34
ENDBRANCH   1  29
TORSDOF 17
