REMARK  10 active torsions:
REMARK  status: ('A' for Active; 'I' for Inactive)
REMARK    1  A    between atoms: C1_2  and  O1_1 
REMARK    2  A    between atoms: C1_2  and  C_10 
REMARK    3  A    between atoms: CA_13  and  C1_2 
REMARK    4  A    between atoms: CB_3  and  CG_4 
REMARK    5  A    between atoms: CA_13  and  CB_3 
REMARK       I    between atoms: C_10  and  N1_14 
REMARK    6  A    between atoms: CA_13  and  N_12 
REMARK    7  A    between atoms: CA1_15  and  C2_16 
REMARK       I    between atoms: C2_16  and  N2_21 
REMARK    8  A    between atoms: CA2_22  and  C3_23 
REMARK       I    between atoms: C3_23  and  N3_28 
REMARK    9  A    between atoms: N3_28  and  CA3_29 
REMARK   10  A    between atoms: CA3_29  and  C4_30 
REMARK       I    between atoms: C4_30  and  N4_33 
ROOT
ATOM      1  C   ATN d          28.564  57.396  43.080  0.00  0.00     0.251 C 
ATOM      2  O   ATN d          28.383  58.506  43.583  0.00  0.00    -0.270 OA
ATOM      3  N1  ATN d          28.293  57.137  41.790  0.00  0.00    -0.336 N 
ATOM      4  CA1 ATN d          27.768  58.128  40.852  0.00  0.00     0.179 C 
ATOM      5  CB1 ATN d          27.169  57.263  39.759  0.00  0.00     0.037 C 
ATOM      6  CG1 ATN d          28.168  56.152  39.679  0.00  0.00     0.022 C 
ATOM      7  CD  ATN d          28.383  55.813  41.143  0.00  0.00     0.127 C 
ENDROOT
BRANCH   4   8
ATOM      8  C2  ATN d          26.775  59.114  41.447  0.00  0.00     0.243 C 
ATOM      9  O2  ATN d          25.658  58.753  41.812  0.00  0.00    -0.271 OA
ATOM     10  N2  ATN d          27.177  60.390  41.529  0.00  0.00    -0.337 N 
ATOM     11  CA2 ATN d          26.395  61.503  42.065  0.00  0.00     0.179 C 
ATOM     12  CD3 ATN d          28.378  60.901  40.843  0.00  0.00     0.127 C 
ATOM     13  CB2 ATN d          27.015  62.705  41.367  0.00  0.00     0.037 C 
ATOM     14  CG2 ATN d          28.448  62.332  41.311  0.00  0.00     0.022 C 
BRANCH  11  15
ATOM     15  C3  ATN d          24.892  61.388  41.801  0.00  0.00     0.241 C 
ATOM     16  O3  ATN d          24.448  61.441  40.659  0.00  0.00    -0.271 OA
ATOM     17  N3  ATN d          24.119  61.230  42.870  0.00  0.00    -0.346 N 
ATOM     18  H28 ATN d          24.545  61.187  43.774  0.00  0.00     0.163 HD
BRANCH  17  19
ATOM     19  CA3 ATN d          22.671  61.117  42.767  0.00  0.00     0.172 C 
ATOM     20  CB3 ATN d          22.173  59.977  43.627  0.00  0.00     0.042 C 
BRANCH  19  21
ATOM     21  C4  ATN d          22.022  62.433  43.201  0.00  0.00     0.237 C 
ATOM     22  O4  ATN d          21.763  63.319  42.376  0.00  0.00    -0.271 OA
ATOM     23  N4  ATN d          21.769  62.585  44.494  0.00  0.00    -0.368 N 
ATOM     24  H33 ATN d          21.346  63.428  44.825  0.00  0.00     0.159 HD
ATOM     25  H34 ATN d          22.002  61.856  45.138  0.00  0.00     0.159 HD
ENDBRANCH  19  21
ENDBRANCH  17  19
ENDBRANCH  11  15
ENDBRANCH   4   8
BRANCH   1  26
ATOM     26  C1  ATN d          29.114  56.244  43.906  0.00  0.00     0.240 C 
BRANCH  26  27
ATOM     27  O1  ATN d          30.507  56.466  44.181  0.00  0.00    -0.384 OA
ATOM     28  H1  ATN d          30.846  55.744  44.697  0.00  0.00     0.210 HD
ENDBRANCH  26  27
BRANCH  26  29
ATOM     29  CA  ATN d          28.320  56.092  45.216  0.00  0.00     0.225 C 
BRANCH  29  30
ATOM     30  CB  ATN d          26.882  55.635  44.910  0.00  0.00     0.074 C 
BRANCH  30  31
ATOM     31  CG  ATN d          25.875  55.958  46.001  0.00  0.00    -0.056 A 
ATOM     32  CD1 ATN d          25.872  57.204  46.632  0.00  0.00     0.007 A 
ATOM     33  CE1 ATN d          24.892  57.530  47.578  0.00  0.00     0.001 A 
ATOM     34  CZ  ATN d          23.904  56.607  47.903  0.00  0.00     0.000 A 
ATOM     35  CE2 ATN d          23.897  55.357  47.285  0.00  0.00     0.001 A 
ATOM     36  CD2 ATN d          24.882  55.041  46.341  0.00  0.00     0.007 A 
ENDBRANCH  30  31
ENDBRANCH  29  30
BRANCH  29  37
ATOM     37  N   ATN d          28.993  55.105  46.117  0.00  0.00    -0.072 N 
ATOM     38  H10 ATN d          29.933  55.413  46.311  0.00  0.00     0.274 HD
ATOM     39  H11 ATN d          29.021  54.204  45.666  0.00  0.00     0.274 HD
ATOM     40  H12 ATN d          28.478  55.033  46.981  0.00  0.00     0.274 HD
ENDBRANCH  29  37
ENDBRANCH  26  29
ENDBRANCH   1  26
TORSDOF 10
