REMARK  4 active torsions:
REMARK  status: ('A' for Active; 'I' for Inactive)
REMARK    1  A    between atoms: C13_10  and  N15_14 
REMARK    2  A    between atoms: N15_14  and  C25_16 
REMARK    3  A    between atoms: C25_16  and  C11_17 
REMARK    4  A    between atoms: C11_17  and  N6_18 
ROOT
ATOM      1  N1  SQO d         106.915  17.754  24.461  0.00  0.00    -0.317 N 
ATOM      2  N3  SQO d         105.396  17.340  22.694  0.00  0.00    -0.243 NA
ATOM      3  C4  SQO d         106.402  17.683  21.793  0.00  0.00     0.076 A 
ATOM      4  C5  SQO d         107.691  18.046  22.219  0.00  0.00     0.063 A 
ATOM      5  C6  SQO d         107.971  18.099  23.656  0.00  0.00     0.259 A 
ATOM      6  C7  SQO d         108.659  18.395  21.283  0.00  0.00     0.054 A 
ATOM      7  C8  SQO d         108.341  18.428  19.942  0.00  0.00     0.104 A 
ATOM      8  C10 SQO d         106.087  17.710  20.427  0.00  0.00     0.065 A 
ATOM      9  N12 SQO d         109.040  18.801  18.811  0.00  0.00    -0.063 NA
ATOM     10  C13 SQO d         108.175  18.715  17.777  0.00  0.00     0.701 A 
ATOM     11  C2  SQO d         105.684  17.386  23.993  0.00  0.00     0.210 A 
ATOM     12  C9  SQO d         107.058  18.104  19.502  0.00  0.00     0.081 A 
ATOM     13  N14 SQO d         106.969  18.299  18.124  0.00  0.00    -0.188 N 
ATOM     14  O16 SQO d         109.042  18.463  24.131  0.00  0.00    -0.267 OA
ATOM     15  H   SQO d         107.054  17.773  25.451  0.00  0.00     0.169 HD
ATOM     16  H   SQO d         106.151  18.152  17.516  0.00  0.00     0.184 HD
ENDROOT
BRANCH  10  17
ATOM     17  N15 SQO d         108.562  19.039  16.538  0.00  0.00    -0.223 N 
ATOM     18  H   SQO d         109.537  19.331  16.383  0.00  0.00     0.177 HD
BRANCH  17  19
ATOM     19  C25 SQO d         107.654  18.993  15.403  0.00  0.00     0.166 C 
BRANCH  19  20
ATOM     20  C11 SQO d         108.373  19.213  14.100  0.00  0.00     0.255 C 
BRANCH  20  21
ATOM     21  N6  SQO d         107.435  19.253  12.974  0.00  0.00    -0.066 N 
ATOM     22  C12 SQO d         108.083  18.872  11.719  0.00  0.00     0.261 C 
ATOM     23  C13 SQO d         107.085  18.908  10.592  0.00  0.00     0.195 C 
ATOM     24  O2  SQO d         106.505  20.200  10.449  0.00  0.00    -0.388 OA
ATOM     25  C14 SQO d         105.870  20.585  11.666  0.00  0.00     0.195 C 
ATOM     26  C15 SQO d         106.839  20.583  12.821  0.00  0.00     0.261 C 
ATOM     27  H   SQO d         106.696  18.593  13.163  0.00  0.00     0.280 HD
ENDBRANCH  20  21
ENDBRANCH  19  20
ENDBRANCH  17  19
ENDBRANCH  10  17
TORSDOF 4
