REMARK  15 active torsions:
REMARK  status: ('A' for Active; 'I' for Inactive)
REMARK    1  A    between atoms: C1_2  and  C2_4 
REMARK    2  A    between atoms: C2_4  and  C3_5 
REMARK    3  A    between atoms: C3_5  and  C4_6 
REMARK    4  A    between atoms: C4_6  and  C5_7 
REMARK    5  A    between atoms: C5_7  and  O3_8 
REMARK    6  A    between atoms: C5_7  and  C6_9 
REMARK    7  A    between atoms: C6_9  and  C7_10 
REMARK    8  A    between atoms: C8_11  and  C9_12 
REMARK    9  A    between atoms: C10_13  and  C11_14 
REMARK   10  A    between atoms: C12_15  and  C13_16 
REMARK   11  A    between atoms: C13_16  and  C14_17 
REMARK   12  A    between atoms: C15_18  and  C16_19 
REMARK   13  A    between atoms: C16_19  and  C17_20 
REMARK   14  A    between atoms: C17_20  and  C18_21 
REMARK   15  A    between atoms: C18_21  and  C19_22 
ROOT
ATOM      1  C7  EAH d          24.066 -10.950  16.912  0.00  0.00    -0.024 C 
ATOM      2  C8  EAH d          24.331 -10.338  15.738  0.00  0.00    -0.004 C 
ENDROOT
BRANCH   2   3
ATOM      3  C9  EAH d          23.175  -9.879  14.976  0.00  0.00    -0.000 C 
ATOM      4  C10 EAH d          23.143  -9.356  13.745  0.00  0.00    -0.000 C 
BRANCH   4   5
ATOM      5  C11 EAH d          21.761  -9.041  13.402  0.00  0.00    -0.004 C 
ATOM      6  C12 EAH d          21.189  -8.496  12.334  0.00  0.00    -0.023 C 
BRANCH   6   7
ATOM      7  C13 EAH d          21.757  -7.976  11.044  0.00  0.00     0.054 C 
BRANCH   7   8
ATOM      8  C14 EAH d          20.504  -7.879  10.189  0.00  0.00    -0.027 C 
ATOM      9  C15 EAH d          20.177  -6.868   9.378  0.00  0.00    -0.030 C 
BRANCH   9  10
ATOM     10  C16 EAH d          21.065  -5.660   9.192  0.00  0.00     0.027 C 
BRANCH  10  11
ATOM     11  C17 EAH d          20.638  -4.558  10.142  0.00  0.00     0.004 C 
BRANCH  11  12
ATOM     12  C18 EAH d          21.520  -3.326   9.959  0.00  0.00    -0.000 C 
BRANCH  12  13
ATOM     13  C19 EAH d          21.447  -2.454  11.209  0.00  0.00    -0.005 C 
ATOM     14  C20 EAH d          21.864  -1.033  10.931  0.00  0.00     0.005 C 
ENDBRANCH  12  13
ENDBRANCH  11  12
ENDBRANCH  10  11
ENDBRANCH   9  10
ENDBRANCH   7   8
ENDBRANCH   6   7
ENDBRANCH   4   5
ENDBRANCH   2   3
BRANCH   1  15
ATOM     15  C6  EAH d          25.125 -11.487  17.840  0.00  0.00     0.059 C 
BRANCH  15  16
ATOM     16  C5  EAH d          26.101 -12.402  17.101  0.00  0.00     0.121 C 
BRANCH  16  17
ATOM     17  C4  EAH d          25.440 -13.195  15.965  0.00  0.00     0.032 C 
BRANCH  17  18
ATOM     18  C3  EAH d          25.142 -14.656  16.285  0.00  0.00     0.013 C 
BRANCH  18  19
ATOM     19  C2  EAH d          23.903 -14.799  17.162  0.00  0.00     0.113 C 
BRANCH  19  20
ATOM     20  C1  EAH d          23.088 -15.974  16.682  0.00  0.00     0.172 C 
ATOM     21  O1  EAH d          23.692 -16.932  16.177  0.00  0.00    -0.648 OA
ATOM     22  O2  EAH d          21.846 -15.958  16.807  0.00  0.00    -0.648 OA
ENDBRANCH  19  20
ENDBRANCH  18  19
ENDBRANCH  17  18
ENDBRANCH  16  17
BRANCH  16  23
ATOM     23  O3  EAH d          26.760 -13.266  18.040  0.00  0.00    -0.395 OA
ATOM     24  H8  EAH d          27.156 -12.742  18.727  0.00  0.00     0.210 HD
ENDBRANCH  16  23
ENDBRANCH  15  16
ENDBRANCH   1  15
TORSDOF 15
