REMARK  3 active torsions:
REMARK  status: ('A' for Active; 'I' for Inactive)
REMARK    1  A    between atoms: N7_7  and  C16_16 
REMARK    2  A    between atoms: C8_8  and  N10_10 
REMARK    3  A    between atoms: C16_16  and  C17_17 
ROOT
ATOM      1  N1  SC3 d          -6.240  22.010  -0.699  0.00  0.00    -0.269 N 
ATOM      2  C2  SC3 d          -5.273  22.953  -0.465  0.00  0.00     0.332 A 
ATOM      3  N3  SC3 d          -4.974  23.279   0.852  0.00  0.00    -0.286 N 
ATOM      4  C4  SC3 d          -5.662  22.643   1.855  0.00  0.00     0.169 A 
ATOM      5  C5  SC3 d          -6.617  21.727   1.678  0.00  0.00     0.153 A 
ATOM      6  C6  SC3 d          -6.936  21.369   0.288  0.00  0.00     0.282 A 
ATOM      7  N7  SC3 d          -7.088  21.326   2.857  0.00  0.00    -0.310 N 
ATOM      8  C8  SC3 d          -6.425  21.961   3.826  0.00  0.00     0.187 A 
ATOM      9  N9  SC3 d          -5.573  22.762   3.288  0.00  0.00    -0.199 NA
ATOM     10  O23 SC3 d          -7.785  20.536   0.080  0.00  0.00    -0.265 OA
ATOM     11  C24 SC3 d          -6.555  21.666  -2.093  0.00  0.00     0.164 C 
ATOM     12  O25 SC3 d          -4.687  23.491  -1.405  0.00  0.00    -0.246 OA
ATOM     13  C26 SC3 d          -3.943  24.278   1.181  0.00  0.00     0.163 C 
ENDROOT
BRANCH   8  14
ATOM     14  N10 SC3 d          -6.658  21.763   5.181  0.00  0.00    -0.250 NA
ATOM     15  C11 SC3 d          -6.086  22.851   6.047  0.00  0.00     0.126 C 
ATOM     16  C12 SC3 d          -4.618  22.544   6.411  0.00  0.00     0.247 C 
ATOM     17  N13 SC3 d          -4.494  21.263   7.164  0.00  0.00    -0.073 N 
ATOM     18  C14 SC3 d          -5.573  20.260   6.949  0.00  0.00     0.247 C 
ATOM     19  H5  SC3 d          -4.474  21.486   8.147  0.00  0.00     0.277 HD
ATOM     20  H6  SC3 d          -3.621  20.835   6.899  0.00  0.00     0.277 HD
ATOM     21  C15 SC3 d          -6.207  20.362   5.572  0.00  0.00     0.126 C 
ENDBRANCH   8  14
BRANCH   7  22
ATOM     22  C16 SC3 d          -8.298  20.501   3.046  0.00  0.00     0.170 C 
BRANCH  22  23
ATOM     23  C17 SC3 d          -8.107  18.995   3.079  0.00  0.00    -0.040 A 
ATOM     24  C18 SC3 d          -9.197  18.182   3.429  0.00  0.00     0.009 A 
ATOM     25  C19 SC3 d          -9.040  16.780   3.463  0.00  0.00     0.001 A 
ATOM     26  C20 SC3 d          -7.781  16.195   3.147  0.00  0.00     0.000 A 
ATOM     27  C21 SC3 d          -6.680  17.013   2.794  0.00  0.00     0.001 A 
ATOM     28  C22 SC3 d          -6.835  18.413   2.757  0.00  0.00     0.009 A 
ENDBRANCH  22  23
ENDBRANCH   7  22
TORSDOF 3
