REMARK  11 active torsions:
REMARK  status: ('A' for Active; 'I' for Inactive)
REMARK    1  A    between atoms: C1'_9  and  N1_2 
REMARK    2  A    between atoms: C4_6  and  N4_30 
REMARK    3  A    between atoms: C4_6  and  O6_31 
REMARK    4  A    between atoms: C4'_12  and  N6_17 
REMARK    5  A    between atoms: C5'_13  and  C6'_16 
REMARK       I    between atoms: N6_17  and  C7_18 
REMARK    6  A    between atoms: C7_18  and  C8_20 
REMARK    7  A    between atoms: C8_20  and  C9_21 
REMARK    8  A    between atoms: C9_21  and  N9_22 
REMARK    9  A    between atoms: C9_21  and  C10_23 
REMARK   10  A    between atoms: C10_23  and  C11_24 
REMARK   11  A    between atoms: C11_24  and  N12_25 
REMARK       I    between atoms: N12_25  and  C14_27 
REMARK       I    between atoms: C14_27  and  N14_28 
ROOT
ATOM      1  C1' BST d          43.193  16.108  38.203  0.00  0.00     0.257 C 
ATOM      2  C2' BST d          42.735  17.108  39.223  0.00  0.00     0.025 C 
ATOM      3  C3' BST d          43.190  18.381  39.319  0.00  0.00     0.002 C 
ATOM      4  C4' BST d          44.299  18.723  38.238  0.00  0.00     0.147 C 
ATOM      5  C5' BST d          44.365  17.780  37.000  0.00  0.00     0.251 C 
ATOM      6  O5' BST d          44.428  16.462  37.543  0.00  0.00    -0.344 OA
ENDROOT
BRANCH   4   7
ATOM      7  N6  BST d          44.142  20.103  37.756  0.00  0.00    -0.350 N 
ATOM      8  C7  BST d          45.060  21.162  37.699  0.00  0.00     0.220 C 
ATOM      9  O7  BST d          46.223  21.007  38.099  0.00  0.00    -0.274 OA
ATOM     10  H9  BST d          43.229  20.323  37.412  0.00  0.00     0.163 HD
BRANCH   8  11
ATOM     11  C8  BST d          44.542  22.481  37.122  0.00  0.00     0.135 C 
BRANCH  11  12
ATOM     12  C9  BST d          45.345  23.745  37.538  0.00  0.00     0.193 C 
BRANCH  12  13
ATOM     13  N9  BST d          46.764  23.747  37.148  0.00  0.00    -0.074 N 
ATOM     14  H13 BST d          47.197  24.602  37.460  0.00  0.00     0.274 HD
ATOM     15  H14 BST d          46.837  23.680  36.145  0.00  0.00     0.274 HD
ATOM     16  H15 BST d          47.230  22.960  37.572  0.00  0.00     0.274 HD
ENDBRANCH  12  13
BRANCH  12  17
ATOM     17  C10 BST d          44.693  25.039  36.953  0.00  0.00     0.053 C 
BRANCH  17  18
ATOM     18  C11 BST d          43.765  25.779  37.960  0.00  0.00     0.142 C 
BRANCH  18  19
ATOM     19  N12 BST d          43.025  26.915  37.394  0.00  0.00    -0.223 N 
ATOM     20  C13 BST d          43.732  28.198  37.287  0.00  0.00     0.168 C 
ATOM     21  C14 BST d          41.678  26.758  36.952  0.00  0.00     0.667 C 
ATOM     22  N14 BST d          40.871  27.939  37.042  0.00  0.00    -0.235 N 
ATOM     23  N15 BST d          41.129  25.678  36.491  0.00  0.00    -0.235 N 
ATOM     24  H23 BST d          39.886  27.913  36.743  0.00  0.00     0.174 HD
ATOM     25  H24 BST d          41.276  28.813  37.405  0.00  0.00     0.174 HD
ATOM     26  H25 BST d          41.681  24.812  36.413  0.00  0.00     0.174 HD
ATOM     27  H26 BST d          40.140  25.686  36.202  0.00  0.00     0.174 HD
ENDBRANCH  18  19
ENDBRANCH  17  18
ENDBRANCH  12  17
ENDBRANCH  11  12
ENDBRANCH   8  11
ENDBRANCH   4   7
BRANCH   5  28
ATOM     28  C6' BST d          45.632  17.791  36.140  0.00  0.00     0.205 C 
ATOM     29  O4  BST d          46.699  17.262  36.298  0.00  0.00    -0.646 OA
ATOM     30  O3  BST d          45.453  18.587  35.004  0.00  0.00    -0.646 OA
ENDBRANCH   5  28
BRANCH   1  31
ATOM     31  N1  BST d          43.455  14.725  38.711  0.00  0.00    -0.279 N 
ATOM     32  C2  BST d          42.478  13.701  38.358  0.00  0.00     0.328 A 
ATOM     33  O2  BST d          41.479  13.936  37.687  0.00  0.00    -0.247 OA
ATOM     34  N3  BST d          42.706  12.384  38.820  0.00  0.00    -0.284 N 
ATOM     35  C4  BST d          43.892  12.100  39.621  0.00  0.00     0.326 A 
ATOM     36  H1  BST d          42.060  11.653  38.599  0.00  0.00     0.169 HD
ATOM     37  C5  BST d          44.885  13.215  39.961  0.00  0.00     0.082 A 
ATOM     38  C6  BST d          44.623  14.435  39.501  0.00  0.00     0.101 A 
BRANCH  35  39
ATOM     39  N4  BST d          44.687  11.065  38.875  0.00  0.00    -0.024 N 
ATOM     40  H27 BST d          45.519  10.840  39.397  0.00  0.00     0.280 HD
ATOM     41  H28 BST d          44.946  11.428  37.971  0.00  0.00     0.280 HD
ATOM     42  H29 BST d          44.129  10.234  38.757  0.00  0.00     0.280 HD
ENDBRANCH  35  39
BRANCH  35  43
ATOM     43  O6  BST d          43.362  11.525  40.798  0.00  0.00    -0.346 OA
ATOM     44  H30 BST d          42.859  12.179  41.270  0.00  0.00     0.214 HD
ENDBRANCH  35  43
ENDBRANCH   1  31
TORSDOF 11
