REMARK  9 active torsions:
REMARK  status: ('A' for Active; 'I' for Inactive)
REMARK    1  A    between atoms: CAN_2  and  CAL_3 
REMARK       I    between atoms: CAL_3  and  NAK_5 
REMARK    2  A    between atoms: NAK_5  and  CAC_6 
REMARK    3  A    between atoms: CAB_7  and  OAG_8 
REMARK    4  A    between atoms: CAA_9  and  OAH_10 
REMARK    5  A    between atoms: CAF_11  and  CAI_12 
REMARK    6  A    between atoms: CAI_12  and  OAJ_13 
REMARK    7  A    between atoms: CAP_18  and  CAR_19 
REMARK    8  A    between atoms: CAR_19  and  CAS_20 
REMARK    9  A    between atoms: CAS_20  and  CAT_21 
ROOT
ATOM      1  CAC VGB d          32.794  43.021  21.111  0.00  0.00     0.185 C 
ATOM      2  CAB VGB d          32.155  43.190  22.471  0.00  0.00     0.179 C 
ATOM      3  CAA VGB d          30.717  42.668  22.477  0.00  0.00     0.174 C 
ATOM      4  CAF VGB d          30.773  41.164  22.249  0.00  0.00     0.145 C 
ATOM      5  NAE VGB d          31.181  41.025  20.851  0.00  0.00    -0.332 N 
ATOM      6  CAQ VGB d          30.810  40.208  19.890  0.00  0.00     0.120 A 
ATOM      7  CAD VGB d          32.157  41.878  20.313  0.00  0.00     0.132 A 
ATOM      8  NAO VGB d          32.298  41.558  19.052  0.00  0.00    -0.236 NA
ATOM      9  CAP VGB d          31.499  40.541  18.787  0.00  0.00     0.052 A 
ENDROOT
BRANCH   9  10
ATOM     10  CAR VGB d          31.428  39.844  17.418  0.00  0.00     0.065 C 
BRANCH  10  11
ATOM     11  CAS VGB d          31.293  40.888  16.313  0.00  0.00     0.044 C 
BRANCH  11  12
ATOM     12  CAT VGB d          29.864  41.453  16.190  0.00  0.00    -0.058 A 
ATOM     13  CAU VGB d          28.839  40.637  15.704  0.00  0.00     0.007 A 
ATOM     14  CAV VGB d          27.553  41.144  15.549  0.00  0.00     0.001 A 
ATOM     15  CAW VGB d          27.313  42.469  15.898  0.00  0.00     0.000 A 
ATOM     16  CAX VGB d          28.324  43.295  16.392  0.00  0.00     0.001 A 
ATOM     17  CAY VGB d          29.605  42.784  16.542  0.00  0.00     0.007 A 
ENDBRANCH  11  12
ENDBRANCH  10  11
ENDBRANCH   9  10
BRANCH   4  18
ATOM     18  CAI VGB d          29.477  40.364  22.484  0.00  0.00     0.192 C 
BRANCH  18  19
ATOM     19  OAJ VGB d          28.416  41.002  21.807  0.00  0.00    -0.399 OA
ATOM     20  H15 VGB d          28.609  41.035  20.878  0.00  0.00     0.209 HD
ENDBRANCH  18  19
ENDBRANCH   4  18
BRANCH   1  21
ATOM     21  NAK VGB d          34.257  42.902  21.250  0.00  0.00    -0.347 N 
ATOM     22  CAL VGB d          34.830  41.855  21.819  0.00  0.00     0.217 C 
ATOM     23  OAM VGB d          34.194  40.889  22.262  0.00  0.00    -0.274 OA
ATOM     24  H6  VGB d          34.836  43.639  20.902  0.00  0.00     0.163 HD
BRANCH  22  25
ATOM     25  CAN VGB d          36.373  41.984  21.853  0.00  0.00     0.098 C 
ATOM     26  CBA VGB d          37.118  40.783  22.420  0.00  0.00     0.014 C 
ENDBRANCH  22  25
ENDBRANCH   1  21
BRANCH   3  27
ATOM     27  OAH VGB d          30.157  42.994  23.754  0.00  0.00    -0.391 OA
ATOM     28  H11 VGB d          30.173  43.936  23.874  0.00  0.00     0.210 HD
ENDBRANCH   3  27
BRANCH   2  29
ATOM     29  OAG VGB d          32.203  44.576  22.732  0.00  0.00    -0.390 OA
ATOM     30  H9  VGB d          31.813  44.751  23.580  0.00  0.00     0.210 HD
ENDBRANCH   2  29
TORSDOF 9
