REMARK  14 active torsions:
REMARK  status: ('A' for Active; 'I' for Inactive)
REMARK       I    between atoms: N1_26  and  C3_3 
REMARK    1  A    between atoms: C3_3  and  O1_29 
REMARK    2  A    between atoms: O1_29  and  C4_4 
REMARK    3  A    between atoms: C6_6  and  C5_5 
REMARK    4  A    between atoms: C5_5  and  C7_7 
REMARK    5  A    between atoms: C5_5  and  N1_26 
REMARK    6  A    between atoms: C14_14  and  C6_6 
REMARK    7  A    between atoms: C6_6  and  O3_31 
REMARK    8  A    between atoms: C7_7  and  C8_8 
REMARK    9  A    between atoms: N2_27  and  C14_14 
REMARK   10  A    between atoms: C15_15  and  C16_16 
REMARK   11  A    between atoms: N2_27  and  C15_15 
REMARK   12  A    between atoms: S1_35  and  C17_17 
REMARK   13  A    between atoms: C20_20  and  N3_28 
REMARK   14  A    between atoms: N2_27  and  S1_35 
ROOT
ATOM      1  C6  MOL d          19.969  29.194  15.681  0.00  0.00     0.155 C 
ENDROOT
BRANCH   1   2
ATOM      2  C5  MOL d          19.587  28.807  14.258  0.00  0.00     0.120 C 
BRANCH   2   3
ATOM      3  C7  MOL d          18.276  28.036  14.106  0.00  0.00     0.066 C 
BRANCH   3   4
ATOM      4  C8  MOL d          18.045  27.652  12.660  0.00  0.00    -0.056 A 
ATOM      5  C9  MOL d          18.424  26.395  12.182  0.00  0.00     0.007 A 
ATOM      6  C11 MOL d          18.232  26.065  10.841  0.00  0.00     0.001 A 
ATOM      7  C13 MOL d          17.640  26.973   9.976  0.00  0.00     0.000 A 
ATOM      8  C12 MOL d          17.264  28.228  10.452  0.00  0.00     0.001 A 
ATOM      9  C10 MOL d          17.457  28.558  11.789  0.00  0.00     0.007 A 
ENDBRANCH   3   4
ENDBRANCH   2   3
BRANCH   2  10
ATOM     10  N1  MOL d          20.652  27.961  13.760  0.00  0.00    -0.329 N 
ATOM     11  C3  MOL d          21.440  28.274  12.734  0.00  0.00     0.361 C 
ATOM     12  O2  MOL d          21.499  29.346  12.136  0.00  0.00    -0.238 OA
ATOM     13  H32 MOL d          20.805  27.085  14.217  0.00  0.00     0.165 HD
BRANCH  11  14
ATOM     14  O1  MOL d          22.246  27.140  12.373  0.00  0.00    -0.296 OA
BRANCH  14  15
ATOM     15  C4  MOL d          23.120  27.282  11.262  0.00  0.00     0.159 C 
ATOM     16  C1  MOL d          23.400  25.870  10.783  0.00  0.00     0.200 C 
ATOM     17  O6  MOL d          24.448  25.418  11.638  0.00  0.00    -0.389 OA
ATOM     18  C25 MOL d          25.287  26.525  11.982  0.00  0.00     0.170 C 
ATOM     19  C2  MOL d          24.452  27.783  11.781  0.00  0.00     0.061 C 
ENDBRANCH  14  15
ENDBRANCH  11  14
ENDBRANCH   2  10
ENDBRANCH   1   2
BRANCH   1  20
ATOM     20  C14 MOL d          19.038  30.254  16.252  0.00  0.00     0.141 C 
BRANCH  20  21
ATOM     21  N2  MOL d          19.369  31.527  15.582  0.00  0.00    -0.204 NA
BRANCH  21  22
ATOM     22  C15 MOL d          20.102  32.452  16.468  0.00  0.00     0.111 C 
BRANCH  22  23
ATOM     23  C16 MOL d          21.613  32.201  16.428  0.00  0.00    -0.009 C 
ATOM     24  C23 MOL d          22.252  32.243  15.042  0.00  0.00     0.011 C 
ATOM     25  C24 MOL d          22.324  33.254  17.274  0.00  0.00     0.011 C 
ENDBRANCH  22  23
ENDBRANCH  21  22
BRANCH  21  26
ATOM     26  S1  MOL d          18.135  32.196  14.772  0.00  0.00     0.243 S 
ATOM     27  O4  MOL d          17.421  31.175  14.066  0.00  0.00    -0.206 OA
ATOM     28  O5  MOL d          18.715  33.092  13.792  0.00  0.00    -0.206 OA
BRANCH  26  29
ATOM     29  C17 MOL d          17.106  33.012  15.711  0.00  0.00     0.074 A 
ATOM     30  C18 MOL d          16.072  32.335  16.365  0.00  0.00     0.027 A 
ATOM     31  C19 MOL d          15.176  32.977  17.210  0.00  0.00     0.030 A 
ATOM     32  C20 MOL d          15.281  34.352  17.399  0.00  0.00     0.025 A 
ATOM     33  C21 MOL d          16.284  35.051  16.740  0.00  0.00     0.030 A 
ATOM     34  C22 MOL d          17.186  34.381  15.907  0.00  0.00     0.027 A 
BRANCH  32  35
ATOM     35  N3  MOL d          14.400  34.981  18.211  0.00  0.00    -0.399 N 
ATOM     36  H33 MOL d          13.665  34.441  18.689  0.00  0.00     0.156 HD
ATOM     37  H34 MOL d          14.465  35.999  18.351  0.00  0.00     0.156 HD
ENDBRANCH  32  35
ENDBRANCH  26  29
ENDBRANCH  21  26
ENDBRANCH  20  21
ENDBRANCH   1  20
BRANCH   1  38
ATOM     38  O3  MOL d          19.958  28.036  16.528  0.00  0.00    -0.392 OA
ATOM     39  H35 MOL d          20.540  27.377  16.169  0.00  0.00     0.210 HD
ENDBRANCH   1  38
TORSDOF 14
