REMARK  6 active torsions:
REMARK  status: ('A' for Active; 'I' for Inactive)
REMARK    1  A    between atoms: C9_22  and  C10_12 
REMARK    2  A    between atoms: C7_26  and  C18_13 
REMARK    3  A    between atoms: C13_17  and  N3_30 
REMARK    4  A    between atoms: C7_26  and  C6_21 
REMARK       I    between atoms: N2_32  and  C9_22 
REMARK    5  A    between atoms: C8_25  and  C7_26 
REMARK    6  A    between atoms: C8_25  and  N2_32 
ROOT
ATOM      1  C7  MOL d         -14.511 -35.886 -13.385  0.00  0.00     0.106 C 
ENDROOT
BRANCH   1   2
ATOM      2  C18 MOL d         -14.581 -34.707 -14.350  0.00  0.00    -0.045 A 
ATOM      3  C23 MOL d         -14.242 -34.882 -15.686  0.00  0.00     0.008 A 
ATOM      4  C22 MOL d         -14.298 -33.821 -16.577  0.00  0.00     0.001 A 
ATOM      5  C21 MOL d         -14.683 -32.571 -16.146  0.00  0.00     0.000 A 
ATOM      6  C20 MOL d         -15.016 -32.380 -14.821  0.00  0.00     0.001 A 
ATOM      7  C19 MOL d         -14.984 -33.444 -13.931  0.00  0.00     0.008 A 
ENDBRANCH   1   2
BRANCH   1   8
ATOM      8  C6  MOL d         -14.030 -35.456 -12.021  0.00  0.00     0.115 A 
ATOM      9  N1  MOL d         -12.745 -35.525 -11.582  0.00  0.00    -0.342 N 
ATOM     10  C3  MOL d         -12.666 -35.053 -10.276  0.00  0.00     0.063 A 
ATOM     11  H21 MOL d         -11.949 -35.875 -12.134  0.00  0.00     0.167 HD
ATOM     12  C2  MOL d         -11.662 -34.897  -9.332  0.00  0.00     0.039 A 
ATOM     13  C4  MOL d         -13.954 -34.662  -9.923  0.00  0.00     0.086 A 
ATOM     14  C1  MOL d         -11.911 -34.366  -8.070  0.00  0.00    -0.054 A 
ATOM     15  C   MOL d         -13.223 -33.972  -7.732  0.00  0.00    -0.054 A 
ATOM     16  C24 MOL d         -10.797 -34.305  -7.060  0.00  0.00     0.049 C 
ATOM     17  C5  MOL d         -14.238 -34.120  -8.672  0.00  0.00     0.041 A 
ATOM     18  C25 MOL d         -13.565 -33.536  -6.329  0.00  0.00     0.049 C 
ATOM     19  N   MOL d         -14.758 -34.929 -11.013  0.00  0.00    -0.233 NA
ENDBRANCH   1   8
BRANCH   1  20
ATOM     20  C8  MOL d         -15.895 -36.588 -13.276  0.00  0.00     0.140 C 
BRANCH  20  21
ATOM     21  N2  MOL d         -15.759 -37.767 -12.437  0.00  0.00    -0.356 N 
ATOM     22  C9  MOL d         -15.493 -38.976 -12.936  0.00  0.00     0.255 C 
ATOM     23  O   MOL d         -15.325 -39.180 -14.137  0.00  0.00    -0.268 OA
ATOM     24  H22 MOL d         -15.869 -37.669 -11.448  0.00  0.00     0.162 HD
BRANCH  22  25
ATOM     25  C10 MOL d         -15.446 -40.110 -11.949  0.00  0.00     0.075 A 
ATOM     26  C11 MOL d         -14.330 -40.328 -11.140  0.00  0.00     0.053 A 
ATOM     27  C12 MOL d         -14.230 -41.430 -10.309  0.00  0.00     0.055 A 
ATOM     28 CL1  MOL d         -12.996 -39.229 -11.215  0.00  0.00    -0.083 Cl
ATOM     29  C13 MOL d         -15.260 -42.369 -10.284  0.00  0.00     0.044 A 
ATOM     30  C14 MOL d         -16.387 -42.172 -11.080  0.00  0.00     0.055 A 
ATOM     31  C15 MOL d         -16.475 -41.045 -11.875  0.00  0.00     0.053 A 
ATOM     32 CL   MOL d         -17.945 -40.766 -12.751  0.00  0.00    -0.083 Cl
BRANCH  29  33
ATOM     33  N3  MOL d         -15.188 -43.531  -9.447  0.00  0.00    -0.297 N 
ATOM     34  C17 MOL d         -14.695 -43.620  -8.184  0.00  0.00     0.240 A 
ATOM     35  N5  MOL d         -14.818 -44.829  -7.719  0.00  0.00    -0.144 NA
ATOM     36  N4  MOL d         -15.396 -45.591  -8.727  0.00  0.00    -0.144 NA
ATOM     37  C16 MOL d         -15.609 -44.793  -9.732  0.00  0.00     0.240 A 
ENDBRANCH  29  33
ENDBRANCH  22  25
ENDBRANCH  20  21
ENDBRANCH   1  20
TORSDOF 6
