REMARK  27 active torsions:
REMARK  status: ('A' for Active; 'I' for Inactive)
REMARK    1  A    between atoms: N1_1  and  C1_2 
REMARK       I    between atoms: C11_15  and  N1_1 
REMARK    2  A    between atoms: C1_2  and  C2_4 
REMARK    3  A    between atoms: C1_2  and  C3_5 
REMARK    4  A    between atoms: N2_3  and  C10_14 
REMARK       I    between atoms: C19_25  and  N2_3 
REMARK    5  A    between atoms: C2_4  and  O1_8 
REMARK    6  A    between atoms: C2_4  and  C52_58 
REMARK    7  A    between atoms: C3_5  and  C4_6 
REMARK    8  A    between atoms: C10_14  and  C11_15 
REMARK    9  A    between atoms: C10_14  and  C12_16 
REMARK   10  A    between atoms: N4_19  and  C18_24 
REMARK       I    between atoms: C31_62  and  N4_19 
REMARK   11  A    between atoms: C18_24  and  C19_25 
REMARK   12  A    between atoms: C81_28  and  O59_29 
REMARK       I    between atoms: N54_37  and  C81_28 
REMARK   13  A    between atoms: O59_29  and  CA5_30 
REMARK   14  A    between atoms: CA5_30  and  C50_31 
REMARK   15  A    between atoms: C68_38  and  N54_37 
REMARK   16  A    between atoms: C69_40  and  C68_38 
REMARK       I    between atoms: N52_42  and  C69_40 
REMARK   17  A    between atoms: C60_43  and  N52_42 
REMARK   18  A    between atoms: C60_43  and  C62_44 
REMARK   19  A    between atoms: C61_47  and  C60_43 
REMARK       I    between atoms: N51_49  and  C61_47 
REMARK   20  A    between atoms: C51_50  and  N51_49 
REMARK   21  A    between atoms: C51_50  and  C53_51 
REMARK   22  A    between atoms: C52_58  and  C51_50 
REMARK   23  A    between atoms: C53_51  and  C54_52 
REMARK   24  A    between atoms: C52_58  and  O51_59 
REMARK   25  A    between atoms: O9_64  and  C31_62 
REMARK   26  A    between atoms: CA_65  and  O9_64 
REMARK   27  A    between atoms: CA_65  and  C_66 
ROOT
ATOM      1  C2  MOL d          19.917   0.301   0.558  0.00  0.00     0.171 C 
ENDROOT
BRANCH   1   2
ATOM      2  C1  MOL d          19.001   1.400   1.111  0.00  0.00     0.120 C 
BRANCH   2   3
ATOM      3  N1  MOL d          19.105   1.523   2.572  0.00  0.00    -0.352 N 
ATOM      4  C11 MOL d          18.106   1.225   3.414  0.00  0.00     0.241 C 
ATOM      5  O2  MOL d          16.975   0.945   3.029  0.00  0.00    -0.271 OA
ATOM      6  H1  MOL d          19.968   1.847   2.959  0.00  0.00     0.163 HD
BRANCH   4   7
ATOM      7  C10 MOL d          18.427   1.258   4.888  0.00  0.00     0.180 C 
BRANCH   7   8
ATOM      8  N2  MOL d          17.747   2.344   5.567  0.00  0.00    -0.346 N 
ATOM      9  C19 MOL d          18.400   3.258   6.291  0.00  0.00     0.240 C 
ATOM     10  O4  MOL d          19.571   3.126   6.619  0.00  0.00    -0.271 OA
ATOM     11  H3  MOL d          16.752   2.412   5.491  0.00  0.00     0.163 HD
BRANCH   9  12
ATOM     12  C18 MOL d          17.594   4.473   6.687  0.00  0.00     0.174 C 
ATOM     13  C20 MOL d          17.961   5.643   5.794  0.00  0.00     0.042 C 
BRANCH  12  14
ATOM     14  N4  MOL d          17.713   4.845   8.086  0.00  0.00    -0.324 N 
ATOM     15  C31 MOL d          16.667   4.677   8.903  0.00  0.00     0.361 C 
ATOM     16  O8  MOL d          15.656   4.102   8.566  0.00  0.00    -0.238 OA
ATOM     17  H17 MOL d          18.570   5.224   8.436  0.00  0.00     0.165 HD
BRANCH  15  18
ATOM     18  O9  MOL d          16.736   5.173  10.259  0.00  0.00    -0.299 OA
BRANCH  18  19
ATOM     19  CA  MOL d          15.585   5.287  11.119  0.00  0.00     0.219 C 
BRANCH  19  20
ATOM     20  C   MOL d          14.593   6.385  10.743  0.00  0.00    -0.034 A 
ATOM     21  C13 MOL d          13.366   6.465  11.422  0.00  0.00     0.009 A 
ATOM     22  C14 MOL d          12.429   7.458  11.128  0.00  0.00     0.001 A 
ATOM     23  C15 MOL d          12.704   8.380  10.123  0.00  0.00     0.000 A 
ATOM     24  C16 MOL d          13.918   8.316   9.442  0.00  0.00     0.001 A 
ATOM     25  C17 MOL d          14.854   7.322   9.754  0.00  0.00     0.009 A 
ENDBRANCH  19  20
ENDBRANCH  18  19
ENDBRANCH  15  18
ENDBRANCH  12  14
ENDBRANCH   9  12
ENDBRANCH   7   8
BRANCH   7  26
ATOM     26  C12 MOL d          18.090  -0.061   5.611  0.00  0.00     0.009 C 
ATOM     27  CG2 MOL d          18.622  -0.089   7.033  0.00  0.00     0.012 C 
ATOM     28  CG1 MOL d          18.645  -1.282   4.883  0.00  0.00     0.012 C 
ENDBRANCH   7  26
ENDBRANCH   4   7
ENDBRANCH   2   3
BRANCH   2  29
ATOM     29  C3  MOL d          19.304   2.719   0.385  0.00  0.00     0.066 C 
BRANCH  29  30
ATOM     30  C4  MOL d          18.500   3.851   0.974  0.00  0.00    -0.056 A 
ATOM     31  C5  MOL d          19.074   4.718   1.909  0.00  0.00     0.007 A 
ATOM     32  C6  MOL d          18.327   5.770   2.451  0.00  0.00     0.001 A 
ATOM     33  C7  MOL d          16.993   5.936   2.070  0.00  0.00     0.000 A 
ATOM     34  C8  MOL d          16.422   5.055   1.145  0.00  0.00     0.001 A 
ATOM     35  C9  MOL d          17.169   4.021   0.589  0.00  0.00     0.007 A 
ENDBRANCH  29  30
ENDBRANCH   2  29
ENDBRANCH   1   2
BRANCH   1  36
ATOM     36  O1  MOL d          21.246   0.586   0.908  0.00  0.00    -0.391 OA
ATOM     37  H8  MOL d          21.815  -0.094   0.566  0.00  0.00     0.210 HD
ENDBRANCH   1  36
BRANCH   1  38
ATOM     38  C52 MOL d          19.626  -1.112   1.070  0.00  0.00     0.171 C 
BRANCH  38  39
ATOM     39  C51 MOL d          18.402  -1.795   0.478  0.00  0.00     0.120 C 
BRANCH  39  40
ATOM     40  N51 MOL d          18.446  -1.728  -0.984  0.00  0.00    -0.352 N 
ATOM     41  C61 MOL d          17.518  -1.186  -1.776  0.00  0.00     0.241 C 
ATOM     42  O52 MOL d          16.481  -0.711  -1.351  0.00  0.00    -0.271 OA
ATOM     43  H46 MOL d          19.247  -2.126  -1.431  0.00  0.00     0.163 HD
BRANCH  41  44
ATOM     44  C60 MOL d          17.818  -1.207  -3.257  0.00  0.00     0.180 C 
BRANCH  44  45
ATOM     45  N52 MOL d          17.123  -2.313  -3.905  0.00  0.00    -0.346 N 
ATOM     46  C69 MOL d          17.676  -3.199  -4.734  0.00  0.00     0.240 C 
ATOM     47  O54 MOL d          18.865  -3.180  -5.027  0.00  0.00    -0.271 OA
ATOM     48  H37 MOL d          16.147  -2.416  -3.711  0.00  0.00     0.163 HD
BRANCH  46  49
ATOM     49  C68 MOL d          16.723  -4.226  -5.321  0.00  0.00     0.174 C 
ATOM     50  C70 MOL d          17.101  -5.625  -4.854  0.00  0.00     0.042 C 
BRANCH  49  51
ATOM     51  N54 MOL d          16.739  -4.172  -6.766  0.00  0.00    -0.324 N 
ATOM     52  C81 MOL d          15.722  -4.451  -7.580  0.00  0.00     0.361 C 
ATOM     53  O58 MOL d          14.547  -4.218  -7.356  0.00  0.00    -0.238 OA
ATOM     54  H32 MOL d          17.599  -3.898  -7.197  0.00  0.00     0.165 HD
BRANCH  52  55
ATOM     55  O59 MOL d          16.062  -5.078  -8.829  0.00  0.00    -0.299 OA
BRANCH  55  56
ATOM     56  CA5 MOL d          15.085  -5.424  -9.819  0.00  0.00     0.219 C 
BRANCH  56  57
ATOM     57  C50 MOL d          14.195  -6.571  -9.390  0.00  0.00    -0.034 A 
ATOM     58  C63 MOL d          13.046  -6.866 -10.141  0.00  0.00     0.009 A 
ATOM     59  C64 MOL d          12.195  -7.908  -9.767  0.00  0.00     0.001 A 
ATOM     60  C65 MOL d          12.508  -8.663  -8.639  0.00  0.00     0.000 A 
ATOM     61  C66 MOL d          13.648  -8.378  -7.884  0.00  0.00     0.001 A 
ATOM     62  C67 MOL d          14.493  -7.330  -8.262  0.00  0.00     0.009 A 
ENDBRANCH  56  57
ENDBRANCH  55  56
ENDBRANCH  52  55
ENDBRANCH  49  51
ENDBRANCH  46  49
ENDBRANCH  44  45
BRANCH  44  63
ATOM     63  C62 MOL d          17.431   0.109  -3.936  0.00  0.00     0.009 C 
ATOM     64  CG6 MOL d          17.689   0.049  -5.434  0.00  0.00     0.012 C 
ATOM     65  CG5 MOL d          18.163   1.314  -3.341  0.00  0.00     0.012 C 
ENDBRANCH  44  63
ENDBRANCH  41  44
ENDBRANCH  39  40
BRANCH  39  66
ATOM     66  C53 MOL d          18.440  -3.243   0.991  0.00  0.00     0.066 C 
BRANCH  66  67
ATOM     67  C54 MOL d          17.318  -4.104   0.464  0.00  0.00    -0.056 A 
ATOM     68  C55 MOL d          17.379  -4.674  -0.809  0.00  0.00     0.007 A 
ATOM     69  C56 MOL d          16.344  -5.480  -1.288  0.00  0.00     0.001 A 
ATOM     70  C57 MOL d          15.248  -5.711  -0.460  0.00  0.00     0.000 A 
ATOM     71  C58 MOL d          15.188  -5.145   0.820  0.00  0.00     0.001 A 
ATOM     72  C59 MOL d          16.226  -4.347   1.286  0.00  0.00     0.007 A 
ENDBRANCH  66  67
ENDBRANCH  39  66
ENDBRANCH  38  39
BRANCH  38  73
ATOM     73  O51 MOL d          20.731  -1.910   0.710  0.00  0.00    -0.391 OA
ATOM     74  H56 MOL d          21.526  -1.524   1.058  0.00  0.00     0.210 HD
ENDBRANCH  38  73
ENDBRANCH   1  38
TORSDOF 27
