REMARK  21 active torsions:
REMARK  status: ('A' for Active; 'I' for Inactive)
REMARK    1  A    between atoms: CBQ_43  and  OAO_15 
REMARK    2  A    between atoms: CBU_47  and  OAP_16 
REMARK    3  A    between atoms: CBH_34  and  CAQ_17 
REMARK    4  A    between atoms: CAR_18  and  CBN_40 
REMARK    5  A    between atoms: CBO_41  and  CAX_24 
REMARK    6  A    between atoms: CAZ_26  and  CAY_25 
REMARK    7  A    between atoms: CAY_25  and  CBI_35 
REMARK    8  A    between atoms: CBV_48  and  CAZ_26 
REMARK    9  A    between atoms: CBA_27  and  CBM_39 
REMARK   10  A    between atoms: CBP_42  and  CBA_27 
REMARK   11  A    between atoms: CBN_40  and  CBB_28 
REMARK   12  A    between atoms: CBB_28  and  CBO_41 
REMARK   13  A    between atoms: OBC_29  and  CBG_33 
REMARK   14  A    between atoms: CBR_44  and  OBC_29 
REMARK   15  A    between atoms: OBD_30  and  CBH_34 
REMARK   16  A    between atoms: CBT_46  and  OBD_30 
REMARK   17  A    between atoms: CBI_35  and  CBR_44 
REMARK   18  A    between atoms: CBS_45  and  CBJ_36 
REMARK   19  A    between atoms: CBU_47  and  CBK_37 
REMARK   20  A    between atoms: CBW_49  and  CBL_38 
REMARK   21  A    between atoms: CBR_44  and  CBP_42 
ROOT
ATOM      1  OBE ZGA d          17.911  62.148  55.374  0.00  0.00    -0.333 OA
ATOM      2  OBF ZGA d          18.722  61.540  53.297  0.00  0.00    -0.324 OA
ATOM      3  CBQ ZGA d          16.984  60.298  53.998  0.00  0.00     0.213 C 
ATOM      4  CBS ZGA d          18.775  61.257  56.079  0.00  0.00     0.275 C 
ATOM      5  CBT ZGA d          18.240  59.421  53.998  0.00  0.00     0.215 C 
ATOM      6  CBU ZGA d          19.927  60.826  55.166  0.00  0.00     0.226 C 
ATOM      7  CBV ZGA d          17.533  61.724  54.058  0.00  0.00     0.196 C 
ATOM      8  CBW ZGA d          19.403  60.396  53.794  0.00  0.00     0.225 C 
ENDROOT
BRANCH   7   9
ATOM      9  CAZ ZGA d          16.670  62.843  53.495  0.00  0.00     0.076 C 
BRANCH   9  10
ATOM     10  CAY ZGA d          16.224  62.593  52.068  0.00  0.00     0.041 C 
BRANCH  10  11
ATOM     11  CBI ZGA d          15.749  63.877  51.384  0.00  0.00    -0.059 C 
ATOM     12  CAA ZGA d          15.719  65.089  51.980  0.00  0.00     0.017 C 
BRANCH  11  13
ATOM     13  CBR ZGA d          15.277  63.687  49.972  0.00  0.00     0.164 C 
BRANCH  13  14
ATOM     14  OBC ZGA d          14.463  64.780  49.538  0.00  0.00    -0.311 OA
BRANCH  14  15
ATOM     15  CBG ZGA d          13.083  64.780  49.987  0.00  0.00     0.255 C 
ATOM     16  CAC ZGA d          12.135  65.855  49.526  0.00  0.00     0.126 C 
ATOM     17  OAG ZGA d          12.762  63.863  50.718  0.00  0.00    -0.266 OA
ENDBRANCH  14  15
ENDBRANCH  13  14
BRANCH  13  18
ATOM     18  CBP ZGA d          16.436  63.530  48.993  0.00  0.00     0.020 C 
ATOM     19  CAF ZGA d          17.252  64.811  48.805  0.00  0.00     0.013 C 
BRANCH  18  20
ATOM     20  CBA ZGA d          15.819  63.127  47.659  0.00  0.00     0.045 C 
BRANCH  20  21
ATOM     21  CBM ZGA d          16.806  62.535  46.671  0.00  0.00    -0.058 A 
ATOM     22  CAV ZGA d          17.224  63.336  45.605  0.00  0.00     0.007 A 
ATOM     23  CAT ZGA d          18.101  62.835  44.649  0.00  0.00     0.001 A 
ATOM     24  CAS ZGA d          18.576  61.528  44.762  0.00  0.00     0.000 A 
ATOM     25  CAU ZGA d          18.138  60.725  45.813  0.00  0.00     0.001 A 
ATOM     26  CAW ZGA d          17.263  61.224  46.783  0.00  0.00     0.007 A 
ENDBRANCH  20  21
ENDBRANCH  18  20
ENDBRANCH  13  18
ENDBRANCH  11  13
ENDBRANCH  10  11
ENDBRANCH   9  10
ENDBRANCH   7   9
BRANCH   3  27
ATOM     27  OAO ZGA d          16.170  60.023  55.136  0.00  0.00    -0.387 OA
ATOM     28  H18 ZGA d          16.665  60.198  55.928  0.00  0.00     0.210 HD
ENDBRANCH   3  27
BRANCH   4  29
ATOM     29  CBJ ZGA d          19.229  61.978  57.318  0.00  0.00     0.207 C 
ATOM     30  OAI ZGA d          18.792  63.129  57.537  0.00  0.00    -0.646 OA
ATOM     31  OAL ZGA d          20.028  61.414  58.096  0.00  0.00    -0.646 OA
ENDBRANCH   4  29
BRANCH   8  32
ATOM     32  CBL ZGA d          20.504  59.977  52.840  0.00  0.00     0.216 C 
ATOM     33  OAK ZGA d          21.247  59.050  53.218  0.00  0.00    -0.646 OA
ATOM     34  OAN ZGA d          20.693  60.537  51.729  0.00  0.00    -0.646 OA
ENDBRANCH   8  32
BRANCH   5  35
ATOM     35  OBD ZGA d          18.160  58.485  52.932  0.00  0.00    -0.306 OA
BRANCH  35  36
ATOM     36  CBH ZGA d          18.388  57.097  53.271  0.00  0.00     0.283 C 
ATOM     37  OAH ZGA d          18.732  56.747  54.397  0.00  0.00    -0.260 OA
BRANCH  36  38
ATOM     38  CAQ ZGA d          18.160  56.149  52.167  0.00  0.00     0.078 C 
ATOM     39  CAR ZGA d          18.401  54.861  52.369  0.00  0.00    -0.016 C 
BRANCH  39  40
ATOM     40  CBN ZGA d          18.152  53.884  51.248  0.00  0.00     0.004 C 
ATOM     41  CAD ZGA d          19.535  53.430  50.788  0.00  0.00     0.014 C 
BRANCH  40  42
ATOM     42  CBB ZGA d          17.289  52.725  51.748  0.00  0.00     0.012 C 
BRANCH  42  43
ATOM     43  CBO ZGA d          15.987  53.086  52.471  0.00  0.00    -0.018 C 
ATOM     44  CAE ZGA d          14.999  53.841  51.580  0.00  0.00     0.010 C 
BRANCH  43  45
ATOM     45  CAX ZGA d          15.354  51.837  53.088  0.00  0.00    -0.000 C 
ATOM     46  CAB ZGA d          14.212  52.126  54.046  0.00  0.00     0.005 C 
ENDBRANCH  43  45
ENDBRANCH  42  43
ENDBRANCH  40  42
ENDBRANCH  39  40
ENDBRANCH  36  38
ENDBRANCH  35  36
ENDBRANCH   5  35
BRANCH   6  47
ATOM     47  OAP ZGA d          20.752  61.963  54.902  0.00  0.00    -0.373 OA
ATOM     48  H19 ZGA d          20.237  62.633  54.468  0.00  0.00     0.211 HD
ENDBRANCH   6  47
BRANCH   6  49
ATOM     49  CBK ZGA d          20.811  59.811  55.853  0.00  0.00     0.216 C 
ATOM     50  OAJ ZGA d          20.341  58.727  56.260  0.00  0.00    -0.646 OA
ATOM     51  OAM ZGA d          22.016  60.104  56.002  0.00  0.00    -0.646 OA
ENDBRANCH   6  49
TORSDOF 21
