REMARK  8 active torsions:
REMARK  status: ('A' for Active; 'I' for Inactive)
REMARK    1  A    between atoms: PB_1  and  O3A_5 
REMARK    2  A    between atoms: O3A_5  and  PA_6 
REMARK    3  A    between atoms: PA_6  and  O5_9 
REMARK    4  A    between atoms: O5_9  and  C5_10 
REMARK    5  A    between atoms: C5_10  and  C4_11 
REMARK    6  A    between atoms: C3_13  and  O3_14 
REMARK    7  A    between atoms: C2_15  and  O2_16 
REMARK    8  A    between atoms: C1_17  and  N9_18 
ROOT
ATOM      1  C4  GDP d          17.427   4.542  17.543  0.00  0.00     0.180 C 
ATOM      2  O4  GDP d          16.051   4.305  17.333  0.00  0.00    -0.353 OA
ATOM      3  C3  GDP d          18.177   4.096  16.260  0.00  0.00     0.182 C 
ATOM      4  C2  GDP d          17.073   4.122  15.211  0.00  0.00     0.198 C 
ATOM      5  C1  GDP d          15.838   3.748  16.031  0.00  0.00     0.262 C 
ENDROOT
BRANCH   5   6
ATOM      6  N9  GDP d          14.616   4.372  15.496  0.00  0.00    -0.293 N 
ATOM      7  C8  GDP d          14.332   5.701  15.190  0.00  0.00     0.214 A 
ATOM      8  N7  GDP d          13.085   5.860  14.723  0.00  0.00    -0.234 NA
ATOM      9  C5  GDP d          12.498   4.542  14.720  0.00  0.00     0.173 A 
ATOM     10  C6  GDP d          11.154   3.944  14.336  0.00  0.00     0.292 A 
ATOM     11  C4  GDP d          13.421   3.674  15.177  0.00  0.00     0.186 A 
ATOM     12  O6  GDP d          10.244   4.655  13.911  0.00  0.00    -0.265 OA
ATOM     13  N1  GDP d          10.892   2.602  14.452  0.00  0.00    -0.152 N 
ATOM     14  C2  GDP d          11.842   1.675  14.927  0.00  0.00     0.703 A 
ATOM     15  H10 GDP d           9.988   2.267  14.188  0.00  0.00     0.187 HD
ATOM     16  N2  GDP d          11.566   0.373  15.029  0.00  0.00    -0.233 N 
ATOM     17  N3  GDP d          13.088   2.219  15.285  0.00  0.00    -0.044 NA
ATOM     18  H11 GDP d          12.282  -0.279  15.380  0.00  0.00     0.174 HD
ATOM     19  H12 GDP d          10.637   0.021  14.757  0.00  0.00     0.174 HD
ENDBRANCH   5   6
BRANCH   4  20
ATOM     20  O2  GDP d          17.233   3.281  14.055  0.00  0.00    -0.388 OA
ATOM     21  H7  GDP d          16.483   3.387  13.481  0.00  0.00     0.210 HD
ENDBRANCH   4  20
BRANCH   1  22
ATOM     22  C5  GDP d          17.656   6.058  17.900  0.00  0.00     0.216 C 
BRANCH  22  23
ATOM     23  O5  GDP d          17.291   6.888  16.803  0.00  0.00    -0.287 OA
BRANCH  23  24
ATOM     24  PA  GDP d          17.925   8.234  16.589  0.00  0.00     0.418 P 
ATOM     25  O1A GDP d          17.368   8.893  15.336  0.00  0.00    -0.624 OA
ATOM     26  O2A GDP d          19.441   8.178  16.370  0.00  0.00    -0.624 OA
BRANCH  24  27
ATOM     27  O3A GDP d          17.619   8.999  17.850  0.00  0.00    -0.173 OA
BRANCH  27  28
ATOM     28  PB  GDP d          17.921  10.474  18.376  0.00  0.00     0.431 P 
ATOM     29  O1B GDP d          18.642  11.295  17.351  0.00  0.00    -0.616 OA
ATOM     30  O2B GDP d          18.818  10.135  19.581  0.00  0.00    -0.616 OA
ATOM     31  O3B GDP d          16.665  10.984  19.075  0.00  0.00    -0.616 OA
ENDBRANCH  27  28
ENDBRANCH  24  27
ENDBRANCH  23  24
ENDBRANCH  22  23
ENDBRANCH   1  22
BRANCH   3  32
ATOM     32  O3  GDP d          18.611   2.751  16.588  0.00  0.00    -0.390 OA
ATOM     33  H5  GDP d          19.088   2.385  15.852  0.00  0.00     0.210 HD
ENDBRANCH   3  32
TORSDOF 8
