REMARK  10 active torsions:
REMARK  status: ('A' for Active; 'I' for Inactive)
REMARK    1  A    between atoms: C19_4  and  N20_27 
REMARK    2  A    between atoms: C27_12  and  C22_6 
REMARK    3  A    between atoms: C8_21  and  C11_9 
REMARK    4  A    between atoms: C3_16  and  C27_12 
REMARK    5  A    between atoms: C1_14  and  N2_15 
REMARK    6  A    between atoms: C30_32  and  C1_14 
REMARK       I    between atoms: N2_15  and  C28_30 
REMARK    7  A    between atoms: N4_17  and  C3_16 
REMARK    8  A    between atoms: C3_16  and  C5_18 
REMARK       I    between atoms: C28_30  and  N4_17 
REMARK    9  A    between atoms: C31_33  and  C37_37 
REMARK   10  A    between atoms: C37_37  and  N38_38 
ROOT
ATOM      1  C3  MOL d          39.796 -20.718  28.820  0.00  0.00     0.160 C 
ENDROOT
BRANCH   1   2
ATOM      2  C27 MOL d          39.256 -21.853  27.932  0.00  0.00     0.071 C 
BRANCH   2   3
ATOM      3  C22 MOL d          39.789 -23.203  28.352  0.00  0.00    -0.056 A 
ATOM      4  C21 MOL d          40.549 -23.960  27.475  0.00  0.00     0.007 A 
ATOM      5  C26 MOL d          41.268 -25.055  27.927  0.00  0.00     0.001 A 
ATOM      6  C25 MOL d          41.212 -25.424  29.254  0.00  0.00     0.000 A 
ATOM      7  C24 MOL d          40.418 -24.716  30.124  0.00  0.00     0.001 A 
ATOM      8  C23 MOL d          39.699 -23.623  29.675  0.00  0.00     0.007 A 
ENDBRANCH   2   3
ENDBRANCH   1   2
BRANCH   1   9
ATOM      9  N4  MOL d          39.222 -19.433  28.464  0.00  0.00    -0.331 N 
ATOM     10  C28 MOL d          39.116 -18.480  29.428  0.00  0.00     0.317 C 
ATOM     11  N2  MOL d          38.558 -17.323  29.035  0.00  0.00    -0.339 N 
ATOM     12  O29 MOL d          39.568 -18.633  30.560  0.00  0.00    -0.247 OA
ATOM     13  H11 MOL d          38.998 -16.464  29.295  0.00  0.00     0.164 HD
ATOM     14  H13 MOL d          38.911 -19.253  27.531  0.00  0.00     0.165 HD
BRANCH  11  15
ATOM     15  C1  MOL d          37.339 -17.273  28.246  0.00  0.00     0.163 C 
BRANCH  15  16
ATOM     16  C30 MOL d          36.722 -15.905  28.212  0.00  0.00    -0.031 A 
ATOM     17  C31 MOL d          37.363 -14.844  27.536  0.00  0.00    -0.025 A 
ATOM     18  C32 MOL d          36.815 -13.566  27.613  0.00  0.00     0.011 A 
ATOM     19  C33 MOL d          35.647 -13.328  28.323  0.00  0.00     0.024 A 
ATOM     20  C34 MOL d          35.038 -14.376  28.974  0.00  0.00     0.034 A 
ATOM     21  C35 MOL d          35.552 -15.649  28.919  0.00  0.00     0.033 A 
ATOM     22 CL1  MOL d          33.618 -14.084  29.939  0.00  0.00    -0.084 Cl
BRANCH  17  23
ATOM     23  C37 MOL d          38.633 -15.020  26.724  0.00  0.00     0.268 C 
BRANCH  23  24
ATOM     24  N38 MOL d          38.388 -15.272  25.282  0.00  0.00    -0.075 N 
ATOM     25  H25 MOL d          39.270 -15.379  24.805  0.00  0.00     0.274 HD
ATOM     26  H26 MOL d          37.884 -14.494  24.886  0.00  0.00     0.274 HD
ATOM     27  H27 MOL d          37.844 -16.114  25.176  0.00  0.00     0.274 HD
ENDBRANCH  23  24
ENDBRANCH  17  23
ENDBRANCH  15  16
ENDBRANCH  11  15
ENDBRANCH   1   9
BRANCH   1  28
ATOM     28  C5  MOL d          41.290 -20.657  28.799  0.00  0.00     0.129 A 
ATOM     29  N6  MOL d          42.018 -20.376  27.647  0.00  0.00    -0.331 N 
ATOM     30  C7  MOL d          43.333 -20.486  28.007  0.00  0.00     0.134 A 
ATOM     31  H14 MOL d          41.645 -20.136  26.718  0.00  0.00     0.168 HD
ATOM     32  C8  MOL d          43.352 -20.808  29.338  0.00  0.00     0.107 A 
ATOM     33 CL   MOL d          44.587 -20.259  26.871  0.00  0.00    -0.062 Cl
ATOM     34  N9  MOL d          42.068 -20.908  29.826  0.00  0.00    -0.229 NA
BRANCH  32  35
ATOM     35  C11 MOL d          44.476 -21.092  30.249  0.00  0.00    -0.002 A 
ATOM     36  C12 MOL d          45.728 -20.522  30.022  0.00  0.00     0.045 A 
ATOM     37  C16 MOL d          46.793 -20.888  30.840  0.00  0.00     0.065 A 
ATOM     38  C15 MOL d          46.623 -21.788  31.910  0.00  0.00     0.039 A 
ATOM     39  N17 MOL d          48.119 -20.592  30.776  0.00  0.00    -0.275 N 
ATOM     40  C13 MOL d          45.351 -22.306  32.149  0.00  0.00     0.018 A 
ATOM     41  C19 MOL d          47.976 -21.975  32.430  0.00  0.00     0.153 A 
ATOM     42  C14 MOL d          44.297 -21.972  31.320  0.00  0.00     0.015 A 
ATOM     43  N18 MOL d          48.850 -21.256  31.731  0.00  0.00    -0.156 NA
ATOM     44  H16 MOL d          48.529 -19.943  30.089  0.00  0.00     0.189 HD
BRANCH  41  45
ATOM     45  N20 MOL d          48.343 -22.709  33.493  0.00  0.00    -0.382 N 
ATOM     46  H17 MOL d          49.335 -22.764  33.763  0.00  0.00     0.157 HD
ATOM     47  H18 MOL d          47.632 -23.217  34.038  0.00  0.00     0.157 HD
ENDBRANCH  41  45
ENDBRANCH  32  35
ENDBRANCH   1  28
TORSDOF 10
