REMARK  2 active torsions:
REMARK  status: ('A' for Active; 'I' for Inactive)
REMARK    1  A    between atoms: N_1  and  CA_2 
REMARK    2  A    between atoms: CA_2  and  C_3 
ROOT
ATOM      1  N   BET d          19.370  -4.747  50.006  0.00  0.00    -0.069 N 
ATOM      2  C1  BET d          18.544  -5.797  49.388  0.00  0.00     0.272 C 
ATOM      3  C2  BET d          18.480  -3.707  50.547  0.00  0.00     0.272 C 
ATOM      4  C3  BET d          20.142  -5.357  51.103  0.00  0.00     0.272 C 
ENDROOT
BRANCH   1   5
ATOM      5  CA  BET d          20.249  -4.169  48.966  0.00  0.00     0.348 C 
BRANCH   5   6
ATOM      6  C   BET d          21.413  -3.354  49.490  0.00  0.00     0.199 C 
ATOM      7  O1  BET d          21.363  -2.829  50.629  0.00  0.00    -0.647 OA
ATOM      8  O2  BET d          22.406  -3.232  48.739  0.00  0.00    -0.647 OA
ENDBRANCH   5   6
ENDBRANCH   1   5
TORSDOF 2
