REMARK  6 active torsions:
REMARK  status: ('A' for Active; 'I' for Inactive)
REMARK    1  A    between atoms: N5_4  and  S1_1 
REMARK    2  A    between atoms: S1_1  and  N1_16 
REMARK    3  A    between atoms: C1_5  and  N5_4 
REMARK    4  A    between atoms: C2_6  and  C1_5 
REMARK    5  A    between atoms: N2_13  and  C2_6 
REMARK    6  A    between atoms: C3_9  and  N4_8 
ROOT
ATOM      1  C2  2VQ d          -4.762   2.643  13.159  0.00  0.00     0.152 C 
ENDROOT
BRANCH   1   2
ATOM      2  C1  2VQ d          -4.377   1.424  13.924  0.00  0.00     0.154 C 
BRANCH   2   3
ATOM      3  N5  2VQ d          -4.266   1.755  15.361  0.00  0.00    -0.301 N 
ATOM      4  H1  2VQ d          -3.590   2.416  15.686  0.00  0.00     0.173 HD
BRANCH   3   5
ATOM      5  S1  2VQ d          -5.272   1.016  16.392  0.00  0.00     0.312 S 
ATOM      6  O1  2VQ d          -4.695   1.319  17.664  0.00  0.00    -0.183 OA
ATOM      7  O2  2VQ d          -6.616   1.420  16.117  0.00  0.00    -0.183 OA
BRANCH   5   8
ATOM      8  N1  2VQ d          -5.164  -0.558  16.140  0.00  0.00    -0.312 N 
ATOM      9  H10 2VQ d          -4.293  -1.028  16.281  0.00  0.00     0.170 HD
ATOM     10  H11 2VQ d          -5.968  -1.073  15.841  0.00  0.00     0.170 HD
ENDBRANCH   5   8
ENDBRANCH   3   5
ENDBRANCH   2   3
ENDBRANCH   1   2
BRANCH   1  11
ATOM     11  N2  2VQ d          -3.833   3.760  13.388  0.00  0.00    -0.314 N 
ATOM     12  C3  2VQ d          -2.517   3.889  12.995  0.00  0.00     0.195 A 
ATOM     13  C4  2VQ d          -2.046   5.046  13.556  0.00  0.00     0.173 A 
ATOM     14  N3  2VQ d          -3.037   5.636  14.258  0.00  0.00    -0.244 NA
ATOM     15  C5  2VQ d          -4.096   4.855  14.147  0.00  0.00     0.103 A 
ATOM     16  C6  2VQ d          -5.378   5.087  14.830  0.00  0.00     0.091 C 
BRANCH  12  17
ATOM     17  N4  2VQ d          -1.843   3.040  12.091  0.00  0.00    -0.096 N 
ATOM     18  O4  2VQ d          -0.644   3.261  11.903  0.00  0.00    -0.530 OA
ATOM     19  O5  2VQ d          -2.465   2.162  11.494  0.00  0.00    -0.530 OA
ENDBRANCH  12  17
ENDBRANCH   1  11
TORSDOF 6
