REMARK  13 active torsions:
REMARK  status: ('A' for Active; 'I' for Inactive)
REMARK    1  A    between atoms: C5_1  and  C3_2 
REMARK    2  A    between atoms: C5_1  and  C6_6 
REMARK       I    between atoms: C3_2  and  N1_4 
REMARK    3  A    between atoms: N1_4  and  O2_5 
REMARK    4  A    between atoms: C6_6  and  C12_7 
REMARK    5  A    between atoms: C6_6  and  C7_9 
REMARK       I    between atoms: C12_7  and  N14_14 
REMARK    6  A    between atoms: C7_9  and  C8_10 
REMARK    7  A    between atoms: C8_10  and  C9_11 
REMARK    8  A    between atoms: C9_11  and  C10_12 
REMARK    9  A    between atoms: N14_14  and  C15_15 
REMARK   10  A    between atoms: C15_15  and  C16_16 
REMARK   11  A    between atoms: C15_15  and  C19_19 
REMARK       I    between atoms: C19_19  and  N21_21 
REMARK   12  A    between atoms: C22_22  and  C26_26 
REMARK   13  A    between atoms: C26_26  and  O27_27 
ROOT
ATOM      1  C12 BB2 d         -16.889   6.308 -30.643  0.00  0.00     0.223 C 
ATOM      2  O13 BB2 d         -17.038   7.540 -30.723  0.00  0.00    -0.273 OA
ATOM      3  N14 BB2 d         -17.762   5.294 -30.974  0.00  0.00    -0.347 N 
ATOM      4  H17 BB2 d         -17.518   4.394 -31.336  0.00  0.00     0.163 HD
ENDROOT
BRANCH   3   5
ATOM      5  C15 BB2 d         -19.139   5.791 -30.690  0.00  0.00     0.180 C 
BRANCH   5   6
ATOM      6  C16 BB2 d         -19.889   5.629 -32.089  0.00  0.00     0.009 C 
ATOM      7  C18 BB2 d         -19.612   6.817 -33.046  0.00  0.00     0.012 C 
ATOM      8  C17 BB2 d         -19.501   4.295 -32.833  0.00  0.00     0.012 C 
ENDBRANCH   5   6
BRANCH   5   9
ATOM      9  C19 BB2 d         -19.916   4.954 -29.624  0.00  0.00     0.243 C 
ATOM     10  O20 BB2 d         -19.412   3.961 -29.146  0.00  0.00    -0.271 OA
ATOM     11  N21 BB2 d         -21.254   5.728 -29.363  0.00  0.00    -0.344 N 
ATOM     12  C22 BB2 d         -22.222   5.202 -28.352  0.00  0.00     0.111 C 
ATOM     13  C23 BB2 d         -21.852   7.011 -29.896  0.00  0.00     0.126 C 
ATOM     14  C25 BB2 d         -23.398   6.200 -28.314  0.00  0.00     0.029 C 
ATOM     15  C24 BB2 d         -22.732   7.525 -28.740  0.00  0.00     0.022 C 
BRANCH  12  16
ATOM     16  C26 BB2 d         -22.753   3.812 -28.768  0.00  0.00     0.189 C 
BRANCH  16  17
ATOM     17  O27 BB2 d         -23.665   3.299 -27.799  0.00  0.00    -0.399 OA
ATOM     18  H35 BB2 d         -23.976   2.446 -28.078  0.00  0.00     0.209 HD
ENDBRANCH  16  17
ENDBRANCH  12  16
ENDBRANCH   5   9
ENDBRANCH   3   5
BRANCH   1  19
ATOM     19  C6  BB2 d         -15.539   5.747 -30.075  0.00  0.00     0.086 C 
BRANCH  19  20
ATOM     20  C5  BB2 d         -14.493   6.538 -30.945  0.00  0.00     0.119 C 
BRANCH  20  21
ATOM     21  C3  BB2 d         -13.076   6.010 -30.369  0.00  0.00     0.241 C 
ATOM     22  O4  BB2 d         -12.910   5.071 -31.158  0.00  0.00    -0.271 OA
ATOM     23  N1  BB2 d         -12.166   6.295 -29.445  0.00  0.00    -0.237 N 
ATOM     24  H3  BB2 d         -12.307   7.082 -28.845  0.00  0.00     0.197 HD
BRANCH  23  25
ATOM     25  O2  BB2 d         -11.026   5.523 -29.297  0.00  0.00    -0.287 OA
ATOM     26  H4  BB2 d         -10.496   5.875 -28.592  0.00  0.00     0.244 HD
ENDBRANCH  23  25
ENDBRANCH  20  21
ENDBRANCH  19  20
BRANCH  19  27
ATOM     27  C7  BB2 d         -15.402   6.140 -28.577  0.00  0.00     0.014 C 
BRANCH  27  28
ATOM     28  C8  BB2 d         -16.443   5.302 -27.791  0.00  0.00     0.001 C 
BRANCH  28  29
ATOM     29  C9  BB2 d         -16.448   5.584 -26.319  0.00  0.00    -0.000 C 
BRANCH  29  30
ATOM     30  C10 BB2 d         -17.345   4.526 -25.681  0.00  0.00    -0.005 C 
ATOM     31  C11 BB2 d         -18.804   4.968 -25.723  0.00  0.00     0.005 C 
ENDBRANCH  29  30
ENDBRANCH  28  29
ENDBRANCH  27  28
ENDBRANCH  19  27
ENDBRANCH   1  19
TORSDOF 13
