REMARK  14 active torsions:
REMARK  status: ('A' for Active; 'I' for Inactive)
REMARK    1  A    between atoms: C5_8  and  O4_9 
REMARK    2  A    between atoms: O4_9  and  C4_10 
REMARK       I    between atoms: C4_10  and  N1_12 
REMARK    3  A    between atoms: N1_12  and  C6_13 
REMARK    4  A    between atoms: C6_13  and  C8_14 
REMARK    5  A    between atoms: C6_13  and  C7_21 
REMARK    6  A    between atoms: C8_14  and  C9_15 
REMARK    7  A    between atoms: C7_21  and  O6_22 
REMARK    8  A    between atoms: C7_21  and  C15_23 
REMARK    9  A    between atoms: C15_23  and  N2_24 
REMARK   10  A    between atoms: N2_24  and  S_25 
REMARK   11  A    between atoms: N2_24  and  C16_36 
REMARK   12  A    between atoms: S_25  and  C18_28 
REMARK   13  A    between atoms: C21_31  and  O1_32 
REMARK   14  A    between atoms: C16_36  and  C17_37 
ROOT
ATOM      1  C6  DJR d          14.378  22.936  16.974  0.00  0.00     0.121 C 
ENDROOT
BRANCH   1   2
ATOM      2  N1  DJR d          13.411  22.131  17.671  0.00  0.00    -0.329 N 
ATOM      3  C4  DJR d          13.706  20.865  18.001  0.00  0.00     0.361 C 
ATOM      4  O5  DJR d          14.765  20.290  17.755  0.00  0.00    -0.238 OA
ATOM      5  H10 DJR d          12.519  22.515  17.909  0.00  0.00     0.165 HD
BRANCH   3   6
ATOM      6  O4  DJR d          12.658  20.331  18.627  0.00  0.00    -0.296 OA
BRANCH   6   7
ATOM      7  C5  DJR d          12.802  18.974  19.018  0.00  0.00     0.166 C 
ATOM      8  C   DJR d          11.698  18.215  18.374  0.00  0.00     0.075 C 
ATOM      9  C27 DJR d          10.416  18.231  19.157  0.00  0.00     0.266 C 
ATOM     10  C1  DJR d          11.462  18.544  16.910  0.00  0.00     0.038 C 
ATOM     11  O   DJR d          10.828  18.793  20.412  0.00  0.00    -0.358 OA
ATOM     12  O9  DJR d           9.654  19.113  18.334  0.00  0.00    -0.361 OA
ATOM     13  C3  DJR d          12.264  18.800  20.437  0.00  0.00     0.204 C 
ATOM     14  C2  DJR d           9.951  18.771  16.988  0.00  0.00     0.171 C 
ENDBRANCH   6   7
ENDBRANCH   3   6
ENDBRANCH   1   2
BRANCH   1  15
ATOM     15  C8  DJR d          13.773  23.480  15.654  0.00  0.00     0.066 C 
BRANCH  15  16
ATOM     16  C9  DJR d          13.282  22.310  14.805  0.00  0.00    -0.056 A 
ATOM     17  C11 DJR d          14.177  21.648  13.946  0.00  0.00     0.007 A 
ATOM     18  C13 DJR d          13.727  20.561  13.172  0.00  0.00     0.001 A 
ATOM     19  C14 DJR d          12.382  20.139  13.257  0.00  0.00     0.000 A 
ATOM     20  C12 DJR d          11.485  20.804  14.113  0.00  0.00     0.001 A 
ATOM     21  C10 DJR d          11.934  21.889  14.891  0.00  0.00     0.007 A 
ENDBRANCH  15  16
ENDBRANCH   1  15
BRANCH   1  22
ATOM     22  C7  DJR d          14.804  24.068  17.920  0.00  0.00     0.160 C 
BRANCH  22  23
ATOM     23  O6  DJR d          13.647  24.765  18.362  0.00  0.00    -0.392 OA
ATOM     24  H20 DJR d          13.906  25.467  18.948  0.00  0.00     0.210 HD
ENDBRANCH  22  23
BRANCH  22  25
ATOM     25  C15 DJR d          15.703  25.042  17.198  0.00  0.00     0.169 C 
BRANCH  25  26
ATOM     26  N2  DJR d          17.124  24.667  17.232  0.00  0.00    -0.304 N 
BRANCH  26  27
ATOM     27  S   DJR d          17.841  24.311  15.756  0.00  0.00     0.260 S 
ATOM     28  O8  DJR d          18.535  22.974  15.812  0.00  0.00    -0.200 OA
ATOM     29  O7  DJR d          16.725  24.102  14.760  0.00  0.00    -0.200 OA
BRANCH  27  30
ATOM     30  C18 DJR d          18.782  25.702  15.295  0.00  0.00     0.079 A 
ATOM     31  C23 DJR d          20.150  25.797  15.572  0.00  0.00     0.028 A 
ATOM     32  C22 DJR d          20.856  26.962  15.205  0.00  0.00     0.038 A 
ATOM     33  C21 DJR d          20.188  28.036  14.565  0.00  0.00     0.068 A 
ATOM     34  C20 DJR d          18.819  27.922  14.295  0.00  0.00     0.038 A 
ATOM     35  C19 DJR d          18.121  26.766  14.656  0.00  0.00     0.028 A 
BRANCH  33  36
ATOM     36  O1  DJR d          20.870  29.213  14.204  0.00  0.00    -0.356 OA
ATOM     37  C26 DJR d          22.270  29.272  14.523  0.00  0.00     0.210 C 
ENDBRANCH  33  36
ENDBRANCH  27  30
ENDBRANCH  26  27
BRANCH  26  38
ATOM     38  C16 DJR d          18.004  24.986  18.382  0.00  0.00     0.139 C 
BRANCH  38  39
ATOM     39  C17 DJR d          17.707  24.109  19.626  0.00  0.00    -0.004 C 
ATOM     40  C25 DJR d          18.751  24.424  20.713  0.00  0.00     0.011 C 
ATOM     41  C24 DJR d          17.790  22.608  19.282  0.00  0.00     0.011 C 
ENDBRANCH  38  39
ENDBRANCH  26  38
ENDBRANCH  25  26
ENDBRANCH  22  25
ENDBRANCH   1  22
TORSDOF 14
