REMARK  11 active torsions:
REMARK  status: ('A' for Active; 'I' for Inactive)
REMARK    1  A    between atoms: C36_2  and  C34_4 
REMARK    2  A    between atoms: C34_4  and  N35_5 
REMARK    3  A    between atoms: C34_4  and  C33_6 
REMARK    4  A    between atoms: C33_6  and  C30_7 
REMARK    5  A    between atoms: C27_12  and  C22_13 
REMARK    6  A    between atoms: C24_16  and  N26_17 
REMARK    7  A    between atoms: C20_19  and  O16_20 
REMARK    8  A    between atoms: O16_20  and  C14_21 
REMARK    9  A    between atoms: C14_21  and  C15_22 
REMARK   10  A    between atoms: C14_21  and  C11_26 
REMARK   11  A    between atoms: C8_31  and  C3_32 
ROOT
ATOM      1  C22 ML0 d           8.921   1.826  19.294  0.00  0.00     0.090 A 
ATOM      2  C21 ML0 d           8.321   1.734  20.550  0.00  0.00     0.091 A 
ATOM      3  N23 ML0 d           8.459   1.046  18.282  0.00  0.00    -0.062 NA
ATOM      4  C24 ML0 d           7.446   0.167  18.482  0.00  0.00     0.723 A 
ATOM      5  N25 ML0 d           6.863   0.057  19.697  0.00  0.00    -0.039 NA
ATOM      6  C20 ML0 d           7.281   0.825  20.734  0.00  0.00     0.186 A 
ENDROOT
BRANCH   6   7
ATOM      7  O16 ML0 d           6.691   0.718  21.970  0.00  0.00    -0.315 OA
BRANCH   7   8
ATOM      8  C14 ML0 d           5.792  -0.354  22.259  0.00  0.00     0.271 C 
BRANCH   8   9
ATOM      9  C15 ML0 d           6.129  -0.911  23.635  0.00  0.00     0.418 C 
ATOM     10  F19 ML0 d           7.421  -1.156  23.717  0.00  0.00    -0.168 F 
ATOM     11  F18 ML0 d           5.813  -0.030  24.564  0.00  0.00    -0.168 F 
ATOM     12  F17 ML0 d           5.454  -2.031  23.806  0.00  0.00    -0.168 F 
ENDBRANCH   8   9
BRANCH   8  13
ATOM     13  C11 ML0 d           4.375   0.096  22.205  0.00  0.00    -0.020 A 
ATOM     14  C10 ML0 d           4.026   1.427  22.446  0.00  0.00     0.011 A 
ATOM     15  C9  ML0 d           2.688   1.823  22.394  0.00  0.00     0.013 A 
ATOM     16  C8  ML0 d           1.689   0.892  22.098  0.00  0.00    -0.026 A 
ATOM     17  C13 ML0 d           2.043  -0.438  21.862  0.00  0.00     0.013 A 
ATOM     18  C12 ML0 d           3.377  -0.834  21.913  0.00  0.00     0.011 A 
BRANCH  16  19
ATOM     19  C3  ML0 d           0.252   1.299  22.037  0.00  0.00    -0.023 A 
ATOM     20  C2  ML0 d          -0.108   2.562  21.565  0.00  0.00     0.012 A 
ATOM     21  C1  ML0 d          -1.448   2.944  21.505  0.00  0.00     0.004 A 
ATOM     22  C6  ML0 d          -2.442   2.062  21.923  0.00  0.00     0.042 A 
ATOM     23  C5  ML0 d          -2.094   0.797  22.398  0.00  0.00     0.117 A 
ATOM     24  C4  ML0 d          -0.750   0.417  22.456  0.00  0.00     0.054 A 
ATOM     25  F7  ML0 d          -3.053  -0.059  22.799  0.00  0.00    -0.206 F 
ENDBRANCH  16  19
ENDBRANCH   8  13
ENDBRANCH   7   8
ENDBRANCH   6   7
BRANCH   1  26
ATOM     26  C27 ML0 d          10.019   2.806  19.048  0.00  0.00    -0.007 A 
ATOM     27  C28 ML0 d          10.094   3.947  19.843  0.00  0.00     0.014 A 
ATOM     28  C29 ML0 d          11.090   4.895  19.628  0.00  0.00     0.008 A 
ATOM     29  C30 ML0 d          12.018   4.702  18.607  0.00  0.00    -0.056 A 
ATOM     30  C31 ML0 d          11.945   3.567  17.797  0.00  0.00     0.008 A 
ATOM     31  C32 ML0 d          10.946   2.619  18.018  0.00  0.00     0.014 A 
BRANCH  29  32
ATOM     32  C33 ML0 d          13.077   5.758  18.392  0.00  0.00     0.082 C 
BRANCH  32  33
ATOM     33  C34 ML0 d          14.486   5.275  18.700  0.00  0.00     0.287 C 
BRANCH  33  34
ATOM     34  C36 ML0 d          15.402   6.388  18.274  0.00  0.00     0.204 C 
ATOM     35  O38 ML0 d          15.971   7.086  19.149  0.00  0.00    -0.646 OA
ATOM     36  O37 ML0 d          15.542   6.598  17.040  0.00  0.00    -0.646 OA
ENDBRANCH  33  34
BRANCH  33  37
ATOM     37  N35 ML0 d          14.609   4.972  20.119  0.00  0.00    -0.065 N 
ATOM     38  H2  ML0 d          13.979   4.223  20.358  0.00  0.00     0.275 HD
ATOM     39  H3  ML0 d          14.377   5.791  20.659  0.00  0.00     0.275 HD
ATOM     40  H4  ML0 d          15.556   4.692  20.322  0.00  0.00     0.275 HD
ENDBRANCH  33  37
ENDBRANCH  32  33
ENDBRANCH  29  32
ENDBRANCH   1  26
BRANCH   4  41
ATOM     41  N26 ML0 d           7.008  -0.608  17.465  0.00  0.00    -0.231 N 
ATOM     42  H12 ML0 d           7.445  -0.533  16.535  0.00  0.00     0.174 HD
ATOM     43  H13 ML0 d           6.238  -1.274  17.620  0.00  0.00     0.174 HD
ENDBRANCH   4  41
TORSDOF 11
