REMARK  8 active torsions:
REMARK  status: ('A' for Active; 'I' for Inactive)
REMARK    1  A    between atoms: S1_1  and  C2_4 
REMARK    2  A    between atoms: S1_1  and  N6_3 
REMARK    3  A    between atoms: S1_1  and  N5_2 
REMARK    4  A    between atoms: C2_4  and  C3_5 
REMARK    5  A    between atoms: C3_5  and  C13_20 
REMARK    6  A    between atoms: C3_5  and  C4_6 
REMARK       I    between atoms: C4_6  and  N2_8 
REMARK    7  A    between atoms: N2_8  and  C5_9 
REMARK    8  A    between atoms: C13_20  and  C14_21 
ROOT
ATOM      1  C5  SRS d          49.560 -37.774  46.525  0.00  0.00     0.180 C 
ATOM      2  C6  SRS d          49.659 -36.260  46.432  0.00  0.00     0.240 C 
ATOM      3  O4  SRS d          48.695 -35.540  46.697  0.00  0.00    -0.271 OA
ATOM      4  N3  SRS d          50.827 -35.759  46.059  0.00  0.00    -0.359 N 
ATOM      5  C7  SRS d          51.067 -34.323  45.878  0.00  0.00     0.122 C 
ATOM      6  C8  SRS d          52.322 -34.166  44.969  0.00  0.00     0.020 C 
ATOM      7  C9  SRS d          52.011 -33.572  43.589  0.00  0.00     0.002 C 
ATOM      8  C10 SRS d          51.576 -34.619  42.587  0.00  0.00     0.002 C 
ATOM      9  C11 SRS d          50.344 -34.192  41.776  0.00  0.00     0.020 C 
ATOM     10  C12 SRS d          49.618 -35.433  41.204  0.00  0.00     0.128 C 
ATOM     11  N4  SRS d          49.622 -36.576  42.151  0.00  0.00    -0.356 N 
ATOM     12  C17 SRS d          48.774 -38.343  45.328  0.00  0.00     0.075 C 
ATOM     13  C18 SRS d          49.307 -37.869  44.014  0.00  0.00    -0.028 A 
ATOM     14  C19 SRS d          48.974 -36.676  43.337  0.00  0.00     0.099 A 
ATOM     15  C20 SRS d          50.217 -38.515  43.161  0.00  0.00    -0.002 A 
ATOM     16  C21 SRS d          50.387 -37.686  42.015  0.00  0.00     0.045 A 
ATOM     17  C22 SRS d          50.906 -39.727  43.262  0.00  0.00     0.014 A 
ATOM     18  C23 SRS d          51.248 -38.077  40.975  0.00  0.00     0.030 A 
ATOM     19  C24 SRS d          51.756 -40.112  42.222  0.00  0.00     0.001 A 
ATOM     20  C25 SRS d          51.928 -39.297  41.088  0.00  0.00     0.002 A 
ATOM     21  H8  SRS d          51.583 -36.392  45.892  0.00  0.00     0.162 HD
ENDROOT
BRANCH   1  22
ATOM     22  N2  SRS d          48.896 -38.155  47.765  0.00  0.00    -0.347 N 
ATOM     23  C4  SRS d          49.588 -38.605  48.810  0.00  0.00     0.223 C 
ATOM     24  O3  SRS d          50.816 -38.687  48.763  0.00  0.00    -0.273 OA
ATOM     25  H6  SRS d          47.901 -38.077  47.833  0.00  0.00     0.163 HD
BRANCH  23  26
ATOM     26  C3  SRS d          48.824 -38.952  50.084  0.00  0.00     0.089 C 
BRANCH  26  27
ATOM     27  C2  SRS d          49.369 -40.168  50.841  0.00  0.00     0.111 C 
BRANCH  27  28
ATOM     28  S1  SRS d          48.547 -41.662  50.475  0.00  0.00    -0.074 SA
ATOM     29  C26 SRS d          49.539 -42.689  49.460  0.00  0.00     0.115 C 
BRANCH  28  30
ATOM     30  N6  SRS d          48.448 -42.300  51.933  0.00  0.00    -0.270 NA
ATOM     31  H2  SRS d          49.286 -42.468  52.467  0.00  0.00     0.196 HD
ENDBRANCH  28  30
BRANCH  28  32
ATOM     32  N5  SRS d          46.989 -41.619  50.106  0.00  0.00    -0.270 NA
ATOM     33  H1  SRS d          46.498 -42.473  49.892  0.00  0.00     0.196 HD
ENDBRANCH  28  32
ENDBRANCH  27  28
ENDBRANCH  26  27
BRANCH  26  34
ATOM     34  C13 SRS d          49.001 -37.794  51.095  0.00  0.00     0.018 C 
BRANCH  34  35
ATOM     35  C14 SRS d          48.164 -36.510  51.083  0.00  0.00    -0.022 C 
ATOM     36  C16 SRS d          48.286 -35.955  52.516  0.00  0.00     0.009 C 
ATOM     37  C15 SRS d          46.672 -36.735  50.750  0.00  0.00     0.009 C 
ENDBRANCH  34  35
ENDBRANCH  26  34
ENDBRANCH  23  26
ENDBRANCH   1  22
TORSDOF 8
