REMARK  10 active torsions:
REMARK  status: ('A' for Active; 'I' for Inactive)
REMARK    1  A    between atoms: C6_18  and  O6_1 
REMARK    2  A    between atoms: C4_4  and  O4_5 
REMARK    3  A    between atoms: O4_5  and  C1A_10 
REMARK    4  A    between atoms: C3_6  and  O3_7 
REMARK    5  A    between atoms: C2_8  and  C6_18 
REMARK    6  A    between atoms: C2A_11  and  O2A_12 
REMARK    7  A    between atoms: C3A_13  and  O3A_14 
REMARK    8  A    between atoms: C4A_15  and  O4A_16 
REMARK    9  A    between atoms: C5A_17  and  C6A_19 
REMARK   10  A    between atoms: C6A_19  and  O6A_20 
ROOT
ATOM      1  C1A ISX d          21.598  33.581  16.550  0.00  0.00     0.292 C 
ATOM      2  C2A ISX d          22.695  34.565  16.946  0.00  0.00     0.204 C 
ATOM      3  C3A ISX d          24.059  33.881  17.040  0.00  0.00     0.183 C 
ATOM      4  C4A ISX d          23.987  32.622  17.908  0.00  0.00     0.180 C 
ATOM      5  C5A ISX d          22.881  31.717  17.348  0.00  0.00     0.179 C 
ATOM      6  O5A ISX d          21.658  32.442  17.413  0.00  0.00    -0.348 OA
ENDROOT
BRANCH   1   7
ATOM      7  O4  ISX d          20.350  34.228  16.743  0.00  0.00    -0.349 OA
BRANCH   7   8
ATOM      8  C4  ISX d          19.290  33.605  16.002  0.00  0.00     0.179 C 
ATOM      9  C5  ISX d          19.211  34.266  14.622  0.00  0.00     0.266 C 
ATOM     10  N5  ISX d          17.955  33.988  13.934  0.00  0.00    -0.072 N 
ATOM     11  C1  ISX d          16.715  34.139  14.697  0.00  0.00     0.241 C 
ATOM     12  H4  ISX d          17.994  33.035  13.608  0.00  0.00     0.277 HD
ATOM     13  H5  ISX d          17.900  34.611  13.143  0.00  0.00     0.277 HD
ATOM     14  C2  ISX d          16.819  33.315  15.979  0.00  0.00     0.066 C 
ATOM     15  C3  ISX d          18.016  33.777  16.818  0.00  0.00     0.156 C 
BRANCH  14  16
ATOM     16  C6  ISX d          15.484  33.333  16.732  0.00  0.00     0.173 C 
BRANCH  16  17
ATOM     17  O6  ISX d          15.149  34.662  17.145  0.00  0.00    -0.400 OA
ATOM     18  H1  ISX d          14.320  34.649  17.609  0.00  0.00     0.209 HD
ENDBRANCH  16  17
ENDBRANCH  14  16
BRANCH  15  19
ATOM     19  O3  ISX d          18.149  33.037  18.043  0.00  0.00    -0.392 OA
ATOM     20  H8  ISX d          18.893  33.368  18.532  0.00  0.00     0.210 HD
ENDBRANCH  15  19
ENDBRANCH   7   8
ENDBRANCH   1   7
BRANCH   2  21
ATOM     21  O2A ISX d          22.742  35.676  16.037  0.00  0.00    -0.388 OA
ATOM     22  H14 ISX d          23.431  36.273  16.304  0.00  0.00     0.210 HD
ENDBRANCH   2  21
BRANCH   3  23
ATOM     23  O3A ISX d          25.009  34.810  17.573  0.00  0.00    -0.390 OA
ATOM     24  H16 ISX d          25.067  35.566  17.000  0.00  0.00     0.210 HD
ENDBRANCH   3  23
BRANCH   5  25
ATOM     25  C6A ISX d          22.702  30.437  18.149  0.00  0.00     0.198 C 
BRANCH  25  26
ATOM     26  O6A ISX d          22.178  30.776  19.439  0.00  0.00    -0.398 OA
ATOM     27  H24 ISX d          21.341  31.213  19.335  0.00  0.00     0.209 HD
ENDBRANCH  25  26
ENDBRANCH   5  25
BRANCH   4  28
ATOM     28  O4A ISX d          25.250  31.945  17.917  0.00  0.00    -0.390 OA
ATOM     29  H18 ISX d          25.916  32.524  18.268  0.00  0.00     0.210 HD
ENDBRANCH   4  28
TORSDOF 10
