REMARK  5 active torsions:
REMARK  status: ('A' for Active; 'I' for Inactive)
REMARK    1  A    between atoms: O6_2  and  C1_3 
REMARK    2  A    between atoms: C2_4  and  O2_5 
REMARK    3  A    between atoms: C3_6  and  O3_7 
REMARK    4  A    between atoms: C4_8  and  O4_9 
REMARK    5  A    between atoms: C5_10  and  N5_11 
ROOT
ATOM      1  C1  GOO d          30.867  65.932   7.653  0.00  0.00     0.185 C 
ATOM      2  C2  GOO d          31.614  67.185   7.150  0.00  0.00     0.180 C 
ATOM      3  C3  GOO d          33.009  66.945   7.727  0.00  0.00     0.180 C 
ATOM      4  C4  GOO d          32.710  66.407   9.149  0.00  0.00     0.182 C 
ATOM      5  C5  GOO d          31.229  65.978   9.114  0.00  0.00     0.245 C 
ENDROOT
BRANCH   5   6
ATOM      6  N5  GOO d          31.147  64.642   9.764  0.00  0.00    -0.070 N 
ATOM      7  H12 GOO d          30.190  64.325   9.761  0.00  0.00     0.274 HD
ATOM      8  H13 GOO d          31.476  64.710  10.714  0.00  0.00     0.274 HD
ATOM      9  H14 GOO d          31.720  63.986   9.257  0.00  0.00     0.274 HD
ENDBRANCH   5   6
BRANCH   1  10
ATOM     10  O6  GOO d          29.439  66.115   7.631  0.00  0.00    -0.386 OA
ATOM     11  C7  GOO d          28.889  66.002   6.306  0.00  0.00     0.202 C 
ENDBRANCH   1  10
BRANCH   4  12
ATOM     12  O4  GOO d          33.582  65.331   9.528  0.00  0.00    -0.391 OA
ATOM     13  H10 GOO d          33.480  64.612   8.916  0.00  0.00     0.210 HD
ENDBRANCH   4  12
BRANCH   2  14
ATOM     14  O2  GOO d          31.644  67.324   5.729  0.00  0.00    -0.390 OA
ATOM     15  H6  GOO d          32.078  66.570   5.347  0.00  0.00     0.210 HD
ENDBRANCH   2  14
BRANCH   3  16
ATOM     16  O3  GOO d          33.725  65.950   6.961  0.00  0.00    -0.390 OA
ATOM     17  H8  GOO d          33.814  66.247   6.063  0.00  0.00     0.210 HD
ENDBRANCH   3  16
TORSDOF 5
