REMARK  4 active torsions:
REMARK  status: ('A' for Active; 'I' for Inactive)
REMARK    1  A    between atoms: N_1  and  CA_2 
REMARK    2  A    between atoms: CA_2  and  C_3 
REMARK    3  A    between atoms: CA_2  and  CB_6 
REMARK    4  A    between atoms: CB_6  and  CG_7 
ROOT
ATOM      1  CB  AMQ d          11.122  51.945  20.892  0.00  0.00     0.089 C 
ENDROOT
BRANCH   1   2
ATOM      2  CA  AMQ d          12.346  51.073  20.521  0.00  0.00     0.287 C 
BRANCH   2   3
ATOM      3  N   AMQ d          11.885  49.756  20.044  0.00  0.00    -0.065 N 
ATOM      4  H1  AMQ d          11.286  49.880  19.243  0.00  0.00     0.275 HD
ATOM      5  H2  AMQ d          11.373  49.293  20.778  0.00  0.00     0.275 HD
ATOM      6  H3  AMQ d          12.681  49.195  19.785  0.00  0.00     0.275 HD
ENDBRANCH   2   3
BRANCH   2   7
ATOM      7  C   AMQ d          13.251  50.873  21.733  0.00  0.00     0.204 C 
ATOM      8  OT1 AMQ d          13.710  51.909  22.267  0.00  0.00    -0.646 OA
ATOM      9  OT2 AMQ d          13.506  49.697  22.079  0.00  0.00    -0.646 OA
ENDBRANCH   2   7
ENDBRANCH   1   2
BRANCH   1  10
ATOM     10  CG  AMQ d          10.272  52.234  19.649  0.00  0.00     0.031 A 
ATOM     11  CD1 AMQ d          10.489  53.284  18.762  0.00  0.00     0.207 A 
ATOM     12  OE1 AMQ d          11.492  54.205  18.871  0.00  0.00    -0.170 OA
ATOM     13  NE1 AMQ d           9.596  53.265  17.781  0.00  0.00    -0.236 N 
ATOM     14  OE2 AMQ d           8.732  52.165  18.016  0.00  0.00    -0.240 OA
ATOM     15  H10 AMQ d           9.542  53.908  17.017  0.00  0.00     0.197 HD
ATOM     16  CD2 AMQ d           9.161  51.558  19.156  0.00  0.00     0.083 A 
ATOM     17  CE2 AMQ d           8.504  50.317  19.759  0.00  0.00     0.079 C 
ENDBRANCH   1  10
TORSDOF 4
