REMARK  9 active torsions:
REMARK  status: ('A' for Active; 'I' for Inactive)
REMARK    1  A    between atoms: C62_5  and  C61_6 
REMARK    2  A    between atoms: C61_6  and  N6_7 
REMARK    3  A    between atoms: N6_7  and  C6_8 
REMARK    4  A    between atoms: N9_16  and  C1'_17 
REMARK    5  A    between atoms: C2'_19  and  O2'_20 
REMARK    6  A    between atoms: C3'_21  and  O3'_22 
REMARK    7  A    between atoms: C4'_23  and  C5'_24 
REMARK    8  A    between atoms: C5'_24  and  O5'_25 
REMARK    9  A    between atoms: O5'_25  and  PA_26 
ROOT
ATOM      1  C6  MOL d           4.789  -5.434  41.101  0.00  0.00     0.158 A 
ATOM      2  N1  MOL d           5.845  -6.117  40.601  0.00  0.00    -0.222 NA
ATOM      3  C2  MOL d           6.694  -5.567  39.747  0.00  0.00     0.237 A 
ATOM      4  N3  MOL d           6.545  -4.317  39.351  0.00  0.00    -0.222 NA
ATOM      5  C4  MOL d           5.519  -3.573  39.811  0.00  0.00     0.167 A 
ATOM      6  C5  MOL d           4.603  -4.121  40.701  0.00  0.00     0.149 A 
ATOM      7  N7  MOL d           3.707  -3.184  40.989  0.00  0.00    -0.236 NA
ATOM      8  C8  MOL d           4.035  -2.085  40.304  0.00  0.00     0.214 A 
ATOM      9  N9  MOL d           5.141  -2.316  39.575  0.00  0.00    -0.294 N 
ENDROOT
BRANCH   9  10
ATOM     10  C1' MOL d           5.843  -1.361  38.664  0.00  0.00     0.262 C 
ATOM     11  O4' MOL d           5.048  -0.144  38.588  0.00  0.00    -0.353 OA
ATOM     12  C4' MOL d           5.141   0.358  37.269  0.00  0.00     0.180 C 
ATOM     13  C3' MOL d           5.257  -0.855  36.357  0.00  0.00     0.182 C 
ATOM     14  C2' MOL d           6.025  -1.854  37.207  0.00  0.00     0.198 C 
BRANCH  12  15
ATOM     15  C5' MOL d           3.808   0.902  36.830  0.00  0.00     0.217 C 
BRANCH  15  16
ATOM     16  O5' MOL d           3.216   1.874  37.705  0.00  0.00    -0.280 OA
BRANCH  16  17
ATOM     17  PA  MOL d           1.579   1.709  37.627  0.00  0.00     0.422 P 
ATOM     18  O2  MOL d           0.857   1.348  38.980  0.00  0.00    -0.617 OA
ATOM     19  O3  MOL d           0.805   2.534  36.441  0.00  0.00    -0.617 OA
ATOM     20  O1  MOL d           1.546   3.065  38.223  0.00  0.00    -0.617 OA
ENDBRANCH  16  17
ENDBRANCH  15  16
ENDBRANCH  12  15
BRANCH  13  21
ATOM     21  O3' MOL d           6.020  -0.477  35.205  0.00  0.00    -0.390 OA
ATOM     22  H   MOL d           6.837  -0.080  35.484  0.00  0.00     0.210 HD
ENDBRANCH  13  21
BRANCH  14  23
ATOM     23  O2' MOL d           7.411  -1.797  36.847  0.00  0.00    -0.388 OA
ATOM     24  H   MOL d           7.518  -2.100  35.953  0.00  0.00     0.210 HD
ENDBRANCH  14  23
ENDBRANCH   9  10
BRANCH   1  25
ATOM     25  N6  MOL d           3.939  -5.998  41.948  0.00  0.00    -0.367 N 
ATOM     26  H   MOL d           3.212  -5.416  42.387  0.00  0.00     0.161 HD
BRANCH  25  27
ATOM     27  C61 MOL d           4.003  -7.431  42.280  0.00  0.00     0.186 C 
BRANCH  27  28
ATOM     28  C62 MOL d           4.772  -7.535  43.594  0.00  0.00     0.070 A 
ATOM     29  C66 MOL d           4.301  -7.615  44.833  0.00  0.00     0.036 A 
ATOM     30  fur MOL d           5.340  -7.677  45.668  0.00  0.00     0.027 A 
ATOM     31  C64 MOL d           6.470  -7.628  44.965  0.00  0.00     0.142 A 
ATOM     32  O63 MOL d           6.134  -7.540  43.640  0.00  0.00    -0.325 OA
ENDBRANCH  27  28
ENDBRANCH  25  27
ENDBRANCH   1  25
TORSDOF 9
