REMARK  19 active torsions:
REMARK  status: ('A' for Active; 'I' for Inactive)
REMARK    1  A    between atoms: C6_6  and  C2_2 
REMARK    2  A    between atoms: O7_7  and  C6_6 
REMARK    3  A    between atoms: C10_8  and  O7_7 
REMARK       I    between atoms: N11_9  and  C10_8 
REMARK    4  A    between atoms: C12_10  and  N11_9 
REMARK    5  A    between atoms: C13_11  and  C12_10 
REMARK    6  A    between atoms: C12_10  and  C26_19 
REMARK    7  A    between atoms: C14_12  and  C13_11 
REMARK    8  A    between atoms: C13_11  and  O41_26 
REMARK    9  A    between atoms: C15_13  and  C14_12 
REMARK   10  A    between atoms: C15_13  and  C44_27 
REMARK   11  A    between atoms: N58_34  and  C15_13 
REMARK   12  A    between atoms: C18_14  and  C19_15 
REMARK       I    between atoms: C18_14  and  N58_34 
REMARK   13  A    between atoms: C19_15  and  N20_16 
REMARK   14  A    between atoms: C19_15  and  C62_36 
REMARK       I    between atoms: N20_16  and  C21_17 
REMARK       I    between atoms: C21_17  and  N74_39 
REMARK   15  A    between atoms: C26_19  and  C28_20 
REMARK   16  A    between atoms: C44_27  and  C45_28 
REMARK   17  A    between atoms: N74_39  and  C75_40 
REMARK   18  A    between atoms: C75_40  and  C77_42 
REMARK   19  A    between atoms: C82_45  and  C85_47 
ROOT
ATOM      1  C15 RIT d          19.201   1.886  11.665  0.00  0.00     0.091 C 
ENDROOT
BRANCH   1   2
ATOM      2  C14 RIT d          20.325   1.060  10.984  0.00  0.00     0.059 C 
BRANCH   2   3
ATOM      3  C13 RIT d          20.463  -0.435  11.176  0.00  0.00     0.143 C 
BRANCH   3   4
ATOM      4  C12 RIT d          19.416  -1.280  10.426  0.00  0.00     0.119 C 
BRANCH   4   5
ATOM      5  N11 RIT d          19.271  -0.919   9.003  0.00  0.00    -0.329 N 
ATOM      6  C10 RIT d          18.088  -0.856   8.331  0.00  0.00     0.361 C 
ATOM      7  O24 RIT d          16.968  -1.095   8.803  0.00  0.00    -0.238 OA
ATOM      8  H5  RIT d          20.104  -0.704   8.493  0.00  0.00     0.165 HD
BRANCH   6   9
ATOM      9  O7  RIT d          18.295  -0.479   7.010  0.00  0.00    -0.299 OA
BRANCH   9  10
ATOM     10  C6  RIT d          17.292  -0.314   6.035  0.00  0.00     0.228 C 
BRANCH  10  11
ATOM     11  C2  RIT d          17.921   0.075   4.821  0.00  0.00     0.025 A 
ATOM     12  C1  RIT d          18.257   1.219   4.158  0.00  0.00     0.133 A 
ATOM     13  N5  RIT d          18.846   1.031   3.039  0.00  0.00    -0.265 NA
ATOM     14  C4  RIT d          18.955  -0.236   2.858  0.00  0.00     0.166 A 
ATOM     15  S3  RIT d          18.363  -1.446   4.014  0.00  0.00    -0.084 SA
ENDBRANCH  10  11
ENDBRANCH   9  10
ENDBRANCH   6   9
ENDBRANCH   4   5
BRANCH   4  16
ATOM     16  C26 RIT d          19.672  -2.792  10.667  0.00  0.00     0.066 C 
BRANCH  16  17
ATOM     17  C28 RIT d          18.819  -3.791  10.059  0.00  0.00    -0.056 A 
ATOM     18  C31 RIT d          17.677  -4.008  10.881  0.00  0.00     0.007 A 
ATOM     19  C32 RIT d          16.705  -4.960  10.446  0.00  0.00     0.001 A 
ATOM     20  C33 RIT d          16.854  -5.685   9.221  0.00  0.00     0.000 A 
ATOM     21  C34 RIT d          18.013  -5.450   8.409  0.00  0.00     0.001 A 
ATOM     22  C35 RIT d          18.993  -4.507   8.824  0.00  0.00     0.007 A 
ENDBRANCH  16  17
ENDBRANCH   4  16
ENDBRANCH   3   4
BRANCH   3  23
ATOM     23  O41 RIT d          21.715  -0.845  10.670  0.00  0.00    -0.393 OA
ATOM     24  H20 RIT d          21.811  -1.783  10.786  0.00  0.00     0.210 HD
ENDBRANCH   3  23
ENDBRANCH   2   3
ENDBRANCH   1   2
BRANCH   1  25
ATOM     25  C44 RIT d          19.483   3.316  11.253  0.00  0.00     0.063 C 
BRANCH  25  26
ATOM     26  C45 RIT d          18.351   4.152  11.623  0.00  0.00    -0.056 A 
ATOM     27  C48 RIT d          18.487   4.944  12.806  0.00  0.00     0.007 A 
ATOM     28  C49 RIT d          17.418   5.788  13.240  0.00  0.00     0.001 A 
ATOM     29  C50 RIT d          16.226   5.827  12.476  0.00  0.00     0.000 A 
ATOM     30  C51 RIT d          16.091   5.047  11.304  0.00  0.00     0.001 A 
ATOM     31  C52 RIT d          17.148   4.206  10.869  0.00  0.00     0.007 A 
ENDBRANCH  25  26
ENDBRANCH   1  25
BRANCH   1  32
ATOM     32  N58 RIT d          19.220   1.805  13.127  0.00  0.00    -0.354 N 
ATOM     33  C18 RIT d          18.218   1.332  13.901  0.00  0.00     0.241 C 
ATOM     34  O61 RIT d          17.140   0.899  13.441  0.00  0.00    -0.271 OA
ATOM     35  H28 RIT d          20.044   2.127  13.592  0.00  0.00     0.162 HD
BRANCH  33  36
ATOM     36  C19 RIT d          18.526   1.395  15.410  0.00  0.00     0.181 C 
BRANCH  36  37
ATOM     37  N20 RIT d          17.934   2.610  16.006  0.00  0.00    -0.329 N 
ATOM     38  C21 RIT d          18.701   3.675  16.387  0.00  0.00     0.319 C 
ATOM     39  N74 RIT d          17.978   4.765  16.835  0.00  0.00    -0.333 N 
ATOM     40  O76 RIT d          19.957   3.627  16.324  0.00  0.00    -0.247 OA
ATOM     41  C95 RIT d          16.653   4.908  16.941  0.00  0.00     0.154 C 
ATOM     42  H12 RIT d          16.943   2.655  16.134  0.00  0.00     0.165 HD
BRANCH  39  43
ATOM     43  C75 RIT d          18.669   5.994  17.286  0.00  0.00     0.186 C 
BRANCH  43  44
ATOM     44  C77 RIT d          18.978   7.032  16.282  0.00  0.00     0.060 A 
ATOM     45  C80 RIT d          20.213   6.994  15.697  0.00  0.00     0.080 A 
ATOM     46  S81 RIT d          20.258   8.359  14.553  0.00  0.00    -0.084 SA
ATOM     47  C82 RIT d          18.606   8.792  15.021  0.00  0.00     0.078 A 
ATOM     48  N83 RIT d          18.143   7.969  15.928  0.00  0.00    -0.248 NA
BRANCH  47  49
ATOM     49  C85 RIT d          18.228   9.916  14.279  0.00  0.00     0.037 C 
ATOM     50  C86 RIT d          18.924  11.265  14.104  0.00  0.00     0.016 C 
ATOM     51  C90 RIT d          16.849  10.290  14.653  0.00  0.00     0.016 C 
ENDBRANCH  47  49
ENDBRANCH  43  44
ENDBRANCH  39  43
ENDBRANCH  36  37
BRANCH  36  52
ATOM     52  C62 RIT d          18.028   0.160  16.253  0.00  0.00     0.009 C 
ATOM     53  C64 RIT d          18.535  -1.228  15.777  0.00  0.00     0.012 C 
ATOM     54  C68 RIT d          18.384   0.341  17.752  0.00  0.00     0.012 C 
ENDBRANCH  36  52
ENDBRANCH  33  36
ENDBRANCH   1  32
TORSDOF 19
