REMARK  6 active torsions:
REMARK  status: ('A' for Active; 'I' for Inactive)
REMARK    1  A    between atoms: CAT_2  and  CAX_4 
REMARK    2  A    between atoms: CAW_15  and  CAQ_16 
REMARK    3  A    between atoms: CAQ_16  and  CAM_17 
REMARK    4  A    between atoms: CAM_17  and  CAO_18 
REMARK    5  A    between atoms: CAO_18  and  OAS_19 
REMARK    6  A    between atoms: OAS_19  and  CAV_20 
ROOT
ATOM      1  CAX MOL d          -8.757 -21.854   6.849  0.00  0.00     0.119 A 
ATOM      2  NBC MOL d          -9.375 -20.685   7.217  0.00  0.00    -0.340 N 
ATOM      3  CBB MOL d          -9.767 -20.043   6.112  0.00  0.00     0.052 A 
ATOM      4  CAR MOL d          -9.630 -20.082   8.569  0.00  0.00     0.130 C 
ATOM      5  CAN MOL d          -9.885 -18.553   8.523  0.00  0.00     0.025 C 
ATOM      6  CAP MOL d         -10.752 -18.102   7.356  0.00  0.00     0.042 C 
ATOM      7  CAU MOL d         -10.421 -18.831   6.041  0.00  0.00    -0.030 A 
ATOM      8  CAG MOL d         -10.758 -18.310   4.750  0.00  0.00     0.009 A 
ATOM      9  CAE MOL d         -10.428 -19.039   3.576  0.00  0.00     0.002 A 
ATOM     10  CAL MOL d          -9.755 -20.274   3.679  0.00  0.00     0.014 A 
ATOM     11  CBA MOL d          -9.424 -20.765   4.961  0.00  0.00     0.000 A 
ATOM     12  CAW MOL d          -8.767 -21.946   5.440  0.00  0.00    -0.012 A 
ENDROOT
BRANCH  12  13
ATOM     13  CAQ MOL d          -8.186 -23.077   4.600  0.00  0.00     0.044 C 
BRANCH  13  14
ATOM     14  CAM MOL d          -6.680 -22.893   4.408  0.00  0.00     0.031 C 
BRANCH  14  15
ATOM     15  CAO MOL d          -6.351 -21.651   3.581  0.00  0.00     0.176 C 
BRANCH  15  16
ATOM     16  OAS MOL d          -6.954 -21.833   2.328  0.00  0.00    -0.350 OA
BRANCH  16  17
ATOM     17  CAV MOL d          -6.592 -20.920   1.321  0.00  0.00     0.079 A 
ATOM     18  CAZ MOL d          -6.955 -21.202  -0.005  0.00  0.00     0.007 A 
ATOM     19  CAK MOL d          -7.663 -22.385  -0.292  0.00  0.00     0.015 A 
ATOM     20  CAY MOL d          -6.630 -20.331  -1.018  0.00  0.00    -0.023 A 
ATOM     21  CAD MOL d          -8.037 -22.687  -1.601  0.00  0.00     0.001 A 
ATOM     22  CAC MOL d          -7.708 -21.810  -2.621  0.00  0.00     0.001 A 
ATOM     23  CAI MOL d          -7.010 -20.642  -2.335  0.00  0.00     0.012 A 
ATOM     24  CAJ MOL d          -5.924 -19.143  -0.736  0.00  0.00     0.012 A 
ATOM     25  CAF MOL d          -5.556 -18.867   0.573  0.00  0.00     0.004 A 
ATOM     26  CAH MOL d          -5.893 -19.750   1.599  0.00  0.00     0.037 A 
ENDBRANCH  16  17
ENDBRANCH  15  16
ENDBRANCH  14  15
ENDBRANCH  13  14
ENDBRANCH  12  13
BRANCH   1  27
ATOM     27  CAT MOL d          -8.163 -22.894   7.793  0.00  0.00     0.227 C 
ATOM     28  OAA MOL d          -8.740 -23.174   8.876  0.00  0.00    -0.643 OA
ATOM     29  OAB MOL d          -7.103 -23.485   7.509  0.00  0.00    -0.643 OA
ENDBRANCH   1  27
TORSDOF 6
