REMARK  12 active torsions:
REMARK  status: ('A' for Active; 'I' for Inactive)
REMARK    1  A    between atoms: C2_11  and  C1_3 
REMARK    2  A    between atoms: C2A_4  and  CP1_5 
REMARK    3  A    between atoms: C2_11  and  C2A_4 
REMARK    4  A    between atoms: C2_11  and  O3_12 
REMARK    5  A    between atoms: O3_12  and  P3_13 
REMARK    6  A    between atoms: P3_13  and  C4_16 
REMARK    7  A    between atoms: C4_16  and  N5_18 
REMARK       I    between atoms: N5_18  and  C6_19 
REMARK    8  A    between atoms: C6_19  and  C7_21 
REMARK    9  A    between atoms: C7_21  and  N8_23 
REMARK       I    between atoms: N8_23  and  C9_24 
REMARK   10  A    between atoms: C9_24  and  O10_26 
REMARK   11  A    between atoms: O10_26  and  C11_27 
REMARK   12  A    between atoms: C11_27  and  ACP1_28 
ROOT
ATOM      1  N5  ZAF d          45.796  19.498  37.293  0.00  0.00    -0.343 N 
ATOM      2  C6  ZAF d          45.357  18.241  37.432  0.00  0.00     0.241 C 
ATOM      3  O6A ZAF d          44.341  18.008  38.012  0.00  0.00    -0.271 OA
ATOM      4  H13 ZAF d          46.511  19.669  36.615  0.00  0.00     0.163 HD
ENDROOT
BRANCH   1   5
ATOM      5  C4  ZAF d          45.316  20.607  38.043  0.00  0.00     0.201 C 
ATOM      6  C4A ZAF d          46.585  21.244  38.659  0.00  0.00     0.046 C 
BRANCH   5   7
ATOM      7  P3  ZAF d          44.357  21.613  37.005  0.00  0.00     0.273 P 
ATOM      8  O3A ZAF d          43.195  20.768  36.420  0.00  0.00    -0.645 OA
ATOM      9  O3B ZAF d          43.957  22.825  37.875  0.00  0.00    -0.645 OA
BRANCH   7  10
ATOM     10  O3  ZAF d          45.362  22.152  35.750  0.00  0.00    -0.294 OA
BRANCH  10  11
ATOM     11  C2  ZAF d          44.786  22.860  34.625  0.00  0.00     0.237 C 
BRANCH  11  12
ATOM     12  C1  ZAF d          44.381  21.762  33.787  0.00  0.00     0.204 C 
ATOM     13  O1A ZAF d          43.353  21.981  33.006  0.00  0.00    -0.646 OA
ATOM     14  O1B ZAF d          44.933  20.708  33.791  0.00  0.00    -0.646 OA
ENDBRANCH  11  12
BRANCH  11  15
ATOM     15  C2A ZAF d          45.801  23.720  33.863  0.00  0.00     0.082 C 
BRANCH  15  16
ATOM     16  CP1 ZAF d          45.453  24.324  32.612  0.00  0.00    -0.055 A 
ATOM     17  CP2 ZAF d          44.930  25.572  32.561  0.00  0.00     0.007 A 
ATOM     18  CP3 ZAF d          44.594  26.114  31.370  0.00  0.00     0.001 A 
ATOM     19  CP4 ZAF d          44.827  25.443  30.222  0.00  0.00     0.000 A 
ATOM     20  CP5 ZAF d          45.380  24.210  30.269  0.00  0.00     0.001 A 
ATOM     21  CP6 ZAF d          45.673  23.649  31.463  0.00  0.00     0.007 A 
ENDBRANCH  15  16
ENDBRANCH  11  15
ENDBRANCH  10  11
ENDBRANCH   7  10
ENDBRANCH   5   7
ENDBRANCH   1   5
BRANCH   2  22
ATOM     22  C7  ZAF d          46.197  17.237  36.846  0.00  0.00     0.174 C 
ATOM     23  C7A ZAF d          45.530  16.762  35.539  0.00  0.00     0.042 C 
BRANCH  22  24
ATOM     24  N8  ZAF d          46.515  16.143  37.699  0.00  0.00    -0.324 N 
ATOM     25  C9  ZAF d          47.236  16.168  38.822  0.00  0.00     0.361 C 
ATOM     26  O9A ZAF d          47.366  15.131  39.408  0.00  0.00    -0.238 OA
ATOM     27  H18 ZAF d          46.156  15.251  37.425  0.00  0.00     0.165 HD
BRANCH  25  28
ATOM     28  O10 ZAF d          47.782  17.310  39.216  0.00  0.00    -0.299 OA
BRANCH  28  29
ATOM     29  C11 ZAF d          48.962  17.233  39.976  0.00  0.00     0.219 C 
BRANCH  29  30
ATOM     30  ACP ZAF d          49.775  18.409  40.104  0.00  0.00    -0.034 A 
ATOM     31  ACP ZAF d          50.263  18.996  38.992  0.00  0.00     0.009 A 
ATOM     32  ACP ZAF d          51.030  20.100  39.089  0.00  0.00     0.001 A 
ATOM     33  ACP ZAF d          51.345  20.595  40.301  0.00  0.00     0.000 A 
ATOM     34  ACP ZAF d          50.860  20.008  41.411  0.00  0.00     0.001 A 
ATOM     35  ACP ZAF d          50.088  18.906  41.320  0.00  0.00     0.009 A 
ENDBRANCH  29  30
ENDBRANCH  28  29
ENDBRANCH  25  28
ENDBRANCH  22  24
ENDBRANCH   2  22
TORSDOF 12
