REMARK  9 active torsions:
REMARK  status: ('A' for Active; 'I' for Inactive)
REMARK    1  A    between atoms: O1_1  and  C1_2 
REMARK    2  A    between atoms: C3_5  and  O2_6 
REMARK    3  A    between atoms: C6_10  and  C7_11 
REMARK    4  A    between atoms: C17_21  and  C20_22 
REMARK    5  A    between atoms: C20_22  and  C22_24 
REMARK    6  A    between atoms: C22_24  and  C23_25 
REMARK    7  A    between atoms: C23_25  and  C24_26 
REMARK    8  A    between atoms: C24_26  and  C25_27 
REMARK    9  A    between atoms: C25_27  and  O3_30 
ROOT
ATOM      1  C7  VDZ d          60.087   5.589  -2.985  0.00  0.00     0.003 C 
ATOM      2  C8  VDZ d          60.417   5.432  -4.250  0.00  0.00    -0.075 C 
ATOM      3  C9  VDZ d          61.209   6.465  -5.004  0.00  0.00     0.034 C 
ATOM      4  C11 VDZ d          62.524   5.788  -5.463  0.00  0.00     0.005 C 
ATOM      5  C14 VDZ d          60.079   4.108  -4.903  0.00  0.00     0.023 C 
ATOM      6  C13 VDZ d          61.472   3.461  -5.335  0.00  0.00    -0.033 C 
ATOM      7  C12 VDZ d          62.385   4.401  -6.141  0.00  0.00     0.010 C 
ATOM      8  C18 VDZ d          62.288   3.114  -3.984  0.00  0.00     0.016 C 
ATOM      9  C15 VDZ d          59.198   3.027  -4.321  0.00  0.00     0.010 C 
ATOM     10  C16 VDZ d          59.651   1.753  -5.105  0.00  0.00     0.006 C 
ATOM     11  C17 VDZ d          60.946   2.140  -5.909  0.00  0.00    -0.002 C 
ENDROOT
BRANCH   1  12
ATOM     12  C6  VDZ d          60.373   6.819  -2.186  0.00  0.00     0.003 C 
ATOM     13  C5  VDZ d          60.738   6.773  -0.822  0.00  0.00    -0.074 C 
ATOM     14  C4  VDZ d          60.935   8.127  -0.223  0.00  0.00     0.070 C 
ATOM     15  C10 VDZ d          60.912   5.543   0.105  0.00  0.00     0.070 C 
ATOM     16  C3  VDZ d          60.568   8.207   1.231  0.00  0.00     0.152 C 
ATOM     17  C2  VDZ d          60.774   6.948   2.031  0.00  0.00    -0.032 C 
ATOM     18  C1  VDZ d          60.342   5.624   1.550  0.00  0.00     0.152 C 
ATOM     19  C28 VDZ d          61.437   7.054   3.164  0.00  0.00     0.019 C 
BRANCH  16  20
ATOM     20  O2  VDZ d          59.068   8.230   1.261  0.00  0.00    -0.391 OA
ATOM     21  H6  VDZ d          58.755   8.989   0.784  0.00  0.00     0.210 HD
ENDBRANCH  16  20
BRANCH  18  22
ATOM     22  O1  VDZ d          60.750   4.465   2.321  0.00  0.00    -0.391 OA
ATOM     23  H1  VDZ d          60.411   3.678   1.911  0.00  0.00     0.210 HD
ENDBRANCH  18  22
ENDBRANCH   1  12
BRANCH  11  24
ATOM     24  C20 VDZ d          61.840   0.914  -6.008  0.00  0.00    -0.014 C 
ATOM     25  C21 VDZ d          61.004  -0.108  -6.815  0.00  0.00     0.010 C 
BRANCH  24  26
ATOM     26  C22 VDZ d          63.271   1.147  -6.557  0.00  0.00     0.005 C 
BRANCH  26  27
ATOM     27  C23 VDZ d          64.070  -0.151  -6.592  0.00  0.00     0.003 C 
BRANCH  27  28
ATOM     28  C24 VDZ d          65.574   0.014  -6.804  0.00  0.00     0.037 C 
BRANCH  28  29
ATOM     29  C25 VDZ d          66.378  -1.318  -6.672  0.00  0.00     0.051 C 
ATOM     30  C26 VDZ d          67.692  -1.049  -7.347  0.00  0.00     0.045 C 
ATOM     31  C27 VDZ d          66.537  -1.890  -5.234  0.00  0.00     0.045 C 
BRANCH  29  32
ATOM     32  O3  VDZ d          65.723  -2.313  -7.402  0.00  0.00    -0.391 OA
ATOM     33  H44 VDZ d          64.886  -2.503  -6.995  0.00  0.00     0.210 HD
ENDBRANCH  29  32
ENDBRANCH  28  29
ENDBRANCH  27  28
ENDBRANCH  26  27
ENDBRANCH  24  26
ENDBRANCH  11  24
TORSDOF 9
