REMARK  3 active torsions:
REMARK  status: ('A' for Active; 'I' for Inactive)
REMARK    1  A    between atoms: C5_9  and  C4_7 
REMARK    2  A    between atoms: C6_11  and  C5_9 
REMARK    3  A    between atoms: C8_14  and  C7_13 
ROOT
ATOM      1  N2  W9Z d          18.572  83.854   6.471  0.00  0.00    -0.197 N 
ATOM      2  N3  W9Z d          18.588  83.567   5.194  0.00  0.00    -0.164 NA
ATOM      3  C6  W9Z d          18.836  85.024   7.144  0.00  0.00     0.160 A 
ATOM      4  N6  W9Z d          18.307  83.570   8.615  0.00  0.00    -0.128 NA
ATOM      5  C7  W9Z d          18.256  82.292   4.829  0.00  0.00     0.090 A 
ATOM      6  N10 W9Z d          18.654  84.803   8.410  0.00  0.00    -0.132 NA
ATOM      7  C12 W9Z d          17.919  81.289   5.806  0.00  0.00     0.038 A 
ATOM      8  C13 W9Z d          17.913  81.629   7.192  0.00  0.00     0.057 A 
ATOM      9  C14 W9Z d          18.247  82.966   7.483  0.00  0.00     0.174 A 
ENDROOT
BRANCH   3  10
ATOM     10  C5  W9Z d          19.261  86.365   6.532  0.00  0.00     0.088 C 
ATOM     11  C15 W9Z d          19.352  87.469   7.610  0.00  0.00     0.023 C 
BRANCH  10  12
ATOM     12  C4  W9Z d          20.744  86.182   6.014  0.00  0.00    -0.046 A 
ATOM     13  C3  W9Z d          21.839  86.192   6.963  0.00  0.00     0.010 A 
ATOM     14  C2  W9Z d          23.198  86.062   6.560  0.00  0.00     0.033 A 
ATOM     15  C1  W9Z d          23.542  85.915   5.194  0.00  0.00     0.066 A 
ATOM     16  N1  W9Z d          24.868  85.807   4.870  0.00  0.00    -0.260 NA
ATOM     17  C17 W9Z d          22.470  85.889   4.207  0.00  0.00    -0.007 A 
ATOM     18  C20 W9Z d          25.206  85.665   3.551  0.00  0.00     0.117 A 
ATOM     19  C19 W9Z d          24.238  85.621   2.499  0.00  0.00     0.020 A 
ATOM     20  C18 W9Z d          22.850  85.736   2.836  0.00  0.00     0.015 A 
ATOM     21  C16 W9Z d          21.078  86.024   4.622  0.00  0.00     0.021 A 
ENDBRANCH  10  12
ENDBRANCH   3  10
BRANCH   5  22
ATOM     22  C8  W9Z d          18.228  81.983   3.371  0.00  0.00     0.031 A 
ATOM     23  C9  W9Z d          18.521  82.911   2.277  0.00  0.00     0.154 A 
ATOM     24  N4  W9Z d          18.378  82.290   1.157  0.00  0.00    -0.185 NA
ATOM     25  N5  W9Z d          18.027  81.063   1.395  0.00  0.00    -0.285 N 
ATOM     26  C10 W9Z d          17.911  80.782   2.754  0.00  0.00     0.127 A 
ATOM     27  C11 W9Z d          17.777  80.070   0.351  0.00  0.00     0.179 C 
ENDBRANCH   5  22
TORSDOF 3
