REMARK  3 active torsions:
REMARK  status: ('A' for Active; 'I' for Inactive)
REMARK       I    between atoms: N3_3  and  C14_6 
REMARK    1  A    between atoms: C14_6  and  C15_7 
REMARK    2  A    between atoms: C15_7  and  C16_8 
REMARK    3  A    between atoms: C15_7  and  N19_11 
ROOT
ATOM      1  C15 A3M d          80.420  74.385  97.448  0.00  0.00     0.261 C 
ENDROOT
BRANCH   1   2
ATOM      2  C14 A3M d          81.800  74.363  97.953  0.00  0.00     0.384 C 
ATOM      3  N3  A3M d          82.662  75.516  98.209  0.00  0.00     0.134 N 
ATOM      4  C2  A3M d          82.854  76.381  97.032  0.00  0.00     0.277 C 
ATOM      5  C4  A3M d          84.034  75.234  98.692  0.00  0.00     0.277 C 
ATOM      6  C1  A3M d          84.189  77.213  97.348  0.00  0.00     0.032 C 
ATOM      7  C5  A3M d          84.632  76.660  98.776  0.00  0.00     0.032 C 
ATOM      8  O18 A3M d          82.322  73.115  98.201  0.00  0.00    -0.186 OA
ENDBRANCH   1   2
BRANCH   1   9
ATOM      9  C16 A3M d          79.296  74.230  98.432  0.00  0.00     0.013 C 
ATOM     10  C17 A3M d          79.221  75.282  99.458  0.00  0.00     0.012 C 
ATOM     11  C26 A3M d          77.805  74.286  97.634  0.00  0.00     0.012 C 
ENDBRANCH   1   9
BRANCH   1  12
ATOM     12  N19 A3M d          80.215  73.353  96.379  0.00  0.00    -0.070 N 
ATOM     13  H14 A3M d          80.953  73.425  95.696  0.00  0.00     0.274 HD
ATOM     14  H15 A3M d          79.326  73.506  95.930  0.00  0.00     0.274 HD
ATOM     15  H16 A3M d          80.229  72.434  96.792  0.00  0.00     0.274 HD
ENDBRANCH   1  12
TORSDOF 3
