REMARK  8 active torsions:
REMARK  status: ('A' for Active; 'I' for Inactive)
REMARK    1  A    between atoms: C6_7  and  C2_8 
REMARK    2  A    between atoms: C4_10  and  C23_11 
REMARK    3  A    between atoms: C23_11  and  C25_12 
REMARK    4  A    between atoms: N1_18  and  C18_19 
REMARK    5  A    between atoms: C18_19  and  C19_20 
REMARK    6  A    between atoms: C18_19  and  C20_22 
REMARK    7  A    between atoms: C20_22  and  O4_23 
REMARK    8  A    between atoms: C1_25  and  C7_26 
ROOT
ATOM      1  C2  MOL d         -15.397   0.334 -15.973  0.00  0.00     0.047 C 
ATOM      2  C3  MOL d         -15.880  -1.036 -15.596  0.00  0.00     0.031 C 
ATOM      3  C4  MOL d         -14.753  -2.062 -15.465  0.00  0.00     0.047 C 
ATOM      4  C24 MOL d         -15.394  -3.436 -15.569  0.00  0.00     0.026 C 
ATOM      5  C5  MOL d         -13.738  -1.948 -16.620  0.00  0.00     0.229 C 
ATOM      6  O1  MOL d         -12.871  -2.814 -16.678  0.00  0.00    -0.272 OA
ATOM      7  N1  MOL d         -13.824  -0.913 -17.536  0.00  0.00    -0.335 N 
ATOM      8  C1  MOL d         -14.626   0.329 -17.308  0.00  0.00     0.129 C 
ENDROOT
BRANCH   1   9
ATOM      9  C6  MOL d         -16.478   1.405 -15.854  0.00  0.00    -0.050 A 
ATOM     10  C17 MOL d         -16.200   2.578 -15.127  0.00  0.00     0.031 A 
ATOM     11  C16 MOL d         -17.131   3.598 -15.079  0.00  0.00     0.034 A 
ATOM     12 CL2  MOL d         -16.658   5.013 -14.276  0.00  0.00    -0.084 Cl
ATOM     13  C15 MOL d         -18.354   3.498 -15.715  0.00  0.00     0.024 A 
ATOM     14  C14 MOL d         -18.669   2.329 -16.445  0.00  0.00     0.002 A 
ATOM     15  C13 MOL d         -17.727   1.286 -16.512  0.00  0.00     0.007 A 
ENDBRANCH   1   9
BRANCH   8  16
ATOM     16  C7  MOL d         -13.915   1.646 -17.545  0.00  0.00    -0.035 A 
ATOM     17  C8  MOL d         -12.798   2.051 -16.761  0.00  0.00     0.011 A 
ATOM     18  C9  MOL d         -12.212   3.299 -17.007  0.00  0.00     0.024 A 
ATOM     19  C10 MOL d         -12.723   4.144 -18.013  0.00  0.00     0.034 A 
ATOM     20 CL1  MOL d         -12.014   5.691 -18.235  0.00  0.00    -0.084 Cl
ATOM     21  C11 MOL d         -13.814   3.772 -18.800  0.00  0.00     0.024 A 
ATOM     22  C12 MOL d         -14.412   2.510 -18.564  0.00  0.00     0.011 A 
ENDBRANCH   8  16
BRANCH   3  23
ATOM     23  C23 MOL d         -13.935  -1.946 -14.161  0.00  0.00     0.132 C 
BRANCH  23  24
ATOM     24  C25 MOL d         -14.789  -2.183 -12.914  0.00  0.00     0.173 C 
ATOM     25  O3  MOL d         -15.526  -1.363 -12.431  0.00  0.00    -0.648 OA
ATOM     26  O2  MOL d         -14.635  -3.451 -12.385  0.00  0.00    -0.648 OA
ENDBRANCH  23  24
ENDBRANCH   3  23
BRANCH   7  27
ATOM     27  C18 MOL d         -13.089  -1.035 -18.789  0.00  0.00     0.116 C 
BRANCH  27  28
ATOM     28  C19 MOL d         -11.578  -1.209 -18.488  0.00  0.00     0.023 C 
ATOM     29  C22 MOL d         -10.699  -0.052 -19.012  0.00  0.00     0.007 C 
ENDBRANCH  27  28
BRANCH  27  30
ATOM     30  C20 MOL d         -13.699  -2.123 -19.695  0.00  0.00     0.137 C 
ATOM     31  C21 MOL d         -13.513  -1.757 -21.156  0.00  0.00     0.041 C 
BRANCH  30  32
ATOM     32  O4  MOL d         -15.109  -2.228 -19.542  0.00  0.00    -0.394 OA
ATOM     33  H20 MOL d         -15.439  -2.908 -20.117  0.00  0.00     0.210 HD
ENDBRANCH  30  32
ENDBRANCH  27  30
ENDBRANCH   7  27
TORSDOF 8
