REMARK  8 active torsions:
REMARK  status: ('A' for Active; 'I' for Inactive)
REMARK    1  A    between atoms: C6_6  and  C9_9 
REMARK    2  A    between atoms: C9_9  and  C10_10 
REMARK       I    between atoms: C10_10  and  N12_12 
REMARK    3  A    between atoms: C14_14  and  C24_24 
REMARK    4  A    between atoms: C24_24  and  C26_26 
REMARK    5  A    between atoms: C24_24  and  O25_25 
REMARK    6  A    between atoms: C26_26  and  N27_27 
REMARK    7  A    between atoms: C28_28  and  C33_33 
REMARK       I    between atoms: C33_33  and  N39_39 
REMARK    8  A    between atoms: N39_39  and  C35_35 
ROOT
ATOM      1  C1  PI4 d           6.116   2.819   8.807  0.00  0.00     0.036 C 
ATOM      2  C2  PI4 d           4.243   3.231  10.445  0.00  0.00     0.218 C 
ATOM      3  O3  PI4 d           4.171   4.137  11.275  0.00  0.00    -0.274 OA
ATOM      4  C4  PI4 d           4.789   3.497   9.056  0.00  0.00     0.105 C 
ATOM      5  N5  PI4 d           3.877   1.979  10.705  0.00  0.00    -0.347 N 
ATOM      6  C6  PI4 d           3.311   1.588  12.006  0.00  0.00     0.185 C 
ATOM      7  C7  PI4 d           3.967   0.364  12.635  0.00  0.00     0.241 C 
ATOM      8  O8  PI4 d           3.931  -0.732  12.075  0.00  0.00    -0.271 OA
ATOM      9  N13 PI4 d           4.556   0.559  13.810  0.00  0.00    -0.352 N 
ATOM     10  C14 PI4 d           5.219  -0.533  14.534  0.00  0.00     0.119 C 
ATOM     11  C15 PI4 d           6.735  -0.320  14.535  0.00  0.00     0.066 C 
ATOM     12  C16 PI4 d           7.210   0.441  13.329  0.00  0.00    -0.056 A 
ATOM     13  C17 PI4 d           7.333   1.823  13.377  0.00  0.00     0.010 A 
ATOM     14  C18 PI4 d           7.676   2.546  12.263  0.00  0.00     0.037 A 
ATOM     15  C19 PI4 d           7.464  -0.206  12.120  0.00  0.00     0.010 A 
ATOM     16  C20 PI4 d           7.811   0.516  10.990  0.00  0.00     0.037 A 
ATOM     17  C21 PI4 d           7.915   1.895  11.074  0.00  0.00     0.068 A 
ATOM     18  O22 PI4 d           8.222   2.651   9.971  0.00  0.00    -0.351 OA
ATOM     19  C23 PI4 d           7.242   3.562   9.512  0.00  0.00     0.176 C 
ATOM     20  H5  PI4 d           3.990   1.283   9.996  0.00  0.00     0.163 HD
ATOM     21  H11 PI4 d           4.548   1.474  14.212  0.00  0.00     0.163 HD
ENDROOT
BRANCH  10  22
ATOM     22  C24 PI4 d           4.685  -0.612  15.976  0.00  0.00     0.167 C 
BRANCH  22  23
ATOM     23  C26 PI4 d           5.172  -1.871  16.673  0.00  0.00     0.269 C 
BRANCH  23  24
ATOM     24  N27 PI4 d           4.423  -3.034  16.141  0.00  0.00    -0.056 N 
ATOM     25  C32 PI4 d           3.058  -3.080  16.761  0.00  0.00     0.236 C 
ATOM     26  C31 PI4 d           2.251  -4.280  16.288  0.00  0.00     0.028 C 
ATOM     27  C30 PI4 d           2.992  -5.579  16.563  0.00  0.00     0.004 C 
ATOM     28  C29 PI4 d           4.411  -5.503  16.016  0.00  0.00     0.043 C 
ATOM     29  C28 PI4 d           5.185  -4.266  16.487  0.00  0.00     0.279 C 
ATOM     30  H25 PI4 d           4.335  -2.957  15.140  0.00  0.00     0.281 HD
BRANCH  29  31
ATOM     31  C33 PI4 d           6.568  -4.231  15.839  0.00  0.00     0.249 C 
ATOM     32  N39 PI4 d           7.563  -4.780  16.541  0.00  0.00    -0.351 N 
ATOM     33  H44 PI4 d           7.343  -5.169  17.436  0.00  0.00     0.163 HD
ATOM     34  O34 PI4 d           6.720  -3.711  14.732  0.00  0.00    -0.271 OA
BRANCH  32  35
ATOM     35  C35 PI4 d           8.962  -4.851  16.086  0.00  0.00     0.022 C 
ATOM     36  C38 PI4 d           9.093  -5.866  14.956  0.00  0.00     0.037 C 
ATOM     37  C37 PI4 d           9.850  -5.302  17.242  0.00  0.00     0.037 C 
ATOM     38  C36 PI4 d           9.441  -3.485  15.608  0.00  0.00     0.037 C 
ENDBRANCH  32  35
ENDBRANCH  29  31
ENDBRANCH  23  24
ENDBRANCH  22  23
BRANCH  22  39
ATOM     39  O25 PI4 d           5.095   0.541  16.717  0.00  0.00    -0.392 OA
ATOM     40  H22 PI4 d           4.788   1.325  16.277  0.00  0.00     0.210 HD
ENDBRANCH  22  39
ENDBRANCH  10  22
BRANCH   6  41
ATOM     41  C9  PI4 d           1.814   1.324  11.855  0.00  0.00     0.137 C 
BRANCH  41  42
ATOM     42  C10 PI4 d           1.077   2.502  11.277  0.00  0.00     0.217 C 
ATOM     43  N12 PI4 d           1.098   2.621   9.953  0.00  0.00    -0.370 N 
ATOM     44  H9  PI4 d           0.626   3.384   9.512  0.00  0.00     0.159 HD
ATOM     45  H10 PI4 d           1.586   1.947   9.398  0.00  0.00     0.159 HD
ATOM     46  O11 PI4 d           0.512   3.311  12.006  0.00  0.00    -0.274 OA
ENDBRANCH  41  42
ENDBRANCH   6  41
TORSDOF 8
