1gja_ligand

Created by X-TOOL on Fri Sep 26 17:34:20 2014
 33 34  0  0  0  0  0  0  0  0999 V2000
    8.6090    0.5270   25.3730  C 0  0  0  1  0  3
    9.4400    0.6780   24.2510  C 0  0  0  2  0  3
    9.8880    1.9150   23.8390  C 0  0  0  2  0  3
    9.5050    3.0280   24.5500  C 0  0  0  1  0  3
    8.6900    2.9550   25.6560  C 0  0  0  2  0  3
    8.2410    1.7030   26.0610  C 0  0  0  2  0  3
    8.1680   -0.7360   25.7880  C 0  3  0  1  0  3
    7.5160   -0.8470   26.9160  N 0  0  0  3  0  3
    8.4100   -1.7900   25.0590  N 0  0  0  3  0  3
   10.0240    4.1440   24.0940  N 0  0  0  2  0  3
    9.5920    5.3670   24.3100  C 0  0  0  1  0  3
    8.6100    5.6680   24.9770  O 0  0  0  1  0  1
   10.3990    6.3420   23.6500  C 0  0  0  1  0  3
    9.9210    7.6630   23.6150  C 0  0  0  2  0  3
   10.6100    8.6750   22.9700  C 0  0  0  2  0  3
   11.8340    8.4290   22.3750  C 0  0  0  2  0  3
   12.3510    7.1460   22.3840  C 0  0  0  2  0  3
   11.6740    6.1070   23.0230  C 0  0  0  1  0  3
   12.3300    4.8830   22.9660  O 0  0  0  2  0  2
    9.7375   -0.2027   23.6933  H 0  0  0  1  0  1
   10.5302    2.0085   22.9707  H 0  0  0  1  0  1
    8.4054    3.8500   26.1974  H 0  0  0  1  0  1
    7.5924    1.6283   26.9264  H 0  0  0  1  0  1
    7.1866   -1.7704   27.2318  H 0  0  0  1  0  1
    7.3318   -0.0110   27.4888  H 0  0  0  1  0  1
    8.9241   -1.6954   24.1715  H 0  0  0  1  0  1
    8.0870   -2.7170   25.3707  H 0  0  0  1  0  1
   10.8373    4.0543   23.5191  H 0  0  0  1  0  1
    8.9843    7.8963   24.1081  H 0  0  0  1  0  1
   10.1856    9.6717   22.9307  H 0  0  0  1  0  1
   12.3844    9.2359   21.9049  H 0  0  0  1  0  1
   13.2940    6.9454   21.8883  H 0  0  0  1  0  1
   11.8136    4.2268   23.4191  H 0  0  0  1  0  1
  7  1  1  0  0  2
  1  6  4  0  0  1
  1  2  4  0  0  1
  2  3  4  0  0  1
  3  4  4  0  0  1
  4 10  1  0  0  2
  4  5  4  0  0  1
  6  5  4  0  0  1
 10 11  1  0  0  2
 11 13  1  0  0  2
 11 12  2  0  0  2
 13 18  4  0  0  1
 13 14  4  0  0  1
 14 15  4  0  0  1
 15 16  4  0  0  1
 16 17  4  0  0  1
 18 17  4  0  0  1
 18 19  1  0  0  2
  7  9  2  0  0  2
  7  8  2  0  0  2
  2 20  1  0  0  2
  3 21  1  0  0  2
  5 22  1  0  0  2
  6 23  1  0  0  2
  8 24  1  0  0  2
  8 25  1  0  0  2
  9 26  1  0  0  2
  9 27  1  0  0  2
 10 28  1  0  0  2
 14 29  1  0  0  2
 15 30  1  0  0  2
 16 31  1  0  0  2
 17 32  1  0  0  2
 19 33  1  0  0  2
M  END
> <MOLECULAR_FORMULA>
C14H14N3O2

> <MOLECULAR_WEIGHT>
256.2

> <NUM_HB_ATOMS>
5  

> <NUM_ROTOR>
0  

> <XLOGP2>
1.48 

$$$$
