REMARK  7 active torsions:
REMARK  status: ('A' for Active; 'I' for Inactive)
REMARK    1  A    between atoms: C3_3  and  O3_4 
REMARK    2  A    between atoms: O3_4  and  C1X_29 
REMARK    3  A    between atoms: C12_13  and  O12_14 
REMARK    4  A    between atoms: C14_16  and  O14_17 
REMARK    5  A    between atoms: C17_20  and  C20_23 
REMARK    6  A    between atoms: C3X_31  and  O3X_32 
REMARK    7  A    between atoms: C4X_33  and  O4X_34 
ROOT
ATOM      1  C1  DGX d         -12.860  30.553  29.603  0.00  0.00     0.012 C 
ATOM      2  C2  DGX d         -14.237  30.828  29.005  0.00  0.00     0.033 C 
ATOM      3  C3  DGX d         -15.345  30.519  30.003  0.00  0.00     0.125 C 
ATOM      4  C4  DGX d         -15.296  29.044  30.367  0.00  0.00     0.037 C 
ATOM      5  C5  DGX d         -13.959  28.720  31.024  0.00  0.00    -0.004 C 
ATOM      6  C6  DGX d         -13.913  27.294  31.556  0.00  0.00     0.006 C 
ATOM      7  C7  DGX d         -13.820  26.281  30.426  0.00  0.00     0.008 C 
ATOM      8  C8  DGX d         -12.619  26.595  29.533  0.00  0.00     0.026 C 
ATOM      9  C9  DGX d         -12.613  28.040  29.022  0.00  0.00     0.003 C 
ATOM     10  C10 DGX d         -12.732  29.117  30.140  0.00  0.00    -0.036 C 
ATOM     11  C11 DGX d         -11.379  28.269  28.166  0.00  0.00     0.038 C 
ATOM     12  C12 DGX d         -11.390  27.304  26.999  0.00  0.00     0.130 C 
ATOM     13  C13 DGX d         -11.270  25.824  27.461  0.00  0.00     0.021 C 
ATOM     14  C14 DGX d         -12.462  25.510  28.431  0.00  0.00     0.072 C 
ATOM     15  C15 DGX d         -13.657  25.301  27.480  0.00  0.00     0.040 C 
ATOM     16  C16 DGX d         -13.099  24.823  26.140  0.00  0.00     0.013 C 
ATOM     17  C17 DGX d         -11.576  25.001  26.170  0.00  0.00     0.030 C 
ATOM     18  C18 DGX d          -9.890  25.586  28.116  0.00  0.00     0.022 C 
ATOM     19  C19 DGX d         -11.434  29.217  30.961  0.00  0.00     0.016 C 
ENDROOT
BRANCH   3  20
ATOM     20  O3  DGX d         -15.166  31.282  31.208  0.00  0.00    -0.356 OA
BRANCH  20  21
ATOM     21  C1X DGX d         -16.271  32.060  31.678  0.00  0.00     0.263 C 
ATOM     22  O5X DGX d         -17.428  31.240  31.613  0.00  0.00    -0.354 OA
ATOM     23  C5X DGX d         -18.640  31.837  32.027  0.00  0.00     0.151 C 
ATOM     24  C4X DGX d         -18.904  33.142  31.257  0.00  0.00     0.175 C 
ATOM     25  C6X DGX d         -19.671  30.779  31.682  0.00  0.00     0.042 C 
ATOM     26  C3X DGX d         -17.685  34.070  31.207  0.00  0.00     0.154 C 
ATOM     27  C2X DGX d         -16.478  33.260  30.752  0.00  0.00     0.095 C 
BRANCH  24  28
ATOM     28  O4X DGX d         -19.987  33.844  31.887  0.00  0.00    -0.390 OA
ATOM     29  H40 DGX d         -19.753  34.043  32.786  0.00  0.00     0.210 HD
ENDBRANCH  24  28
BRANCH  26  30
ATOM     30  O3X DGX d         -17.459  34.703  32.486  0.00  0.00    -0.393 OA
ATOM     31  H38 DGX d         -18.222  35.216  32.723  0.00  0.00     0.210 HD
ENDBRANCH  26  30
ENDBRANCH  20  21
ENDBRANCH   3  20
BRANCH  14  32
ATOM     32  O14 DGX d         -12.283  24.232  29.097  0.00  0.00    -0.389 OA
ATOM     33  H19 DGX d         -13.019  24.072  29.675  0.00  0.00     0.210 HD
ENDBRANCH  14  32
BRANCH  12  34
ATOM     34  O12 DGX d         -10.385  27.641  26.038  0.00  0.00    -0.395 OA
ATOM     35  H18 DGX d         -10.488  28.549  25.779  0.00  0.00     0.210 HD
ENDBRANCH  12  34
BRANCH  17  36
ATOM     36  C20 DGX d         -10.752  23.771  25.944  0.00  0.00    -0.045 A 
ATOM     37  C22 DGX d          -9.505  23.688  25.460  0.00  0.00     0.087 A 
ATOM     38  C23 DGX d          -9.066  22.307  25.521  0.00  0.00     0.283 A 
ATOM     39  O21 DGX d         -10.026  21.567  26.076  0.00  0.00    -0.314 OA
ATOM     40  O23 DGX d          -7.994  21.800  25.215  0.00  0.00    -0.260 OA
ATOM     41  C21 DGX d         -11.179  22.405  26.318  0.00  0.00     0.213 A 
ENDBRANCH  17  36
TORSDOF 7
