REMARK  3 active torsions:
REMARK  status: ('A' for Active; 'I' for Inactive)
REMARK    1  A    between atoms: C1_1  and  O1_2 
REMARK    2  A    between atoms: C3_4  and  O3_5 
REMARK    3  A    between atoms: C17_15  and  O17_16 
ROOT
ATOM      1  C1  EMO d          17.275 -55.252 -46.735  0.00  0.00     0.083 A 
ATOM      2  C2  EMO d          17.117 -56.600 -46.477  0.00  0.00     0.074 A 
ATOM      3  C3  EMO d          16.819 -57.017 -45.186  0.00  0.00     0.069 A 
ATOM      4  C4  EMO d          16.710 -56.091 -44.153  0.00  0.00     0.053 A 
ATOM      5  C5  EMO d          16.865 -54.723 -44.429  0.00  0.00     0.035 A 
ATOM      6  C6  EMO d          16.732 -53.768 -43.408  0.00  0.00     0.194 A 
ATOM      7  O6  EMO d          16.461 -54.146 -42.252  0.00  0.00    -0.287 OA
ATOM      8  C7  EMO d          16.894 -52.397 -43.701  0.00  0.00     0.032 A 
ATOM      9  C8  EMO d          16.769 -51.431 -42.679  0.00  0.00     0.023 A 
ATOM     10  C9  EMO d          16.929 -50.066 -42.933  0.00  0.00    -0.058 A 
ATOM     11  C10 EMO d          16.787 -49.001 -41.805  0.00  0.00     0.048 C 
ATOM     12  C16 EMO d          17.227 -49.649 -44.221  0.00  0.00     0.044 A 
ATOM     13  C17 EMO d          17.344 -50.595 -45.251  0.00  0.00     0.081 A 
ATOM     14  C18 EMO d          17.194 -51.975 -45.010  0.00  0.00     0.062 A 
ATOM     15  C19 EMO d          17.312 -52.940 -46.035  0.00  0.00     0.199 A 
ATOM     16  O19 EMO d          17.561 -52.618 -47.204  0.00  0.00    -0.286 OA
ATOM     17  C20 EMO d          17.149 -54.302 -45.728  0.00  0.00     0.062 A 
ENDROOT
BRANCH   1  18
ATOM     18  O1  EMO d          17.581 -54.817 -47.968  0.00  0.00    -0.360 OA
ATOM     19  H1  EMO d          17.650 -53.870 -47.960  0.00  0.00     0.217 HD
ENDBRANCH   1  18
BRANCH   3  20
ATOM     20  O3  EMO d          16.652 -58.328 -44.940  0.00  0.00    -0.361 OA
ATOM     21  H3  EMO d          16.455 -58.454 -44.019  0.00  0.00     0.217 HD
ENDBRANCH   3  20
BRANCH  13  22
ATOM     22  O17 EMO d          17.624 -50.139 -46.493  0.00  0.00    -0.360 OA
ATOM     23  H10 EMO d          17.677 -50.873 -47.094  0.00  0.00     0.217 HD
ENDBRANCH  13  22
TORSDOF 3
