REMARK  6 active torsions:
REMARK  status: ('A' for Active; 'I' for Inactive)
REMARK    1  A    between atoms: C3_3  and  C6_5 
REMARK    2  A    between atoms: C4_4  and  C7_6 
REMARK    3  A    between atoms: C14_9  and  O33_19 
REMARK    4  A    between atoms: C21_12  and  O30_18 
REMARK    5  A    between atoms: C23_14  and  O29_17 
REMARK    6  A    between atoms: O33_19  and  C34_21 
ROOT
ATOM      1  N1  BZ8 d          29.955   9.231  28.161  0.00  0.00    -0.110 NA
ATOM      2  N2  BZ8 d          29.894  10.036  27.179  0.00  0.00    -0.141 NA
ATOM      3  C3  BZ8 d          30.679   9.667  26.128  0.00  0.00     0.112 A 
ATOM      4  C4  BZ8 d          31.401   8.484  26.329  0.00  0.00     0.067 A 
ATOM      5  S1  BZ8 d          30.924   7.977  27.953  0.00  0.00     0.037 SA
ENDROOT
BRANCH   3   6
ATOM      6  C6  BZ8 d          30.776  10.441  24.934  0.00  0.00     0.031 A 
ATOM      7  C21 BZ8 d          29.668  10.821  24.235  0.00  0.00     0.081 A 
ATOM      8  C22 BZ8 d          29.663  11.516  23.010  0.00  0.00     0.075 A 
ATOM      9  C23 BZ8 d          30.903  11.956  22.533  0.00  0.00     0.090 A 
ATOM     10  C24 BZ8 d          31.996  11.633  23.248  0.00  0.00     0.068 A 
ATOM     11  C25 BZ8 d          32.014  10.903  24.428  0.00  0.00     0.043 A 
ATOM     12 CL   BZ8 d          33.576  12.256  22.725  0.00  0.00    -0.081 Cl
BRANCH   7  13
ATOM     13  O30 BZ8 d          28.416  10.418  24.680  0.00  0.00    -0.360 OA
ATOM     14  H8  BZ8 d          28.508   9.959  25.507  0.00  0.00     0.217 HD
ENDBRANCH   7  13
BRANCH   9  15
ATOM     15  O29 BZ8 d          31.013  12.568  21.318  0.00  0.00    -0.359 OA
ATOM     16  H7  BZ8 d          30.146  12.719  20.961  0.00  0.00     0.217 HD
ENDBRANCH   9  15
ENDBRANCH   3   6
BRANCH   4  17
ATOM     17  C7  BZ8 d          32.282   7.763  25.510  0.00  0.00    -0.015 C 
ATOM     18  C16 BZ8 d          33.561   7.394  25.919  0.00  0.00     0.015 C 
ATOM     19  C15 BZ8 d          34.423   6.717  24.999  0.00  0.00     0.037 C 
ATOM     20  C14 BZ8 d          33.966   6.430  23.696  0.00  0.00     0.068 C 
ATOM     21  C13 BZ8 d          32.706   6.748  23.368  0.00  0.00     0.037 C 
ATOM     22  C12 BZ8 d          31.884   7.488  24.201  0.00  0.00     0.015 C 
BRANCH  20  23
ATOM     23  O33 BZ8 d          34.924   5.737  22.991  0.00  0.00    -0.352 OA
BRANCH  23  24
ATOM     24  C34 BZ8 d          34.547   5.384  21.632  0.00  0.00     0.171 C 
ATOM     25  CAA BZ8 d          35.726   4.600  21.086  0.00  0.00     0.034 C 
ENDBRANCH  23  24
ENDBRANCH  20  23
ENDBRANCH   4  17
TORSDOF 6
