REMARK  11 active torsions:
REMARK  status: ('A' for Active; 'I' for Inactive)
REMARK    1  A    between atoms: C6_3  and  N6_37 
REMARK    2  A    between atoms: CAK_16  and  CBH_15 
REMARK    3  A    between atoms: CAI_17  and  CAK_16 
REMARK    4  A    between atoms: CAH_18  and  CAI_17 
REMARK    5  A    between atoms: CAJ_19  and  CAH_18 
REMARK    6  A    between atoms: CAZ_20  and  CAJ_19 
REMARK       I    between atoms: NAV_22  and  CAZ_20 
REMARK    7  A    between atoms: SBK_23  and  NAV_22 
REMARK    8  A    between atoms: OAW_26  and  SBK_23 
REMARK    9  A    between atoms: CAN_27  and  OAW_26 
REMARK   10  A    between atoms: CBE_28  and  CAN_27 
REMARK   11  A    between atoms: CBG_33  and  N9_34 
ROOT
ATOM      1  SBK MOL d          -4.720  -5.643   6.569  0.00  0.00     0.364 S 
ATOM      2  OAD MOL d          -6.024  -5.833   6.002  0.00  0.00    -0.175 OA
ATOM      3  OAE MOL d          -3.749  -5.616   5.516  0.00  0.00    -0.175 OA
ENDROOT
BRANCH   1   4
ATOM      4  NAV MOL d          -4.401  -6.846   7.585  0.00  0.00    -0.231 N 
ATOM      5  CAZ MOL d          -5.225  -7.164   8.570  0.00  0.00     0.232 C 
ATOM      6  OAB MOL d          -6.276  -6.599   8.817  0.00  0.00    -0.273 OA
ATOM      7  H17 MOL d          -3.556  -7.369   7.470  0.00  0.00     0.183 HD
BRANCH   5   8
ATOM      8  CAJ MOL d          -4.783  -8.338   9.416  0.00  0.00     0.104 C 
BRANCH   8   9
ATOM      9  CAH MOL d          -4.580  -7.899  10.867  0.00  0.00     0.009 C 
BRANCH   9  10
ATOM     10  CAI MOL d          -4.256  -9.098  11.761  0.00  0.00     0.002 C 
BRANCH  10  11
ATOM     11  CAK MOL d          -4.019  -8.683  13.217  0.00  0.00     0.017 C 
BRANCH  11  12
ATOM     12  CBH MOL d          -3.938  -9.884  14.158  0.00  0.00     0.072 C 
ATOM     13  CBI MOL d          -2.703 -10.773  13.952  0.00  0.00     0.123 A 
ATOM     14  NAU MOL d          -1.472 -10.023  13.685  0.00  0.00    -0.335 N 
ATOM     15  CBF MOL d          -2.382 -11.496  15.262  0.00  0.00     0.119 A 
ATOM     16  CBA MOL d          -0.565 -10.234  14.639  0.00  0.00     0.316 A 
ATOM     17  H3  MOL d          -1.331  -9.431  12.892  0.00  0.00     0.164 HD
ATOM     18  OAC MOL d           0.518  -9.664  14.696  0.00  0.00    -0.247 OA
ATOM     19  NAT MOL d          -1.011 -11.123  15.540  0.00  0.00    -0.336 N 
ATOM     20  H4  MOL d          -0.469 -11.480  16.301  0.00  0.00     0.164 HD
ATOM     21  CAO MOL d          -3.281 -10.989  16.391  0.00  0.00     0.101 C 
ATOM     22  SAY MOL d          -3.861  -9.402  15.864  0.00  0.00    -0.160 SA
ENDBRANCH  11  12
ENDBRANCH  10  11
ENDBRANCH   9  10
ENDBRANCH   8   9
ENDBRANCH   5   8
ENDBRANCH   1   4
BRANCH   1  23
ATOM     23  OAW MOL d          -4.833  -4.338   7.325  0.00  0.00    -0.257 OA
BRANCH  23  24
ATOM     24  CAN MOL d          -3.733  -3.719   7.966  0.00  0.00     0.225 C 
BRANCH  24  25
ATOM     25  CBE MOL d          -4.232  -2.289   8.101  0.00  0.00     0.175 C 
ATOM     26  OAX MOL d          -4.739  -2.114   9.424  0.00  0.00    -0.355 OA
ATOM     27  CBG MOL d          -5.096  -0.785   9.855  0.00  0.00     0.256 C 
ATOM     28  CAM MOL d          -4.001   0.226   9.528  0.00  0.00     0.286 C 
ATOM     29  NAS MOL d          -3.507  -0.010   8.187  0.00  0.00    -0.069 N 
ATOM     30  CAL MOL d          -3.084  -1.340   7.814  0.00  0.00     0.266 C 
ATOM     31  H23 MOL d          -4.244   0.254   7.551  0.00  0.00     0.277 HD
ATOM     32  H24 MOL d          -2.715   0.599   8.054  0.00  0.00     0.277 HD
BRANCH  27  33
ATOM     33  N9  MOL d          -5.257  -1.011  11.302  0.00  0.00    -0.295 N 
ATOM     34  C4  MOL d          -6.409  -1.241  11.934  0.00  0.00     0.167 A 
ATOM     35  C5  MOL d          -6.106  -1.476  13.270  0.00  0.00     0.149 A 
ATOM     36  N3  MOL d          -7.699  -1.272  11.514  0.00  0.00    -0.222 NA
ATOM     37  C6  MOL d          -7.136  -1.733  14.163  0.00  0.00     0.155 A 
ATOM     38  N7  MOL d          -4.759  -1.383  13.387  0.00  0.00    -0.236 NA
ATOM     39  N1  MOL d          -8.397  -1.755  13.695  0.00  0.00    -0.222 NA
ATOM     40  C2  MOL d          -8.668  -1.532  12.401  0.00  0.00     0.237 A 
ATOM     41  C8  MOL d          -4.249  -1.120  12.175  0.00  0.00     0.214 A 
BRANCH  37  42
ATOM     42  N6  MOL d          -6.905  -1.989  15.483  0.00  0.00    -0.382 N 
ATOM     43  H29 MOL d          -7.695  -2.176  16.117  0.00  0.00     0.157 HD
ATOM     44  H30 MOL d          -5.941  -1.996  15.845  0.00  0.00     0.157 HD
ENDBRANCH  37  42
ENDBRANCH  27  33
ENDBRANCH  24  25
ENDBRANCH  23  24
ENDBRANCH   1  23
TORSDOF 11
