REMARK  9 active torsions:
REMARK  status: ('A' for Active; 'I' for Inactive)
REMARK    1  A    between atoms: C9_13  and  C6_9 
REMARK    2  A    between atoms: N10_14  and  C9_13 
REMARK    3  A    between atoms: C14_19  and  N10_14 
REMARK    4  A    between atoms: C11_16  and  C_22 
REMARK    5  A    between atoms: N_24  and  CA_25 
REMARK    6  A    between atoms: CA_25  and  CT_26 
REMARK    7  A    between atoms: CA_25  and  CB_29 
REMARK    8  A    between atoms: CB_29  and  CG_30 
REMARK    9  A    between atoms: CG_30  and  CD_31 
ROOT
ATOM      1  C11 MTX d          18.012 -37.145   3.930  0.00  0.00     0.018 A 
ATOM      2  C12 MTX d          17.195 -38.277   3.746  0.00  0.00     0.018 A 
ATOM      3  C13 MTX d          15.836 -38.116   3.443  0.00  0.00     0.030 A 
ATOM      4  C14 MTX d          15.308 -36.835   3.335  0.00  0.00     0.030 A 
ATOM      5  C15 MTX d          16.125 -35.722   3.524  0.00  0.00     0.030 A 
ATOM      6  C16 MTX d          17.475 -35.860   3.823  0.00  0.00     0.018 A 
ENDROOT
BRANCH   4   7
ATOM      7  N10 MTX d          13.948 -36.646   3.024  0.00  0.00    -0.379 N 
ATOM      8  CM  MTX d          13.331 -35.316   3.207  0.00  0.00     0.150 C 
BRANCH   7   9
ATOM      9  C9  MTX d          13.292 -37.598   2.129  0.00  0.00     0.183 C 
BRANCH   9  10
ATOM     10  C6  MTX d          13.514 -37.160   0.698  0.00  0.00     0.070 A 
ATOM     11  N5  MTX d          12.490 -36.545  -0.035  0.00  0.00    -0.242 NA
ATOM     12  C4A MTX d          12.739 -36.145  -1.342  0.00  0.00     0.151 A 
ATOM     13  C4  MTX d          11.739 -35.541  -2.096  0.00  0.00     0.173 A 
ATOM     14  C8A MTX d          13.998 -36.350  -1.905  0.00  0.00     0.201 A 
ATOM     15  N3  MTX d          11.987 -35.153  -3.397  0.00  0.00    -0.043 NA
ATOM     16  NA4 MTX d          10.532 -35.364  -1.567  0.00  0.00    -0.381 N 
ATOM     17  C2  MTX d          13.235 -35.370  -3.946  0.00  0.00     0.724 A 
ATOM     18  N1  MTX d          14.228 -35.979  -3.210  0.00  0.00    -0.041 NA
ATOM     19  NA2 MTX d          13.487 -35.006  -5.194  0.00  0.00    -0.231 N 
ATOM     20  H1  MTX d          14.419 -35.170  -5.600  0.00  0.00     0.174 HD
ATOM     21  H2  MTX d          12.751 -34.559  -5.759  0.00  0.00     0.174 HD
ATOM     22  H3  MTX d          10.348 -35.654  -0.596  0.00  0.00     0.157 HD
ATOM     23  H4  MTX d           9.781 -34.937  -2.128  0.00  0.00     0.157 HD
ATOM     24  N8  MTX d          15.020 -36.950  -1.166  0.00  0.00    -0.237 NA
ATOM     25  C7  MTX d          14.777 -37.344   0.134  0.00  0.00     0.148 A 
ENDBRANCH   9  10
ENDBRANCH   7   9
ENDBRANCH   4   7
BRANCH   1  26
ATOM     26  C   MTX d          19.472 -37.291   4.286  0.00  0.00     0.185 C 
ATOM     27  O   MTX d          19.868 -38.475   4.911  0.00  0.00    -0.172 OA
ATOM     28  N   MTX d          20.336 -36.308   4.036  0.00  0.00    -0.353 N 
ATOM     29  H15 MTX d          20.020 -35.513   3.518  0.00  0.00     0.162 HD
BRANCH  28  30
ATOM     30  CA  MTX d          21.716 -36.342   4.484  0.00  0.00     0.185 C 
BRANCH  30  31
ATOM     31  CT  MTX d          22.188 -34.968   4.892  0.00  0.00     0.196 C 
ATOM     32  O1  MTX d          23.355 -34.569   4.625  0.00  0.00    -0.646 OA
ATOM     33  O2  MTX d          21.421 -34.194   5.494  0.00  0.00    -0.646 OA
ENDBRANCH  30  31
BRANCH  30  34
ATOM     34  CB  MTX d          22.582 -36.794   3.313  0.00  0.00     0.046 C 
BRANCH  34  35
ATOM     35  CG  MTX d          22.722 -38.297   3.301  0.00  0.00     0.116 C 
BRANCH  35  36
ATOM     36  CD  MTX d          23.706 -38.670   2.223  0.00  0.00     0.172 C 
ATOM     37  OE1 MTX d          24.933 -38.490   2.406  0.00  0.00    -0.648 OA
ATOM     38  OE2 MTX d          23.302 -39.154   1.148  0.00  0.00    -0.648 OA
ENDBRANCH  35  36
ENDBRANCH  34  35
ENDBRANCH  30  34
ENDBRANCH  28  30
ENDBRANCH   1  26
TORSDOF 9
