REMARK  3 active torsions:
REMARK  status: ('A' for Active; 'I' for Inactive)
REMARK    1  A    between atoms: C4_1  and  C27_5 
REMARK    2  A    between atoms: C3_2  and  C2_10 
REMARK    3  A    between atoms: C7_3  and  C8_6 
REMARK       I    between atoms: C8_6  and  N10_12 
ROOT
ATOM      1  C4  L46 d          12.682  38.572  77.476  0.00  0.00     0.040 A 
ATOM      2  C3  L46 d          11.703  37.691  77.009  0.00  0.00    -0.010 A 
ATOM      3  C7  L46 d          10.463  38.128  77.722  0.00  0.00     0.108 A 
ATOM      4  C5  L46 d          12.039  39.491  78.452  0.00  0.00     0.020 A 
ATOM      5  C26 L46 d          12.680  40.610  79.229  0.00  0.00     0.069 C 
ATOM      6  N6  L46 d          10.739  39.163  78.534  0.00  0.00    -0.354 N 
ATOM      7  H   L46 d          10.050  39.638  79.135  0.00  0.00     0.166 HD
ENDROOT
BRANCH   3   8
ATOM      8  C8  L46 d           9.128  37.474  77.561  0.00  0.00     0.268 C 
ATOM      9  N10 L46 d           8.333  37.469  78.642  0.00  0.00    -0.360 N 
ATOM     10  C6  L46 d           6.975  36.920  78.633  0.00  0.00     0.149 C 
ATOM     11  H   L46 d           8.684  37.858  79.494  0.00  0.00     0.162 HD
ATOM     12  O9  L46 d           8.784  36.981  76.491  0.00  0.00    -0.266 OA
ENDBRANCH   3   8
BRANCH   2  13
ATOM     13  C2  L46 d          11.837  36.582  75.993  0.00  0.00     0.037 C 
ATOM     14  C1  L46 d          12.078  37.181  74.618  0.00  0.00     0.010 C 
ENDBRANCH   2  13
BRANCH   1  15
ATOM     15  C27 L46 d          14.144  38.621  77.133  0.00  0.00     0.158 C 
ATOM     16  C29 L46 d          14.829  37.354  76.694  0.00  0.00     0.097 C 
ATOM     17  O28 L46 d          14.785  39.648  77.254  0.00  0.00    -0.293 OA
ENDBRANCH   1  15
TORSDOF 3
