REMARK  13 active torsions:
REMARK  status: ('A' for Active; 'I' for Inactive)
REMARK    1  A    between atoms: C1_1  and  O1_7 
REMARK    2  A    between atoms: C2_2  and  O2_8 
REMARK    3  A    between atoms: C3_3  and  O3_9 
REMARK    4  A    between atoms: C4_4  and  O4_10 
REMARK    5  A    between atoms: C5_5  and  C6_6 
REMARK    6  A    between atoms: C6_6  and  O6_12 
REMARK    7  A    between atoms: O1_7  and  C7_13 
REMARK    8  A    between atoms: C8_14  and  O7_19 
REMARK    9  A    between atoms: C9_15  and  O8_20 
REMARK   10  A    between atoms: C10_16  and  O9_21 
REMARK   11  A    between atoms: C11_17  and  C12_18 
REMARK   12  A    between atoms: C12_18  and  O11_23 
REMARK   13  A    between atoms: O11_23  and  P1_24 
ROOT
ATOM      1  C7  T6P d          27.992 -10.549  26.082  0.00  0.00     0.294 C 
ATOM      2  C8  T6P d          28.395 -11.129  24.722  0.00  0.00     0.204 C 
ATOM      3  C9  T6P d          29.867 -11.545  24.687  0.00  0.00     0.183 C 
ATOM      4  C10 T6P d          30.742 -10.403  25.181  0.00  0.00     0.180 C 
ATOM      5  C11 T6P d          30.274 -10.004  26.580  0.00  0.00     0.180 C 
ATOM      6  O10 T6P d          28.906  -9.548  26.513  0.00  0.00    -0.348 OA
ENDROOT
BRANCH   1   7
ATOM      7  O1  T6P d          27.946 -11.585  27.047  0.00  0.00    -0.326 OA
BRANCH   7   8
ATOM      8  C1  T6P d          27.214 -11.277  28.226  0.00  0.00     0.294 C 
ATOM      9  C2  T6P d          27.331 -12.448  29.202  0.00  0.00     0.204 C 
ATOM     10  C3  T6P d          26.586 -13.674  28.672  0.00  0.00     0.183 C 
ATOM     11  C4  T6P d          25.165 -13.312  28.273  0.00  0.00     0.180 C 
ATOM     12  C5  T6P d          25.176 -12.131  27.308  0.00  0.00     0.179 C 
ATOM     13  O5  T6P d          25.848 -11.020  27.934  0.00  0.00    -0.348 OA
BRANCH   9  14
ATOM     14  O2  T6P d          28.700 -12.759  29.432  0.00  0.00    -0.388 OA
ATOM     15  H8  T6P d          29.102 -13.037  28.617  0.00  0.00     0.210 HD
ENDBRANCH   9  14
BRANCH  10  16
ATOM     16  O3  T6P d          26.513 -14.679  29.674  0.00  0.00    -0.390 OA
ATOM     17  H9  T6P d          27.392 -14.923  29.941  0.00  0.00     0.210 HD
ENDBRANCH  10  16
BRANCH  11  18
ATOM     18  O4  T6P d          24.558 -14.418  27.640  0.00  0.00    -0.390 OA
ATOM     19  H10 T6P d          23.667 -14.193  27.398  0.00  0.00     0.210 HD
ENDBRANCH  11  18
BRANCH  12  20
ATOM     20  C6  T6P d          23.787 -11.671  26.933  0.00  0.00     0.198 C 
BRANCH  20  21
ATOM     21  O6  T6P d          23.830 -10.554  26.060  0.00  0.00    -0.398 OA
ATOM     22  H11 T6P d          24.281  -9.836  26.488  0.00  0.00     0.209 HD
ENDBRANCH  20  21
ENDBRANCH  12  20
ENDBRANCH   7   8
ENDBRANCH   1   7
BRANCH   2  23
ATOM     23  O7  T6P d          27.585 -12.241  24.368  0.00  0.00    -0.388 OA
ATOM     24  H19 T6P d          27.731 -12.947  24.986  0.00  0.00     0.210 HD
ENDBRANCH   2  23
BRANCH   3  25
ATOM     25  O8  T6P d          30.261 -11.856  23.355  0.00  0.00    -0.390 OA
ATOM     26  H20 T6P d          30.144 -11.091  22.805  0.00  0.00     0.210 HD
ENDBRANCH   3  25
BRANCH   5  27
ATOM     27  C12 T6P d          31.092  -8.900  27.198  0.00  0.00     0.217 C 
BRANCH  27  28
ATOM     28  O11 T6P d          31.193  -7.838  26.241  0.00  0.00    -0.280 OA
BRANCH  28  29
ATOM     29  P1  T6P d          31.052  -6.318  26.721  0.00  0.00     0.422 P 
ATOM     30  O12 T6P d          32.151  -6.084  27.727  0.00  0.00    -0.617 OA
ATOM     31  O13 T6P d          29.701  -6.191  27.313  0.00  0.00    -0.617 OA
ATOM     32  O14 T6P d          31.305  -5.438  25.495  0.00  0.00    -0.617 OA
ENDBRANCH  28  29
ENDBRANCH  27  28
ENDBRANCH   5  27
BRANCH   4  33
ATOM     33  O9  T6P d          32.111 -10.799  25.152  0.00  0.00    -0.390 OA
ATOM     34  H21 T6P d          32.352 -11.036  24.264  0.00  0.00     0.210 HD
ENDBRANCH   4  33
TORSDOF 13
