REMARK  8 active torsions:
REMARK  status: ('A' for Active; 'I' for Inactive)
REMARK    1  A    between atoms: C12_12  and  C7_7 
REMARK    2  A    between atoms: C8_8  and  C13_13 
REMARK    3  A    between atoms: C17_17  and  C9_9 
REMARK       I    between atoms: N23_23  and  C12_12 
REMARK    4  A    between atoms: C21_21  and  C17_17 
REMARK    5  A    between atoms: C18_18  and  C20_20 
REMARK    6  A    between atoms: C21_21  and  C18_18 
REMARK    7  A    between atoms: C19_19  and  C21_21 
REMARK    8  A    between atoms: C19_19  and  N23_23 
ROOT
ATOM      1  C21 MOL d          -9.132  44.928  -0.320  0.00  0.00     0.008 C 
ENDROOT
BRANCH   1   2
ATOM      2  C17 MOL d         -10.480  44.330   0.035  0.00  0.00     0.046 C 
BRANCH   2   3
ATOM      3  C9  MOL d         -11.530  44.472  -1.028  0.00  0.00    -0.038 A 
ATOM      4  C3  MOL d         -11.202  44.044  -2.305  0.00  0.00     0.011 A 
ATOM      5  C4  MOL d         -12.090  44.110  -3.354  0.00  0.00     0.040 A 
ATOM      6  C10 MOL d         -13.333  44.614  -3.088  0.00  0.00     0.106 A 
ATOM      7  C11 MOL d         -13.670  45.034  -1.838  0.00  0.00     0.122 A 
ATOM      8  O27 MOL d         -14.349  44.744  -3.994  0.00  0.00    -0.323 OA
ATOM      9  C8  MOL d         -12.798  44.981  -0.773  0.00  0.00     0.083 A 
ATOM     10  O28 MOL d         -14.958  45.489  -1.793  0.00  0.00    -0.322 OA
ATOM     11  C14 MOL d         -15.414  44.973  -3.056  0.00  0.00     0.352 C 
BRANCH   9  12
ATOM     12  C13 MOL d         -13.274  45.461   0.558  0.00  0.00     0.212 C 
ATOM     13  O24 MOL d         -14.388  45.033   0.968  0.00  0.00    -0.644 OA
ATOM     14  O26 MOL d         -12.548  46.278   1.181  0.00  0.00    -0.644 OA
ENDBRANCH   9  12
ENDBRANCH   2   3
ENDBRANCH   1   2
BRANCH   1  15
ATOM     15  C18 MOL d          -8.123  44.653   0.779  0.00  0.00     0.010 C 
BRANCH  15  16
ATOM     16  C20 MOL d          -7.872  43.178   1.051  0.00  0.00    -0.022 C 
ATOM     17  C15 MOL d          -7.447  42.430  -0.192  0.00  0.00     0.009 C 
ATOM     18  C16 MOL d          -6.762  43.070   2.072  0.00  0.00     0.009 C 
ENDBRANCH  15  16
ENDBRANCH   1  15
BRANCH   1  19
ATOM     19  C19 MOL d          -9.263  46.426  -0.502  0.00  0.00     0.128 C 
BRANCH  19  20
ATOM     20  N23 MOL d          -9.850  47.061   0.657  0.00  0.00    -0.356 N 
ATOM     21  C12 MOL d          -9.099  47.924   1.418  0.00  0.00     0.253 C 
ATOM     22  O25 MOL d          -7.983  48.338   1.153  0.00  0.00    -0.268 OA
ATOM     23  H   MOL d         -10.800  46.872   0.904  0.00  0.00     0.162 HD
BRANCH  21  24
ATOM     24  C7  MOL d          -9.739  48.356   2.663  0.00  0.00     0.049 A 
ATOM     25  C2  MOL d          -9.276  47.870   3.861  0.00  0.00     0.020 A 
ATOM     26  C1  MOL d          -9.898  48.300   5.011  0.00  0.00     0.020 A 
ATOM     27  C5  MOL d         -10.943  49.189   4.901  0.00  0.00     0.116 A 
ATOM     28  N22 MOL d         -11.408  49.678   3.748  0.00  0.00    -0.272 NA
ATOM     29  C6  MOL d         -10.788  49.244   2.645  0.00  0.00     0.133 A 
ENDBRANCH  21  24
ENDBRANCH  19  20
ENDBRANCH   1  19
TORSDOF 8
