REMARK  3 active torsions:
REMARK  status: ('A' for Active; 'I' for Inactive)
REMARK    1  A    between atoms: C1_1  and  S1_12 
REMARK    2  A    between atoms: N4_8  and  C2_2 
REMARK       I    between atoms: C3_3  and  N4_8 
REMARK    3  A    between atoms: S1_12  and  N1_5 
ROOT
ATOM      1  C1  AZM d          -2.546  -2.796  19.609  0.00  0.00     0.237 A 
ATOM      2  C2  AZM d          -4.519  -2.424  20.815  0.00  0.00     0.197 A 
ATOM      3  N2  AZM d          -3.763  -3.340  21.367  0.00  0.00    -0.122 NA
ATOM      4  N3  AZM d          -2.611  -3.552  20.656  0.00  0.00    -0.126 NA
ATOM      5  S2  AZM d          -3.880  -1.733  19.357  0.00  0.00    -0.015 SA
ENDROOT
BRANCH   1   6
ATOM      6  S1  AZM d          -1.159  -2.848  18.496  0.00  0.00     0.282 S 
ATOM      7  O1  AZM d          -1.047  -4.219  18.103  0.00  0.00    -0.199 OA
ATOM      8  O2  AZM d          -1.403  -1.826  17.528  0.00  0.00    -0.199 OA
BRANCH   6   9
ATOM      9  N1  AZM d           0.122  -2.465  19.325  0.00  0.00    -0.323 N 
ATOM     10  H4  AZM d           1.016  -2.436  18.878  0.00  0.00     0.169 HD
ATOM     11  H5  AZM d           0.042  -2.251  20.299  0.00  0.00     0.169 HD
ENDBRANCH   6   9
ENDBRANCH   1   6
BRANCH   2  12
ATOM     12  N4  AZM d          -5.718  -2.067  21.391  0.00  0.00    -0.305 N 
ATOM     13  C3  AZM d          -6.604  -1.110  20.909  0.00  0.00     0.219 C 
ATOM     14  C4  AZM d          -7.759  -0.820  21.810  0.00  0.00     0.117 C 
ATOM     15  O3  AZM d          -6.429  -0.565  19.837  0.00  0.00    -0.274 OA
ATOM     16  H6  AZM d          -5.975  -2.540  22.234  0.00  0.00     0.171 HD
ENDBRANCH   2  12
TORSDOF 3
