REMARK  5 active torsions:
REMARK  status: ('A' for Active; 'I' for Inactive)
REMARK    1  A    between atoms: C2_2  and  O2_3 
REMARK    2  A    between atoms: C3_4  and  O3_5 
REMARK    3  A    between atoms: C4_6  and  O4_7 
REMARK    4  A    between atoms: C5_8  and  C6_10 
REMARK    5  A    between atoms: C6_10  and  O6_11 
ROOT
ATOM      1  C1  NOJ d         -20.887 -20.358 -23.440  0.00  0.00     0.267 C 
ATOM      2  C2  NOJ d         -22.033 -19.777 -24.258  0.00  0.00     0.175 C 
ATOM      3  C3  NOJ d         -21.551 -18.871 -25.387  0.00  0.00     0.179 C 
ATOM      4  C4  NOJ d         -20.555 -17.849 -24.834  0.00  0.00     0.182 C 
ATOM      5  C5  NOJ d         -19.358 -18.573 -24.243  0.00  0.00     0.240 C 
ATOM      6  N5  NOJ d         -19.889 -19.323 -23.088  0.00  0.00    -0.064 N 
ATOM      7  H10 NOJ d         -19.117 -19.774 -22.623  0.00  0.00     0.277 HD
ATOM      8  H11 NOJ d         -20.324 -18.667 -22.458  0.00  0.00     0.277 HD
ENDROOT
BRANCH   5   9
ATOM      9  C6  NOJ d         -18.332 -17.624 -23.696  0.00  0.00     0.199 C 
BRANCH   9  10
ATOM     10  O6  NOJ d         -18.920 -16.811 -22.692  0.00  0.00    -0.399 OA
ATOM     11  H14 NOJ d         -18.267 -16.212 -22.349  0.00  0.00     0.209 HD
ENDBRANCH   9  10
ENDBRANCH   5   9
BRANCH   4  12
ATOM     12  O4  NOJ d         -20.151 -16.930 -25.834  0.00  0.00    -0.391 OA
ATOM     13  H8  NOJ d         -20.912 -16.465 -26.161  0.00  0.00     0.210 HD
ENDBRANCH   4  12
BRANCH   3  14
ATOM     14  O3  NOJ d         -22.705 -18.192 -25.910  0.00  0.00    -0.390 OA
ATOM     15  H6  NOJ d         -23.326 -18.832 -26.237  0.00  0.00     0.210 HD
ENDBRANCH   3  14
BRANCH   2  16
ATOM     16  O2  NOJ d         -22.808 -20.831 -24.851  0.00  0.00    -0.391 OA
ATOM     17  H4  NOJ d         -23.518 -20.454 -25.357  0.00  0.00     0.210 HD
ENDBRANCH   2  16
TORSDOF 5
