REMARK  22 active torsions:
REMARK  status: ('A' for Active; 'I' for Inactive)
REMARK    1  A    between atoms: N4B_18  and  C1A_1 
REMARK    2  A    between atoms: C2A_2  and  O2A_8 
REMARK    3  A    between atoms: C3A_3  and  O3A_9 
REMARK    4  A    between atoms: C4A_4  and  O4A_10 
REMARK    5  A    between atoms: C5A_5  and  C6A_6 
REMARK    6  A    between atoms: C6A_6  and  O6A_11 
REMARK    7  A    between atoms: O4C_30  and  C1B_12 
REMARK    8  A    between atoms: C2B_13  and  O2B_19 
REMARK    9  A    between atoms: C3B_14  and  O3B_20 
REMARK   10  A    between atoms: C4B_15  and  N4B_18 
REMARK   11  A    between atoms: O4D_42  and  C1C_22 
REMARK   12  A    between atoms: C2C_23  and  O2C_28 
REMARK   13  A    between atoms: C3C_24  and  O3C_29 
REMARK   14  A    between atoms: C4C_25  and  O4C_30 
REMARK   15  A    between atoms: C5C_26  and  C6C_27 
REMARK   16  A    between atoms: C6C_27  and  O6C_32 
REMARK   17  A    between atoms: C1D_33  and  O1D_39 
REMARK   18  A    between atoms: C2D_34  and  O2D_40 
REMARK   19  A    between atoms: C3D_35  and  O3D_41 
REMARK   20  A    between atoms: C4D_36  and  O4D_42 
REMARK   21  A    between atoms: C5D_37  and  C6D_38 
REMARK   22  A    between atoms: C6D_38  and  O6D_44 
ROOT
ATOM      1  O4C ACR d          34.530  83.485  33.967  0.00  0.00    -0.348 OA
ENDROOT
BRANCH   1   2
ATOM      2  C1B ACR d          34.627  82.218  34.614  0.00  0.00     0.292 C 
ATOM      3  C2B ACR d          34.105  81.139  33.664  0.00  0.00     0.204 C 
ATOM      4  C3B ACR d          32.595  81.266  33.436  0.00  0.00     0.184 C 
ATOM      5  C4B ACR d          31.878  81.262  34.778  0.00  0.00     0.246 C 
ATOM      6  C5B ACR d          32.424  82.466  35.550  0.00  0.00     0.154 C 
ATOM      7  C6B ACR d          31.705  82.684  36.884  0.00  0.00     0.042 C 
ATOM      8  O5B ACR d          33.831  82.274  35.808  0.00  0.00    -0.351 OA
BRANCH   3   9
ATOM      9  O2B ACR d          34.771  81.269  32.403  0.00  0.00    -0.388 OA
ATOM     10  H22 ACR d          34.571  82.118  32.026  0.00  0.00     0.210 HD
ENDBRANCH   3   9
BRANCH   4  11
ATOM     11  O3B ACR d          32.133  80.178  32.625  0.00  0.00    -0.391 OA
ATOM     12  H23 ACR d          32.587  80.191  31.791  0.00  0.00     0.210 HD
ENDBRANCH   4  11
BRANCH   5  13
ATOM     13  N4B ACR d          30.410  81.184  34.634  0.00  0.00    -0.056 N 
ATOM     14  H20 ACR d          30.007  81.757  35.358  0.00  0.00     0.278 HD
ATOM     15  H21 ACR d          30.176  81.569  33.732  0.00  0.00     0.278 HD
BRANCH  13  16
ATOM     16  C1A ACR d          29.775  79.854  34.722  0.00  0.00     0.240 C 
ATOM     17  C2A ACR d          28.237  79.744  34.684  0.00  0.00     0.184 C 
ATOM     18  C3A ACR d          27.573  80.272  35.964  0.00  0.00     0.182 C 
ATOM     19  C4A ACR d          27.998  79.403  37.136  0.00  0.00     0.180 C 
ATOM     20  C5A ACR d          29.486  79.114  37.105  0.00  0.00    -0.027 C 
ATOM     21  C7A ACR d          30.218  79.128  35.973  0.00  0.00     0.016 C 
BRANCH  17  22
ATOM     22  O2A ACR d          27.677  80.317  33.495  0.00  0.00    -0.390 OA
ATOM     23  H8  ACR d          26.751  80.109  33.451  0.00  0.00     0.210 HD
ENDBRANCH  17  22
BRANCH  18  24
ATOM     24  O3A ACR d          26.129  80.221  35.886  0.00  0.00    -0.390 OA
ATOM     25  H9  ACR d          25.833  80.757  35.160  0.00  0.00     0.210 HD
ENDBRANCH  18  24
BRANCH  19  26
ATOM     26  O4A ACR d          27.664  80.093  38.345  0.00  0.00    -0.388 OA
ATOM     27  H10 ACR d          26.731  80.271  38.359  0.00  0.00     0.210 HD
ENDBRANCH  19  26
BRANCH  20  28
ATOM     28  C6A ACR d          30.197  78.774  38.393  0.00  0.00     0.201 C 
BRANCH  28  29
ATOM     29  O6A ACR d          30.107  77.361  38.592  0.00  0.00    -0.397 OA
ATOM     30  H11 ACR d          30.550  77.127  39.399  0.00  0.00     0.209 HD
ENDBRANCH  28  29
ENDBRANCH  20  28
ENDBRANCH  13  16
ENDBRANCH   5  13
ENDBRANCH   1   2
BRANCH   1  31
ATOM     31  C4C ACR d          35.750  84.224  33.980  0.00  0.00     0.187 C 
ATOM     32  C3C ACR d          36.174  84.458  32.529  0.00  0.00     0.183 C 
ATOM     33  C2C ACR d          37.272  85.515  32.489  0.00  0.00     0.204 C 
ATOM     34  C1C ACR d          36.632  86.724  33.141  0.00  0.00     0.292 C 
ATOM     35  O5C ACR d          36.621  86.450  34.535  0.00  0.00    -0.348 OA
ATOM     36  C5C ACR d          35.565  85.512  34.786  0.00  0.00     0.180 C 
BRANCH  32  37
ATOM     37  O3C ACR d          36.627  83.208  32.007  0.00  0.00    -0.390 OA
ATOM     38  H32 ACR d          35.921  82.574  32.049  0.00  0.00     0.210 HD
ENDBRANCH  32  37
BRANCH  33  39
ATOM     39  O2C ACR d          37.680  85.791  31.148  0.00  0.00    -0.388 OA
ATOM     40  H31 ACR d          36.936  86.109  30.651  0.00  0.00     0.210 HD
ENDBRANCH  33  39
BRANCH  34  41
ATOM     41  O4D ACR d          37.271  87.954  32.842  0.00  0.00    -0.348 OA
BRANCH  41  42
ATOM     42  C4D ACR d          36.418  88.747  32.021  0.00  0.00     0.187 C 
ATOM     43  C3D ACR d          37.062  88.882  30.639  0.00  0.00     0.183 C 
ATOM     44  C2D ACR d          36.593  90.087  29.829  0.00  0.00     0.204 C 
ATOM     45  C1D ACR d          35.744  91.027  30.672  0.00  0.00     0.288 C 
ATOM     46  O5D ACR d          36.427  91.185  31.910  0.00  0.00    -0.349 OA
ATOM     47  C5D ACR d          36.156  90.066  32.749  0.00  0.00     0.180 C 
BRANCH  43  48
ATOM     48  O3D ACR d          36.762  87.704  29.878  0.00  0.00    -0.390 OA
ATOM     49  H43 ACR d          37.111  86.942  30.325  0.00  0.00     0.210 HD
ENDBRANCH  43  48
BRANCH  44  50
ATOM     50  O2D ACR d          35.863  89.638  28.680  0.00  0.00    -0.388 OA
ATOM     51  H42 ACR d          36.426  89.094  28.141  0.00  0.00     0.210 HD
ENDBRANCH  44  50
BRANCH  45  52
ATOM     52  O1D ACR d          35.613  92.284  30.000  0.00  0.00    -0.369 OA
ATOM     53  H41 ACR d          36.476  92.643  29.831  0.00  0.00     0.212 HD
ENDBRANCH  45  52
BRANCH  47  54
ATOM     54  C6D ACR d          36.934  90.184  34.057  0.00  0.00     0.198 C 
BRANCH  54  55
ATOM     55  O6D ACR d          36.140  89.705  35.148  0.00  0.00    -0.398 OA
ATOM     56  H44 ACR d          35.916  88.794  34.999  0.00  0.00     0.209 HD
ENDBRANCH  54  55
ENDBRANCH  47  54
ENDBRANCH  41  42
ENDBRANCH  34  41
BRANCH  36  57
ATOM     57  C6C ACR d          35.535  85.186  36.278  0.00  0.00     0.198 C 
BRANCH  57  58
ATOM     58  O6C ACR d          34.898  86.242  36.993  0.00  0.00    -0.398 OA
ATOM     59  H33 ACR d          34.883  86.032  37.919  0.00  0.00     0.209 HD
ENDBRANCH  57  58
ENDBRANCH  36  57
ENDBRANCH   1  31
TORSDOF 22
