2qry_ligand

Created by X-TOOL on Fri Sep 26 17:34:40 2014
 38 39  0  0  0  0  0  0  0  0999 V2000
    9.8580   44.3530  109.6850  C 0  0  0  4  0  4
    7.6780   50.3510  111.2580  N 0  0  0  1  0  3
    8.9510   50.3080  110.9180  C 0  0  0  2  0  3
    9.4980   51.9300  111.1200  S 0  0  0  1  0  2
    7.9700   52.6320  111.6710  C 0  0  0  1  0  3
    7.1330   51.5370  111.6510  C 0  0  0  1  0  3
    5.6710   51.6690  112.0630  C 0  0  0  4  0  4
    7.7930   54.0720  112.0390  C 0  0  0  3  0  4
    9.1690   54.6330  111.6800  C 0  0  0  3  0  4
    9.3320   56.0150  111.9740  O 0  0  0  1  0  2
    8.8200   45.8370  111.3500  N 0  0  0  1  0  2
    9.0710   45.5870  110.0620  C 0  0  0  1  0  3
    8.6410   46.4090  109.1070  N 0  0  0  1  0  2
    7.9370   47.5230  109.4020  C 0  0  0  1  0  3
    7.5070   48.3610  108.3890  N 0  0  0  3  0  3
    7.6490   47.8250  110.7710  C 0  0  0  1  0  3
    8.1280   46.9210  111.7340  C 0  0  0  2  0  3
    6.8550   49.0780  111.2130  C 0  0  0  3  0  4
   10.8320   56.4040  111.5150  P 0  0  0  1  0  4
   11.8480   55.4540  112.2090  O 0  0  0  1  0  1
   11.1520   57.9240  111.8200  O 0  0  0  1  0  1
   10.9410   56.1890  109.9900  O 0  0  0  1  0  1
   10.1277   43.7978  110.5955  H 0  0  0  1  0  1
   10.7733   44.6504  109.1523  H 0  0  0  1  0  1
    9.2458   43.7127  109.0329  H 0  0  0  1  0  1
    9.5257   49.4448  110.5855  H 0  0  0  1  0  1
    5.4605   52.7130  112.3382  H 0  0  0  1  0  1
    5.4726   51.0154  112.9252  H 0  0  0  1  0  1
    5.0252   51.3739  111.2229  H 0  0  0  1  0  1
    7.5744   54.1917  113.1104  H 0  0  0  1  0  1
    6.9961   54.5458  111.4470  H 0  0  0  1  0  1
    9.3291   54.4890  110.6013  H 0  0  0  1  0  1
    9.9283   54.0693  112.2419  H 0  0  0  1  0  1
    6.9702   49.2102  108.6161  H 0  0  0  1  0  1
    7.7236   48.1358  107.4075  H 0  0  0  1  0  1
    7.9388   47.0989  112.7864  H 0  0  0  1  0  1
    6.0257   49.2280  110.5061  H 0  0  0  1  0  1
    6.4504   48.8929  112.2190  H 0  0  0  1  0  1
 12  1  1  0  0  2
  2  3  2  0  0  1
  2  6  1  0  0  1
 18  2  1  0  0  2
  3  4  1  0  0  1
  5  4  1  0  0  1
  6  5  2  0  0  1
  5  8  1  0  0  2
  6  7  1  0  0  2
  8  9  1  0  0  2
  9 10  1  0  0  2
 10 19  1  0  0  2
 11 12  4  0  0  1
 17 11  4  0  0  1
 13 12  4  0  0  1
 14 13  4  0  0  1
 14 15  1  0  0  2
 16 14  4  0  0  1
 16 17  4  0  0  1
 16 18  1  0  0  2
 19 20  2  0  0  2
 19 21  2  0  0  2
 19 22  2  0  0  2
  1 23  1  0  0  2
  1 24  1  0  0  2
  1 25  1  0  0  2
  3 26  1  0  0  2
  7 27  1  0  0  2
  7 28  1  0  0  2
  7 29  1  0  0  2
  8 30  1  0  0  2
  8 31  1  0  0  2
  9 32  1  0  0  2
  9 33  1  0  0  2
 15 34  1  0  0  2
 15 35  1  0  0  2
 17 36  1  0  0  2
 18 37  1  0  0  2
 18 38  1  0  0  2
M  END
> <MOLECULAR_FORMULA>
C12H16N4O4PS

> <MOLECULAR_WEIGHT>
343.2

> <NUM_HB_ATOMS>
8  

> <NUM_ROTOR>
5  

> <XLOGP2>
-0.05

$$$$
