REMARK  5 active torsions:
REMARK  status: ('A' for Active; 'I' for Inactive)
REMARK    1  A    between atoms: C1'_14  and  N1_4 
REMARK    2  A    between atoms: C5'_7  and  C4'_8 
REMARK    3  A    between atoms: NAT_21  and  C5'_7 
REMARK    4  A    between atoms: C3'_10  and  O3'_11 
REMARK    5  A    between atoms: C2'_12  and  O2'_13 
ROOT
ATOM      1  C4' U4S d          38.462  -0.761  13.931  0.00  0.00     0.181 C 
ATOM      2  O4' U4S d          38.566  -1.353  12.599  0.00  0.00    -0.354 OA
ATOM      3  C3' U4S d          37.934   0.598  13.564  0.00  0.00     0.181 C 
ATOM      4  C2' U4S d          36.775   0.218  12.676  0.00  0.00     0.198 C 
ATOM      5  C1' U4S d          37.263  -1.093  12.012  0.00  0.00     0.263 C 
ENDROOT
BRANCH   5   6
ATOM      6  N1  U4S d          36.391  -2.305  12.184  0.00  0.00    -0.280 N 
ATOM      7  C6  U4S d          36.771  -3.364  13.040  0.00  0.00     0.104 A 
ATOM      8  C5  U4S d          35.971  -4.496  13.188  0.00  0.00     0.092 A 
ATOM      9  C4  U4S d          34.788  -4.592  12.466  0.00  0.00     0.250 A 
ATOM     10  N3  U4S d          34.407  -3.558  11.602  0.00  0.00    -0.275 N 
ATOM     11  O4  U4S d          34.070  -5.584  12.575  0.00  0.00    -0.268 OA
ATOM     12  C2  U4S d          35.202  -2.412  11.457  0.00  0.00     0.331 A 
ATOM     13  H3  U4S d          33.557  -3.638  11.082  0.00  0.00     0.173 HD
ATOM     14  O2  U4S d          34.845  -1.511  10.703  0.00  0.00    -0.246 OA
ENDBRANCH   5   6
BRANCH   4  15
ATOM     15  O2' U4S d          36.716   1.277  11.726  0.00  0.00    -0.388 OA
ATOM     16  H12 U4S d          36.003   1.117  11.119  0.00  0.00     0.210 HD
ENDBRANCH   4  15
BRANCH   1  17
ATOM     17  C5' U4S d          39.751  -0.622  14.761  0.00  0.00     0.269 C 
BRANCH  17  18
ATOM     18  NAT U4S d          40.737  -1.658  14.432  0.00  0.00    -0.069 N 
ATOM     19  CAJ U4S d          41.821  -1.033  13.649  0.00  0.00     0.235 C 
ATOM     20  CAH U4S d          43.105  -1.643  14.199  0.00  0.00     0.029 C 
ATOM     21  CAG U4S d          42.803  -1.682  15.686  0.00  0.00     0.029 C 
ATOM     22  CAI U4S d          41.337  -2.122  15.704  0.00  0.00     0.235 C 
ATOM     23  H20 U4S d          40.311  -2.419  13.926  0.00  0.00     0.280 HD
ENDBRANCH  17  18
ENDBRANCH   1  17
BRANCH   3  24
ATOM     24  O3' U4S d          37.446   1.331  14.678  0.00  0.00    -0.390 OA
ATOM     25  H10 U4S d          37.128   2.176  14.384  0.00  0.00     0.210 HD
ENDBRANCH   3  24
TORSDOF 5
