3d7b_ligand

Created by X-TOOL on Fri Sep 26 17:34:43 2014
 41 43  0  0  0  0  0  0  0  0999 V2000
   34.7880   -4.5920   12.4660  C 0  0  0  1  0  3
   35.9710   -4.4960   13.1880  C 0  0  0  2  0  3
   36.7710   -3.3640   13.0400  C 0  0  0  2  0  3
   36.3910   -2.3050   12.1840  N 0  0  0  1  0  3
   34.4070   -3.5580   11.6020  N 0  0  0  2  0  3
   41.8210   -1.0330   13.6490  C 0  0  0  3  0  4
   39.7510   -0.6220   14.7610  C 0  0  0  3  0  4
   38.4620   -0.7610   13.9310  C 0  0  0  2  0  4
   38.5660   -1.3530   12.5990  O 0  0  0  1  0  2
   37.9340    0.5980   13.5640  C 0  0  0  2  0  4
   37.4460    1.3310   14.6780  O 0  0  0  2  0  2
   36.7750    0.2180   12.6760  C 0  0  0  2  0  4
   36.7160    1.2770   11.7260  O 0  0  0  2  0  2
   37.2630   -1.0930   12.0120  C 0  0  0  2  0  4
   34.0700   -5.5840   12.5750  O 0  0  0  1  0  1
   35.2020   -2.4120   11.4570  C 0  0  0  1  0  3
   34.8450   -1.5110   10.7030  O 0  0  0  1  0  1
   41.3370   -2.1220   15.7040  C 0  0  0  3  0  4
   42.8030   -1.6820   15.6860  C 0  0  0  3  0  4
   43.1050   -1.6430   14.1990  C 0  0  0  3  0  4
   40.7370   -1.6580   14.4320  N 0  3  0  2  0  4
   36.2703   -5.2968   13.8626  H 0  0  0  1  0  1
   37.7059   -3.2942   13.5940  H 0  0  0  1  0  1
   33.5568   -3.6379   11.0816  H 0  0  0  1  0  1
   41.7093   -1.2654   12.5797  H 0  0  0  1  0  1
   41.8200    0.0580   13.7892  H 0  0  0  1  0  1
   39.4957   -0.7022   15.8279  H 0  0  0  1  0  1
   40.1949    0.3649   14.5633  H 0  0  0  1  0  1
   37.7343   -1.3254   14.5325  H 0  0  0  1  0  1
   38.6908    1.1919   13.0307  H 0  0  0  1  0  1
   37.1276    2.1765   14.3844  H 0  0  0  1  0  1
   35.8245    0.0873   13.2141  H 0  0  0  1  0  1
   36.0034    1.1167   11.1186  H 0  0  0  1  0  1
   37.3697   -0.9133   10.9320  H 0  0  0  1  0  1
   40.8148   -1.6658   16.5579  H 0  0  0  1  0  1
   41.2710   -3.2176   15.7766  H 0  0  0  1  0  1
   43.4446   -2.4095   16.2047  H 0  0  0  1  0  1
   42.9279   -0.6901   16.1449  H 0  0  0  1  0  1
   43.9772   -1.0089   13.9818  H 0  0  0  1  0  1
   43.2760   -2.6523   13.7963  H 0  0  0  1  0  1
   40.3112   -2.4187   13.9260  H 0  0  0  1  0  1
  2  1  1  0  0  1
  5  1  1  0  0  1
  1 15  2  0  0  2
  3  2  2  0  0  1
  4  3  1  0  0  1
 14  4  1  0  0  2
  4 16  1  0  0  1
 16  5  1  0  0  1
  6 20  1  0  0  1
 21  6  1  0  0  1
  7  8  1  0  0  2
 21  7  1  0  0  2
  8  9  1  0  0  1
  8 10  1  0  0  1
  9 14  1  0  0  1
 10 11  1  0  0  2
 10 12  1  0  0  1
 12 13  1  0  0  2
 12 14  1  0  0  1
 16 17  2  0  0  2
 18 19  1  0  0  1
 18 21  1  0  0  1
 19 20  1  0  0  1
  2 22  1  0  0  2
  3 23  1  0  0  2
  5 24  1  0  0  2
  6 25  1  0  0  2
  6 26  1  0  0  2
  7 27  1  0  0  2
  7 28  1  0  0  2
  8 29  1  0  0  2
 10 30  1  0  0  2
 11 31  1  0  0  2
 12 32  1  0  0  2
 13 33  1  0  0  2
 14 34  1  0  0  2
 18 35  1  0  0  2
 18 36  1  0  0  2
 19 37  1  0  0  2
 19 38  1  0  0  2
 20 39  1  0  0  2
 20 40  1  0  0  2
 21 41  1  0  0  2
M  END
> <MOLECULAR_FORMULA>
C13H20N3O5

> <MOLECULAR_WEIGHT>
298.2

> <NUM_HB_ATOMS>
7  

> <NUM_ROTOR>
3  

> <XLOGP2>
-1.56

$$$$
