REMARK  10 active torsions:
REMARK  status: ('A' for Active; 'I' for Inactive)
REMARK    1  A    between atoms: C4_1  and  O4_13 
REMARK    2  A    between atoms: C5_2  and  C6_3 
REMARK    3  A    between atoms: C6_3  and  O6_14 
REMARK    4  A    between atoms: OAO_4  and  SAW_5 
REMARK    5  A    between atoms: CAP_24  and  OAO_4 
REMARK    6  A    between atoms: SAW_5  and  NAA_8 
REMARK    7  A    between atoms: C2_10  and  O2_9 
REMARK    8  A    between atoms: C3_11  and  O3_12 
REMARK    9  A    between atoms: SAX_17  and  C1_16 
REMARK   10  A    between atoms: NAV_20  and  SAX_17 
ROOT
ATOM      1  C4  MOL d           3.692   3.783  80.331  0.00  0.00     0.180 C 
ATOM      2  C5  MOL d           2.871   4.329  81.488  0.00  0.00     0.178 C 
ATOM      3  C2  MOL d           2.293   1.710  80.466  0.00  0.00     0.195 C 
ATOM      4  C3  MOL d           3.490   2.422  79.952  0.00  0.00     0.181 C 
ATOM      5  O5  MOL d           1.713   3.632  81.943  0.00  0.00    -0.356 OA
ATOM      6  C1  MOL d           1.473   2.304  81.615  0.00  0.00     0.295 C 
ENDROOT
BRANCH   6   7
ATOM      7  SAX MOL d          -0.337   2.170  81.646  0.00  0.00     0.258 S 
ATOM      8  OAD MOL d          -0.565   0.861  81.361  0.00  0.00    -0.203 OA
ATOM      9  OAE MOL d          -0.926   3.167  80.846  0.00  0.00    -0.203 OA
BRANCH   7  10
ATOM     10  NAV MOL d          -0.632   2.482  82.976  0.00  0.00    -0.306 N 
ATOM     11  CAM MOL d          -0.227   1.814  83.912  0.00  0.00     0.168 C 
ATOM     12  CAP MOL d          -0.368   2.661  85.282  0.00  0.00     0.164 C 
ATOM     13  CAK MOL d          -0.245   3.841  84.891  0.00  0.00     0.055 C 
ATOM     14  CAL MOL d          -0.756   3.842  83.467  0.00  0.00     0.138 C 
BRANCH  12  15
ATOM     15  OAO MOL d          -1.629   2.476  86.020  0.00  0.00    -0.253 OA
BRANCH  15  16
ATOM     16  SAW MOL d          -1.889   1.410  87.114  0.00  0.00     0.356 S 
ATOM     17  OAB MOL d          -3.294   1.380  87.256  0.00  0.00    -0.176 OA
ATOM     18  OAC MOL d          -1.151   1.692  88.238  0.00  0.00    -0.176 OA
BRANCH  16  19
ATOM     19  NAA MOL d          -1.233   0.089  86.683  0.00  0.00    -0.306 N 
ATOM     20  H   MOL d          -1.299  -0.717  87.271  0.00  0.00     0.171 HD
ATOM     21  H   MOL d          -0.740   0.035  85.814  0.00  0.00     0.171 HD
ENDBRANCH  16  19
ENDBRANCH  15  16
ENDBRANCH  12  15
ENDBRANCH   7  10
ENDBRANCH   6   7
BRANCH   3  22
ATOM     22  O2  MOL d           1.634   0.835  79.606  0.00  0.00    -0.389 OA
ATOM     23  H   MOL d           0.892   0.449  80.056  0.00  0.00     0.210 HD
ENDBRANCH   3  22
BRANCH   4  24
ATOM     24  O3  MOL d           3.833   2.190  78.577  0.00  0.00    -0.390 OA
ATOM     25  H   MOL d           4.609   2.692  78.356  0.00  0.00     0.210 HD
ENDBRANCH   4  24
BRANCH   2  26
ATOM     26  C6  MOL d           3.623   5.135  82.492  0.00  0.00     0.198 C 
BRANCH  26  27
ATOM     27  O6  MOL d           3.079   5.346  83.772  0.00  0.00    -0.398 OA
ATOM     28  H   MOL d           3.678   5.875  84.286  0.00  0.00     0.209 HD
ENDBRANCH  26  27
ENDBRANCH   2  26
BRANCH   1  29
ATOM     29  O4  MOL d           5.108   4.012  80.474  0.00  0.00    -0.390 OA
ATOM     30  H   MOL d           5.541   3.837  79.647  0.00  0.00     0.210 HD
ENDBRANCH   1  29
TORSDOF 10
