REMARK  10 active torsions:
REMARK  status: ('A' for Active; 'I' for Inactive)
REMARK    1  A    between atoms: PG_1  and  O3B_5 
REMARK    2  A    between atoms: O3B_5  and  PB_6 
REMARK    3  A    between atoms: PB_6  and  O3A_9 
REMARK    4  A    between atoms: O3A_9  and  PA_10 
REMARK    5  A    between atoms: PA_10  and  O5'_13 
REMARK    6  A    between atoms: O5'_13  and  C5'_14 
REMARK    7  A    between atoms: C5'_14  and  C4'_15 
REMARK    8  A    between atoms: C3'_17  and  O3'_18 
REMARK    9  A    between atoms: C2'_19  and  O2'_20 
REMARK   10  A    between atoms: C1'_21  and  N9_22 
ROOT
ATOM      1  C4' GTP d          -4.900  10.438  56.292  0.00  0.00     0.180 C 
ATOM      2  O4' GTP d          -5.803   9.401  56.635  0.00  0.00    -0.353 OA
ATOM      3  C3' GTP d          -4.234  10.891  57.581  0.00  0.00     0.182 C 
ATOM      4  C2' GTP d          -4.488   9.741  58.533  0.00  0.00     0.198 C 
ATOM      5  C1' GTP d          -5.824   9.230  58.040  0.00  0.00     0.262 C 
ENDROOT
BRANCH   5   6
ATOM      6  N9  GTP d          -6.049   7.823  58.405  0.00  0.00    -0.295 N 
ATOM      7  C8  GTP d          -5.187   6.762  58.297  0.00  0.00     0.214 A 
ATOM      8  N7  GTP d          -5.810   5.654  58.749  0.00  0.00    -0.234 NA
ATOM      9  C5  GTP d          -7.067   5.989  59.137  0.00  0.00     0.171 A 
ATOM     10  C6  GTP d          -8.132   5.264  59.672  0.00  0.00     0.292 A 
ATOM     11  C4  GTP d          -7.221   7.354  58.922  0.00  0.00     0.161 A 
ATOM     12  O6  GTP d          -8.041   4.055  59.869  0.00  0.00    -0.265 OA
ATOM     13  N1  GTP d          -9.318   5.914  59.975  0.00  0.00    -0.154 N 
ATOM     14  C2  GTP d          -9.443   7.267  59.747  0.00  0.00     0.680 A 
ATOM     15  H10 GTP d         -10.085   5.400  60.360  0.00  0.00     0.187 HD
ATOM     16  N2  GTP d         -10.582   7.892  60.043  0.00  0.00    -0.234 N 
ATOM     17  N3  GTP d          -8.385   7.983  59.222  0.00  0.00    -0.174 N 
ATOM     18  H11 GTP d         -10.674   8.903  59.872  0.00  0.00     0.174 HD
ATOM     19  H12 GTP d         -11.370   7.364  60.443  0.00  0.00     0.174 HD
ATOM     20  H13 GTP d          -8.480   8.995  59.058  0.00  0.00     0.186 HD
ENDBRANCH   5   6
BRANCH   4  21
ATOM     21  O2' GTP d          -4.550  10.144  59.875  0.00  0.00    -0.388 OA
ATOM     22  H7  GTP d          -5.256  10.771  59.984  0.00  0.00     0.210 HD
ENDBRANCH   4  21
BRANCH   1  23
ATOM     23  C5' GTP d          -3.864   9.894  55.306  0.00  0.00     0.216 C 
BRANCH  23  24
ATOM     24  O5' GTP d          -3.163   8.813  55.897  0.00  0.00    -0.287 OA
BRANCH  24  25
ATOM     25  PA  GTP d          -1.651   8.475  55.422  0.00  0.00     0.417 P 
ATOM     26  O1A GTP d          -0.811   9.717  55.474  0.00  0.00    -0.624 OA
ATOM     27  O2A GTP d          -1.099   7.363  56.284  0.00  0.00    -0.624 OA
BRANCH  25  28
ATOM     28  O3A GTP d          -1.955   7.997  53.923  0.00  0.00    -0.180 OA
BRANCH  28  29
ATOM     29  PB  GTP d          -0.876   7.539  52.808  0.00  0.00     0.428 P 
ATOM     30  O1B GTP d          -1.403   6.314  52.148  0.00  0.00    -0.624 OA
ATOM     31  O2B GTP d           0.459   7.359  53.475  0.00  0.00    -0.624 OA
BRANCH  29  32
ATOM     32  O3B GTP d          -0.843   8.777  51.759  0.00  0.00    -0.173 OA
BRANCH  32  33
ATOM     33  PG  GTP d           0.467   9.112  50.827  0.00  0.00     0.431 P 
ATOM     34  O1G GTP d           0.807   7.957  49.931  0.00  0.00    -0.616 OA
ATOM     35  O2G GTP d           0.092  10.306  49.964  0.00  0.00    -0.616 OA
ATOM     36  O3G GTP d           1.620   9.484  51.714  0.00  0.00    -0.616 OA
ENDBRANCH  32  33
ENDBRANCH  29  32
ENDBRANCH  28  29
ENDBRANCH  25  28
ENDBRANCH  24  25
ENDBRANCH  23  24
ENDBRANCH   1  23
BRANCH   3  37
ATOM     37  O3' GTP d          -4.845  12.065  58.062  0.00  0.00    -0.390 OA
ATOM     38  H5  GTP d          -4.419  12.336  58.867  0.00  0.00     0.210 HD
ENDBRANCH   3  37
TORSDOF 10
