REMARK  5 active torsions:
REMARK  status: ('A' for Active; 'I' for Inactive)
REMARK       I    between atoms: C18_2  and  N3_3 
REMARK    1  A    between atoms: C18_2  and  C17_9 
REMARK    2  A    between atoms: C17_9  and  C16_10 
REMARK    3  A    between atoms: C16_10  and  C15_11 
REMARK       I    between atoms: C15_11  and  N2_13 
REMARK    4  A    between atoms: N2_13  and  C14_14 
REMARK    5  A    between atoms: C9_20  and  C8_21 
REMARK       I    between atoms: C8_21  and  N1_23 
ROOT
ATOM      1  C14 SX6 d           7.294  36.613  77.151  0.00  0.00     0.050 A 
ATOM      2  C13 SX6 d           6.408  37.451  76.455  0.00  0.00     0.032 A 
ATOM      3  C12 SX6 d           6.891  38.410  75.560  0.00  0.00     0.021 A 
ATOM      4  C11 SX6 d           8.269  38.520  75.375  0.00  0.00     0.012 A 
ATOM      5 BR1  SX6 d           8.971  39.772  74.175  0.00  0.00    -0.051 Br
ATOM      6  C10 SX6 d           9.170  37.709  76.039  0.00  0.00     0.038 A 
ATOM      7  C9  SX6 d           8.694  36.749  76.929  0.00  0.00     0.060 A 
ENDROOT
BRANCH   1   8
ATOM      8  N2  SX6 d           6.797  35.642  78.049  0.00  0.00    -0.326 N 
ATOM      9  C15 SX6 d           5.735  34.811  77.764  0.00  0.00     0.222 C 
ATOM     10  O2  SX6 d           5.085  34.809  76.712  0.00  0.00    -0.273 OA
ATOM     11  H13 SX6 d           7.240  35.553  78.941  0.00  0.00     0.169 HD
BRANCH   9  12
ATOM     12  C16 SX6 d           5.438  33.894  78.937  0.00  0.00     0.112 C 
BRANCH  12  13
ATOM     13  C17 SX6 d           3.953  33.897  79.294  0.00  0.00     0.112 C 
BRANCH  13  14
ATOM     14  C18 SX6 d           3.417  35.221  79.829  0.00  0.00     0.220 C 
ATOM     15  O3  SX6 d           4.049  36.285  79.763  0.00  0.00    -0.273 OA
ATOM     16  N3  SX6 d           2.155  35.186  80.408  0.00  0.00    -0.348 N 
ATOM     17  C22 SX6 d           1.438  36.348  80.985  0.00  0.00     0.152 C 
ATOM     18  C19 SX6 d           1.238  34.028  80.232  0.00  0.00     0.152 C 
ATOM     19  C21 SX6 d           0.581  35.986  82.212  0.00  0.00     0.187 C 
ATOM     20  O4  SX6 d          -0.320  34.903  81.910  0.00  0.00    -0.388 OA
ATOM     21  C20 SX6 d           0.398  33.727  81.484  0.00  0.00     0.187 C 
ENDBRANCH  13  14
ENDBRANCH  12  13
ENDBRANCH   9  12
ENDBRANCH   1   8
BRANCH   7  22
ATOM     22  C8  SX6 d           9.728  35.931  77.618  0.00  0.00     0.256 C 
ATOM     23  O1  SX6 d          10.497  36.535  78.357  0.00  0.00    -0.267 OA
ATOM     24  N1  SX6 d           9.850  34.563  77.454  0.00  0.00    -0.347 N 
ATOM     25  C6  SX6 d          10.859  33.775  78.170  0.00  0.00     0.130 C 
ATOM     26  C7  SX6 d           9.094  33.878  76.382  0.00  0.00     0.130 C 
ATOM     27  C4  SX6 d          11.779  32.998  77.233  0.00  0.00    -0.000 C 
ATOM     28  C5  SX6 d          12.769  32.144  78.029  0.00  0.00     0.011 C 
ATOM     29  C3  SX6 d          10.942  32.154  76.272  0.00  0.00     0.011 C 
ATOM     30  C2  SX6 d           9.955  33.003  75.464  0.00  0.00    -0.000 C 
ATOM     31  C1  SX6 d           9.096  32.143  74.541  0.00  0.00     0.011 C 
ENDBRANCH   7  22
TORSDOF 5
