REMARK  26 active torsions:
REMARK  status: ('A' for Active; 'I' for Inactive)
REMARK    1  A    between atoms: OBC_2  and  CAL_3 
REMARK    2  A    between atoms: CAL_3  and  CAM_4 
REMARK    3  A    between atoms: CAM_4  and  OBD_5 
REMARK    4  A    between atoms: OBD_5  and  CAN_6 
REMARK    5  A    between atoms: CAN_6  and  CAO_7 
REMARK    6  A    between atoms: CAO_7  and  OBE_8 
REMARK    7  A    between atoms: OBE_8  and  CAP_9 
REMARK    8  A    between atoms: CAP_9  and  CAQ_10 
REMARK    9  A    between atoms: CAQ_10  and  OBF_11 
REMARK   10  A    between atoms: OBF_11  and  CAR_12 
REMARK   11  A    between atoms: CAR_12  and  CAS_13 
REMARK   12  A    between atoms: CAS_13  and  OBG_14 
REMARK   13  A    between atoms: OBG_14  and  CAX_15 
REMARK   14  A    between atoms: CAX_15  and  CBL_16 
REMARK   15  A    between atoms: NBO_20  and  CAW_21 
REMARK   16  A    between atoms: CAW_21  and  CAK_22 
REMARK   17  A    between atoms: CAK_22  and  CAJ_23 
REMARK   18  A    between atoms: CAJ_23  and  CB_24 
REMARK   19  A    between atoms: CB_24  and  CA_25 
REMARK   20  A    between atoms: CA_25  and  C_26 
REMARK   21  A    between atoms: CA_25  and  N_29 
REMARK       I    between atoms: N_29  and  CBK_30 
REMARK       I    between atoms: CBK_30  and  NBB_32 
REMARK   22  A    between atoms: NBB_32  and  CBN_33 
REMARK   23  A    between atoms: CBN_33  and  CBJ_34 
REMARK   24  A    between atoms: CBN_33  and  CAV_37 
REMARK   25  A    between atoms: CAV_37  and  CAT_38 
REMARK   26  A    between atoms: CAT_38  and  CBH_39 
ROOT
ATOM      1  CAK OKD d          22.850  45.719  41.993  0.00  0.00     0.022 C 
ENDROOT
BRANCH   1   2
ATOM      2  CAW OKD d          24.273  46.194  42.192  0.00  0.00     0.152 C 
BRANCH   2   3
ATOM      3  NBO OKD d          24.778  47.003  41.038  0.00  0.00    -0.261 N 
ATOM      4  CAI OKD d          25.076  48.300  41.166  0.00  0.00     0.145 A 
ATOM      5  CBL OKD d          25.511  48.657  39.951  0.00  0.00     0.099 A 
ATOM      6  NAY OKD d          25.463  47.554  39.175  0.00  0.00    -0.133 NA
ATOM      7  NAZ OKD d          25.030  46.610  39.878  0.00  0.00    -0.066 NA
BRANCH   5   8
ATOM      8  CAX OKD d          25.946  49.975  39.596  0.00  0.00     0.230 C 
BRANCH   8   9
ATOM      9  OBG OKD d          25.283  51.283  40.031  0.00  0.00    -0.383 OA
BRANCH   9  10
ATOM     10  CAS OKD d          25.613  51.730  41.426  0.00  0.00     0.194 C 
BRANCH  10  11
ATOM     11  CAR OKD d          25.277  53.205  41.772  0.00  0.00     0.193 C 
BRANCH  11  12
ATOM     12  OBF OKD d          26.517  53.657  41.079  0.00  0.00    -0.387 OA
BRANCH  12  13
ATOM     13  CAQ OKD d          26.595  55.078  41.295  0.00  0.00     0.193 C 
BRANCH  13  14
ATOM     14  CAP OKD d          27.175  55.677  40.009  0.00  0.00     0.193 C 
BRANCH  14  15
ATOM     15  OBE OKD d          27.664  57.030  40.168  0.00  0.00    -0.387 OA
BRANCH  15  16
ATOM     16  CAO OKD d          29.111  57.017  40.413  0.00  0.00     0.193 C 
BRANCH  16  17
ATOM     17  CAN OKD d          29.996  57.464  39.229  0.00  0.00     0.193 C 
BRANCH  17  18
ATOM     18  OBD OKD d          29.325  58.353  38.302  0.00  0.00    -0.387 OA
BRANCH  18  19
ATOM     19  CAM OKD d          29.712  59.738  38.507  0.00  0.00     0.193 C 
BRANCH  19  20
ATOM     20  CAL OKD d          28.560  60.567  39.097  0.00  0.00     0.193 C 
BRANCH  20  21
ATOM     21  OBC OKD d          29.031  61.888  39.461  0.00  0.00    -0.394 OA
ATOM     22  CAA OKD d          28.536  62.246  40.769  0.00  0.00     0.201 C 
ENDBRANCH  20  21
ENDBRANCH  19  20
ENDBRANCH  18  19
ENDBRANCH  17  18
ENDBRANCH  16  17
ENDBRANCH  15  16
ENDBRANCH  14  15
ENDBRANCH  13  14
ENDBRANCH  12  13
ENDBRANCH  11  12
ENDBRANCH  10  11
ENDBRANCH   9  10
ENDBRANCH   8   9
ENDBRANCH   5   8
ENDBRANCH   2   3
ENDBRANCH   1   2
BRANCH   1  23
ATOM     23  CAJ OKD d          22.233  45.274  43.360  0.00  0.00     0.004 C 
BRANCH  23  24
ATOM     24  CB  OKD d          20.729  45.643  43.301  0.00  0.00     0.036 C 
BRANCH  24  25
ATOM     25  CA  OKD d          19.866  44.950  44.380  0.00  0.00     0.187 C 
BRANCH  25  26
ATOM     26  C   OKD d          20.124  45.653  45.732  0.00  0.00     0.196 C 
ATOM     27  OXT OKD d          20.780  44.982  46.561  0.00  0.00    -0.646 OA
ATOM     28  O   OKD d          19.535  46.726  45.951  0.00  0.00    -0.646 OA
ENDBRANCH  25  26
BRANCH  25  29
ATOM     29  N   OKD d          18.511  45.228  43.904  0.00  0.00    -0.329 N 
ATOM     30  CBK OKD d          17.882  44.480  43.019  0.00  0.00     0.317 C 
ATOM     31  OAE OKD d          18.354  43.441  42.570  0.00  0.00    -0.247 OA
ATOM     32  NBB OKD d          16.627  44.818  42.721  0.00  0.00    -0.329 N 
ATOM     33  H33 OKD d          16.122  45.460  43.298  0.00  0.00     0.165 HD
ATOM     34  H32 OKD d          18.036  46.029  44.270  0.00  0.00     0.165 HD
BRANCH  32  35
ATOM     35  CBN OKD d          16.008  44.238  41.547  0.00  0.00     0.187 C 
BRANCH  35  36
ATOM     36  CBJ OKD d          16.994  44.460  40.368  0.00  0.00     0.196 C 
ATOM     37  OAH OKD d          16.850  43.686  39.398  0.00  0.00    -0.646 OA
ATOM     38  OAD OKD d          17.888  45.362  40.430  0.00  0.00    -0.646 OA
ENDBRANCH  35  36
BRANCH  35  39
ATOM     39  CAV OKD d          14.691  44.980  41.124  0.00  0.00     0.046 C 
BRANCH  39  40
ATOM     40  CAT OKD d          14.882  46.538  41.142  0.00  0.00     0.116 C 
BRANCH  40  41
ATOM     41  CBH OKD d          13.756  47.339  40.428  0.00  0.00     0.172 C 
ATOM     42  OAF OKD d          13.705  48.565  40.657  0.00  0.00    -0.648 OA
ATOM     43  OAB OKD d          12.943  46.719  39.706  0.00  0.00    -0.648 OA
ENDBRANCH  40  41
ENDBRANCH  39  40
ENDBRANCH  35  39
ENDBRANCH  32  35
ENDBRANCH  25  29
ENDBRANCH  24  25
ENDBRANCH  23  24
ENDBRANCH   1  23
TORSDOF 26
