REMARK  8 active torsions:
REMARK  status: ('A' for Active; 'I' for Inactive)
REMARK       I    between atoms: C1_2  and  N1_3 
REMARK    1  A    between atoms: C1_2  and  C2_5 
REMARK    2  A    between atoms: N1_3  and  O2_4 
REMARK    3  A    between atoms: C2_5  and  C3_6 
REMARK    4  A    between atoms: C3_6  and  C4_7 
REMARK    5  A    between atoms: C3_6  and  C8_15 
REMARK       I    between atoms: C4_7  and  N2_9 
REMARK    6  A    between atoms: N2_9  and  C5_10 
REMARK    7  A    between atoms: C5_10  and  C7_12 
REMARK    8  A    between atoms: C8_15  and  C9_16 
ROOT
ATOM      1  C3  KEL d          34.712   6.606   1.707  0.00  0.00     0.091 C 
ENDROOT
BRANCH   1   2
ATOM      2  C2  KEL d          34.628   5.167   1.187  0.00  0.00     0.119 C 
BRANCH   2   3
ATOM      3  C1  KEL d          34.988   4.281   2.351  0.00  0.00     0.241 C 
ATOM      4  O1  KEL d          34.225   4.151   3.294  0.00  0.00    -0.271 OA
ATOM      5  N1  KEL d          36.193   3.732   2.305  0.00  0.00    -0.237 N 
ATOM      6  H1  KEL d          36.777   3.828   1.499  0.00  0.00     0.197 HD
BRANCH   5   7
ATOM      7  O2  KEL d          36.565   3.101   3.290  0.00  0.00    -0.287 OA
ATOM      8  H2  KEL d          35.966   2.381   3.448  0.00  0.00     0.244 HD
ENDBRANCH   5   7
ENDBRANCH   2   3
ENDBRANCH   1   2
BRANCH   1   9
ATOM      9  C4  KEL d          34.318   7.511   0.582  0.00  0.00     0.223 C 
ATOM     10  O3  KEL d          34.982   7.513  -0.449  0.00  0.00    -0.273 OA
ATOM     11  N2  KEL d          33.231   8.268   0.757  0.00  0.00    -0.347 N 
ATOM     12  H6  KEL d          32.750   8.267   1.634  0.00  0.00     0.163 HD
BRANCH  11  13
ATOM     13  C5  KEL d          32.762   9.082  -0.328  0.00  0.00     0.181 C 
ATOM     14  C6  KEL d          31.461   9.793   0.008  0.00  0.00     0.043 C 
BRANCH  13  15
ATOM     15  C7  KEL d          33.856  10.041  -0.753  0.00  0.00     0.196 C 
ATOM     16  O4  KEL d          34.060  10.201  -1.953  0.00  0.00    -0.646 OA
ATOM     17  O5  KEL d          34.563  10.594   0.096  0.00  0.00    -0.646 OA
ENDBRANCH  13  15
ENDBRANCH  11  13
ENDBRANCH   1   9
BRANCH   1  18
ATOM     18  C8  KEL d          36.155   6.951   2.161  0.00  0.00     0.053 C 
BRANCH  18  19
ATOM     19  C9  KEL d          36.249   8.327   2.828  0.00  0.00    -0.057 A 
ATOM     20  C10 KEL d          36.131   8.411   4.207  0.00  0.00     0.007 A 
ATOM     21  C11 KEL d          36.223   9.668   4.830  0.00  0.00     0.001 A 
ATOM     22  C12 KEL d          36.405  10.844   4.122  0.00  0.00     0.000 A 
ATOM     23  C13 KEL d          36.547  10.764   2.726  0.00  0.00     0.001 A 
ATOM     24  C14 KEL d          36.472   9.515   2.089  0.00  0.00     0.007 A 
ENDBRANCH  18  19
ENDBRANCH   1  18
TORSDOF 8
