REMARK  12 active torsions:
REMARK  status: ('A' for Active; 'I' for Inactive)
REMARK    1  A    between atoms: C8_8  and  N10_10 
REMARK    2  A    between atoms: N10_10  and  N11_11 
REMARK    3  A    between atoms: C12_12  and  C14_14 
REMARK    4  A    between atoms: C17_17  and  C19_19 
REMARK    5  A    between atoms: C23_23  and  S25_25 
REMARK    6  A    between atoms: S25_25  and  N26_28 
REMARK       I    between atoms: N26_28  and  C27_29 
REMARK    7  A    between atoms: C27_29  and  C28_31 
REMARK    8  A    between atoms: C28_31  and  C29_32 
REMARK    9  A    between atoms: C29_32  and  C30_33 
REMARK   10  A    between atoms: C30_33  and  C31_34 
REMARK   11  A    between atoms: C31_34  and  C32_35 
REMARK   12  A    between atoms: C32_35  and  C33_36 
ROOT
ATOM      1  C19 H1I d          22.278  47.681   1.235  0.00  0.00    -0.001 A 
ATOM      2  C20 H1I d          22.840  46.965   0.193  0.00  0.00     0.014 A 
ATOM      3  C21 H1I d          22.033  46.113  -0.541  0.00  0.00     0.002 A 
ATOM      4  C22 H1I d          20.679  45.972  -0.258  0.00  0.00     0.025 A 
ATOM      5  C23 H1I d          20.091  46.722   0.764  0.00  0.00     0.080 A 
ATOM      6  C24 H1I d          20.913  47.577   1.510  0.00  0.00     0.039 A 
ENDROOT
BRANCH   1   7
ATOM      7  C17 H1I d          23.117  48.627   2.009  0.00  0.00     0.086 A 
ATOM      8  C16 H1I d          23.024  48.953   3.367  0.00  0.00     0.041 A 
ATOM      9  C15 H1I d          23.995  49.908   3.659  0.00  0.00     0.042 A 
ATOM     10  C14 H1I d          24.621  50.111   2.447  0.00  0.00     0.102 A 
ATOM     11  O18 H1I d          24.118  49.354   1.441  0.00  0.00    -0.308 OA
BRANCH  10  12
ATOM     12  C12 H1I d          25.695  50.954   1.934  0.00  0.00     0.084 C 
ATOM     13  N11 H1I d          26.324  50.576   0.922  0.00  0.00    -0.175 NA
ATOM     14  C13 H1I d          25.926  52.289   2.561  0.00  0.00     0.075 C 
BRANCH  13  15
ATOM     15  N10 H1I d          27.274  51.328   0.426  0.00  0.00    -0.255 N 
ATOM     16  H5  H1I d          27.501  52.253   0.818  0.00  0.00     0.191 HD
BRANCH  15  17
ATOM     17  C8  H1I d          27.928  50.820  -0.618  0.00  0.00     0.188 A 
ATOM     18  N7  H1I d          28.907  51.504  -1.227  0.00  0.00    -0.222 NA
ATOM     19  C5  H1I d          29.385  50.759  -2.261  0.00  0.00     0.076 A 
ATOM     20  C4  H1I d          28.687  49.560  -2.309  0.00  0.00     0.037 A 
ATOM     21  C6  H1I d          30.402  51.001  -3.182  0.00  0.00     0.033 A 
ATOM     22  C3  H1I d          28.995  48.622  -3.286  0.00  0.00     0.021 A 
ATOM     23  S9  H1I d          27.455  49.249  -1.181  0.00  0.00    -0.049 SA
ATOM     24  C2  H1I d          30.005  48.868  -4.208  0.00  0.00     0.002 A 
ATOM     25  C1  H1I d          30.720  50.057  -4.150  0.00  0.00     0.002 A 
ENDBRANCH  15  17
ENDBRANCH  13  15
ENDBRANCH  10  12
ENDBRANCH   1   7
BRANCH   5  26
ATOM     26  S25 H1I d          18.526  46.568   1.111  0.00  0.00     0.265 S 
ATOM     27  O25 H1I d          17.909  45.663   0.193  0.00  0.00    -0.200 OA
ATOM     28  O26 H1I d          18.396  46.023   2.433  0.00  0.00    -0.200 OA
BRANCH  26  29
ATOM     29  N26 H1I d          17.783  47.884   1.007  0.00  0.00    -0.250 N 
ATOM     30  C27 H1I d          17.884  48.825   1.939  0.00  0.00     0.231 C 
ATOM     31  O27 H1I d          18.584  48.718   2.935  0.00  0.00    -0.273 OA
ATOM     32  H15 H1I d          17.199  48.049   0.212  0.00  0.00     0.181 HD
BRANCH  30  33
ATOM     33  C28 H1I d          17.088  50.089   1.702  0.00  0.00     0.103 C 
BRANCH  33  34
ATOM     34  C29 H1I d          15.661  49.922   2.212  0.00  0.00     0.009 C 
BRANCH  34  35
ATOM     35  C30 H1I d          15.182  51.240   2.801  0.00  0.00     0.001 C 
BRANCH  35  36
ATOM     36  C31 H1I d          13.787  51.132   3.403  0.00  0.00     0.005 C 
BRANCH  36  37
ATOM     37  C32 H1I d          13.440  52.400   4.185  0.00  0.00     0.038 C 
BRANCH  37  38
ATOM     38  C33 H1I d          12.025  52.311   4.719  0.00  0.00    -0.058 A 
ATOM     39  C34 H1I d          11.049  51.629   4.004  0.00  0.00     0.007 A 
ATOM     40  C35 H1I d           9.746  51.552   4.487  0.00  0.00     0.001 A 
ATOM     41  C36 H1I d           9.419  52.158   5.698  0.00  0.00     0.000 A 
ATOM     42  C37 H1I d          10.396  52.842   6.413  0.00  0.00     0.001 A 
ATOM     43  C38 H1I d          11.694  52.917   5.923  0.00  0.00     0.007 A 
ENDBRANCH  37  38
ENDBRANCH  36  37
ENDBRANCH  35  36
ENDBRANCH  34  35
ENDBRANCH  33  34
ENDBRANCH  30  33
ENDBRANCH  26  29
ENDBRANCH   5  26
TORSDOF 12
