REMARK  2 active torsions:
REMARK  status: ('A' for Active; 'I' for Inactive)
REMARK    1  A    between atoms: CG_8  and  CA_2 
REMARK    2  A    between atoms: NM_14  and  CG_8 
ROOT
ATOM      1  CG  MOL d          -7.676 -27.518 -13.996  0.00  0.00     0.154 C 
ATOM      2  CH  MOL d          -6.563 -26.559 -14.638  0.00  0.00     0.044 C 
ATOM      3  CI  MOL d          -6.994 -25.121 -14.394  0.00  0.00     0.003 C 
ATOM      4  CJ  MOL d          -6.905 -24.774 -12.892  0.00  0.00     0.000 C 
ATOM      5  CK  MOL d          -7.730 -25.777 -12.062  0.00  0.00     0.003 C 
ATOM      6  CL  MOL d          -7.421 -27.227 -12.463  0.00  0.00     0.044 C 
ENDROOT
BRANCH   1   7
ATOM      7  NM  MOL d          -7.230 -29.010 -14.194  0.00  0.00    -0.058 N 
ATOM      8  CN  MOL d          -8.271 -30.070 -13.727  0.00  0.00     0.236 C 
ATOM      9  CO  MOL d          -7.773 -31.511 -13.933  0.00  0.00     0.028 C 
ATOM     10  CP  MOL d          -7.330 -31.792 -15.369  0.00  0.00     0.003 C 
ATOM     11  CQ  MOL d          -6.259 -30.755 -15.765  0.00  0.00     0.028 C 
ATOM     12  CR  MOL d          -6.738 -29.329 -15.615  0.00  0.00     0.236 C 
ATOM     13  H18 MOL d          -6.431 -29.127 -13.591  0.00  0.00     0.281 HD
ENDBRANCH   1   7
BRANCH   1  14
ATOM     14  CA  MOL d          -9.162 -27.240 -14.529  0.00  0.00    -0.022 A 
ATOM     15  CF  MOL d         -10.290 -27.193 -13.611  0.00  0.00     0.010 A 
ATOM     16  CE  MOL d         -11.617 -26.926 -14.051  0.00  0.00     0.001 A 
ATOM     17  CD  MOL d         -11.896 -26.687 -15.384  0.00  0.00     0.000 A 
ATOM     18  CC  MOL d         -10.791 -26.734 -16.326  0.00  0.00     0.001 A 
ATOM     19  CB  MOL d          -9.443 -27.006 -15.901  0.00  0.00     0.010 A 
ENDBRANCH   1  14
TORSDOF 2
