REMARK  17 active torsions:
REMARK  status: ('A' for Active; 'I' for Inactive)
REMARK    1  A    between atoms: C25_27  and  C17_9 
REMARK    2  A    between atoms: C20_10  and  N51_49 
REMARK    3  A    between atoms: S62_62  and  C21_11 
REMARK    4  A    between atoms: S64_64  and  C22_12 
REMARK    5  A    between atoms: C42_42  and  C26_14 
REMARK    6  A    between atoms: C27_28  and  C18_24 
REMARK    7  A    between atoms: C19_25  and  N48_48 
REMARK    8  A    between atoms: C23_26  and  S63_63 
REMARK       I    between atoms: N52_50  and  C27_28 
REMARK    9  A    between atoms: N49_51  and  C42_42 
REMARK   10  A    between atoms: C43_43  and  C44_44 
REMARK   11  A    between atoms: C46_46  and  C43_43 
REMARK   12  A    between atoms: C44_44  and  N50_52 
REMARK   13  A    between atoms: C46_46  and  C45_45 
REMARK   14  A    between atoms: C45_45  and  S62_62 
REMARK   15  A    between atoms: N51_49  and  C46_46 
REMARK   16  A    between atoms: S63_63  and  C47_47 
REMARK   17  A    between atoms: N52_50  and  S64_64 
ROOT
ATOM      1  O56 1XJ d           3.060  -4.964 -11.660  0.00  0.00    -0.200 OA
ATOM      2  O57 1XJ d           4.491  -4.760 -13.685  0.00  0.00    -0.200 OA
ATOM      3  S64 1XJ d           4.372  -4.786 -12.242  0.00  0.00     0.265 S 
ENDROOT
BRANCH   3   4
ATOM      4  C22 1XJ d           5.395  -6.057 -11.535  0.00  0.00     0.081 A 
ATOM      5  C13 1XJ d           6.466  -6.622 -12.206  0.00  0.00     0.027 A 
ATOM      6  C10 1XJ d           7.230  -7.608 -11.598  0.00  0.00     0.032 A 
ATOM      7  C20 1XJ d           6.906  -8.014 -10.321  0.00  0.00     0.050 A 
ATOM      8  C23 1XJ d           5.849  -7.397  -9.687  0.00  0.00     0.096 A 
ATOM      9  C16 1XJ d           5.059  -6.440 -10.259  0.00  0.00     0.051 A 
BRANCH   7  10
ATOM     10  N51 1XJ d           7.615  -8.986  -9.603  0.00  0.00    -0.383 N 
ATOM     11  H54 1XJ d           7.396  -9.218  -8.624  0.00  0.00     0.160 HD
BRANCH  10  12
ATOM     12  C46 1XJ d           8.683  -9.644 -10.340  0.00  0.00     0.093 C 
BRANCH  12  13
ATOM     13  C43 1XJ d           8.879 -10.958  -9.615  0.00  0.00     0.053 C 
BRANCH  13  14
ATOM     14  C44 1XJ d           9.205 -12.072 -10.568  0.00  0.00     0.237 C 
BRANCH  14  15
ATOM     15  N50 1XJ d           9.568 -13.264  -9.760  0.00  0.00    -0.067 N 
ATOM     16  C35 1XJ d          10.466 -12.952  -8.636  0.00  0.00     0.261 C 
ATOM     17  C37 1XJ d          10.590 -14.232  -7.845  0.00  0.00     0.195 C 
ATOM     18  O58 1XJ d          11.248 -15.176  -8.674  0.00  0.00    -0.388 OA
ATOM     19  C38 1XJ d          10.339 -15.548  -9.697  0.00  0.00     0.195 C 
ATOM     20  C36 1XJ d          10.107 -14.361 -10.597  0.00  0.00     0.261 C 
ATOM     21  H57 1XJ d           8.710 -13.604  -9.354  0.00  0.00     0.280 HD
ENDBRANCH  14  15
ENDBRANCH  13  14
ENDBRANCH  12  13
BRANCH  12  22
ATOM     22  C45 1XJ d           9.965  -8.822 -10.295  0.00  0.00     0.104 C 
BRANCH  22  23
ATOM     23  S62 1XJ d          10.441  -8.324  -8.602  0.00  0.00    -0.128 SA
BRANCH  23  24
ATOM     24  C21 1XJ d           9.550  -6.790  -8.461  0.00  0.00     0.000 A 
ATOM     25  C11 1XJ d           9.597  -5.860  -9.470  0.00  0.00     0.018 A 
ATOM     26  C2  1XJ d           8.873  -4.688  -9.378  0.00  0.00     0.001 A 
ATOM     27  C1  1XJ d           8.101  -4.424  -8.270  0.00  0.00     0.000 A 
ATOM     28  C3  1XJ d           8.042  -5.346  -7.251  0.00  0.00     0.001 A 
ATOM     29  C12 1XJ d           8.766  -6.520  -7.355  0.00  0.00     0.018 A 
ENDBRANCH  23  24
ENDBRANCH  22  23
ENDBRANCH  12  22
ENDBRANCH  10  12
ENDBRANCH   7  10
BRANCH   8  30
ATOM     30  S63 1XJ d           5.403  -7.935  -8.085  0.00  0.00     0.278 S 
ATOM     31  O54 1XJ d           6.515  -8.500  -7.344  0.00  0.00    -0.213 OA
ATOM     32  O55 1XJ d           4.546  -6.929  -7.477  0.00  0.00    -0.213 OA
BRANCH  30  33
ATOM     33  C47 1XJ d           4.354  -9.315  -8.512  0.00  0.00     0.503 C 
ATOM     34  F59 1XJ d           3.802  -9.859  -7.419  0.00  0.00    -0.157 F 
ATOM     35  F60 1XJ d           3.299  -8.964  -9.298  0.00  0.00    -0.157 F 
ATOM     36  F61 1XJ d           5.030 -10.305  -9.156  0.00  0.00    -0.157 F 
ENDBRANCH  30  33
ENDBRANCH   8  30
ENDBRANCH   3   4
BRANCH   3  37
ATOM     37  N52 1XJ d           5.006  -3.343 -11.654  0.00  0.00    -0.246 N 
ATOM     38  C27 1XJ d           6.325  -2.982 -11.958  0.00  0.00     0.265 C 
ATOM     39  O53 1XJ d           7.079  -3.702 -12.592  0.00  0.00    -0.267 OA
ATOM     40  H55 1XJ d           4.441  -2.743 -11.087  0.00  0.00     0.182 HD
BRANCH  38  41
ATOM     41  C18 1XJ d           6.722  -1.732 -11.307  0.00  0.00     0.033 A 
ATOM     42  C6  1XJ d           8.057  -1.392 -11.328  0.00  0.00     0.019 A 
ATOM     43  C8  1XJ d           8.451  -0.248 -10.676  0.00  0.00     0.024 A 
ATOM     44  C19 1XJ d           7.544   0.547 -10.008  0.00  0.00     0.010 A 
ATOM     45  C9  1XJ d           6.204   0.181  -9.988  0.00  0.00     0.024 A 
ATOM     46  C7  1XJ d           5.785  -0.966 -10.638  0.00  0.00     0.019 A 
BRANCH  44  47
ATOM     47  N48 1XJ d           8.022   1.701  -9.340  0.00  0.00    -0.280 NA
ATOM     48  C31 1XJ d           6.948   2.603  -8.967  0.00  0.00     0.123 C 
ATOM     49  C33 1XJ d           7.517   3.650  -8.032  0.00  0.00     0.250 C 
ATOM     50  N49 1XJ d           8.641   4.376  -8.695  0.00  0.00    -0.065 N 
ATOM     51  C34 1XJ d           9.692   3.454  -9.220  0.00  0.00     0.250 C 
ATOM     52  H56 1XJ d           8.261   4.883  -9.479  0.00  0.00     0.280 HD
ATOM     53  C32 1XJ d           9.088   2.347 -10.070  0.00  0.00     0.123 C 
BRANCH  50  54
ATOM     54  C42 1XJ d           9.238   5.369  -7.739  0.00  0.00     0.270 C 
BRANCH  54  55
ATOM     55  C26 1XJ d           8.216   6.257  -7.102  0.00  0.00    -0.047 C 
ATOM     56  C25 1XJ d           7.939   6.275  -5.786  0.00  0.00    -0.044 C 
ATOM     57  C28 1XJ d           6.874   7.122  -5.188  0.00  0.00     0.040 C 
ATOM     58  C30 1XJ d           5.967   7.693  -6.261  0.00  0.00     0.013 C 
ATOM     59  C39 1XJ d           6.789   8.278  -7.374  0.00  0.00    -0.044 C 
ATOM     60  C29 1XJ d           7.475   7.120  -8.062  0.00  0.00     0.045 C 
ATOM     61  C40 1XJ d           5.904   9.009  -8.359  0.00  0.00     0.015 C 
ATOM     62  C41 1XJ d           7.777   9.264  -6.804  0.00  0.00     0.015 C 
BRANCH  56  63
ATOM     63  C17 1XJ d           8.670   5.468  -4.808  0.00  0.00    -0.029 A 
ATOM     64  C4  1XJ d           9.991   5.759  -4.529  0.00  0.00     0.013 A 
ATOM     65  C14 1XJ d          10.684   5.017  -3.591  0.00  0.00     0.024 A 
ATOM     66  C24 1XJ d          10.025   4.009  -2.918  0.00  0.00     0.034 A 
ATOM     67  C15 1XJ d           8.701   3.719  -3.177  0.00  0.00     0.024 A 
ATOM     68 CL6  1XJ d          10.863   3.074  -1.739  0.00  0.00    -0.084 Cl
ATOM     69  C5  1XJ d           8.025   4.456  -4.125  0.00  0.00     0.013 A 
ENDBRANCH  56  63
ENDBRANCH  54  55
ENDBRANCH  50  54
ENDBRANCH  44  47
ENDBRANCH  38  41
ENDBRANCH   3  37
TORSDOF 17
