REMARK  15 active torsions:
REMARK  status: ('A' for Active; 'I' for Inactive)
REMARK    1  A    between atoms: C22_18  and  C23_1 
REMARK    2  A    between atoms: C32_13  and  C33_7 
REMARK    3  A    between atoms: N24_41  and  C32_13 
REMARK    4  A    between atoms: C4_15  and  C1_38 
REMARK    5  A    between atoms: N24_41  and  C4_15 
REMARK       I    between atoms: N1_17  and  C30_32 
REMARK    6  A    between atoms: C41_35  and  N1_17 
REMARK    7  A    between atoms: C1_38  and  C22_18 
REMARK    8  A    between atoms: C1_38  and  O6_19 
REMARK    9  A    between atoms: C30_32  and  O8_20 
REMARK       I    between atoms: C10_21  and  N12_23 
REMARK   10  A    between atoms: C1_38  and  C10_21 
REMARK   11  A    between atoms: N12_23  and  C51_24 
REMARK   12  A    between atoms: C59_30  and  O60_31 
REMARK   13  A    between atoms: C41_35  and  C42_36 
REMARK   14  A    between atoms: C45_40  and  C41_35 
REMARK       I    between atoms: N47_43  and  C45_40 
REMARK   15  A    between atoms: N24_41  and  N47_43 
ROOT
ATOM      1  C1  A1A d          12.934  24.283   5.058  0.00  0.00     0.168 C 
ENDROOT
BRANCH   1   2
ATOM      2  C4  A1A d          13.981  23.758   6.123  0.00  0.00     0.310 C 
BRANCH   2   3
ATOM      3  N24 A1A d          15.402  23.471   5.862  0.00  0.00     0.018 N 
ATOM      4  H40 A1A d          15.686  24.242   5.278  0.00  0.00     0.309 HD
BRANCH   3   5
ATOM      5  C32 A1A d          16.205  23.662   7.115  0.00  0.00     0.301 C 
BRANCH   5   6
ATOM      6  C33 A1A d          16.319  22.515   8.132  0.00  0.00    -0.030 A 
ATOM      7  C34 A1A d          17.631  22.023   8.458  0.00  0.00     0.009 A 
ATOM      8  C35 A1A d          17.796  20.957   9.399  0.00  0.00     0.001 A 
ATOM      9  C36 A1A d          16.646  20.373  10.025  0.00  0.00     0.000 A 
ATOM     10  C37 A1A d          15.332  20.857   9.708  0.00  0.00     0.001 A 
ATOM     11  C38 A1A d          15.168  21.924   8.765  0.00  0.00     0.009 A 
ENDBRANCH   5   6
ENDBRANCH   3   5
BRANCH   3  12
ATOM     12  N47 A1A d          15.744  22.361   5.062  0.00  0.00    -0.184 N 
ATOM     13  C45 A1A d          15.444  21.034   5.159  0.00  0.00     0.264 C 
ATOM     14  O46 A1A d          14.447  20.598   5.749  0.00  0.00    -0.269 OA
ATOM     15  H41 A1A d          16.315  22.590   4.274  0.00  0.00     0.197 HD
BRANCH  13  16
ATOM     16  C41 A1A d          16.446  20.070   4.442  0.00  0.00     0.183 C 
BRANCH  16  17
ATOM     17  N1  A1A d          17.053  19.178   5.424  0.00  0.00    -0.323 N 
ATOM     18  C30 A1A d          18.321  19.234   5.869  0.00  0.00     0.360 C 
ATOM     19  O3  A1A d          19.103  20.117   5.444  0.00  0.00    -0.239 OA
ATOM     20  H18 A1A d          16.472  18.457   5.802  0.00  0.00     0.165 HD
BRANCH  18  21
ATOM     21  O8  A1A d          18.687  18.293   6.779  0.00  0.00    -0.309 OA
ATOM     22  C7  A1A d          19.998  18.230   7.333  0.00  0.00     0.215 C 
ENDBRANCH  18  21
ENDBRANCH  16  17
BRANCH  16  23
ATOM     23  C42 A1A d          15.886  19.168   3.298  0.00  0.00     0.009 C 
ATOM     24  C43 A1A d          16.970  18.264   2.647  0.00  0.00     0.012 C 
ATOM     25  C44 A1A d          15.233  19.966   2.159  0.00  0.00     0.012 C 
ENDBRANCH  16  23
ENDBRANCH  13  16
ENDBRANCH   3  12
ENDBRANCH   2   3
ENDBRANCH   1   2
BRANCH   1  26
ATOM     26  C22 A1A d          12.609  23.350   3.833  0.00  0.00     0.088 C 
BRANCH  26  27
ATOM     27  C23 A1A d          11.205  23.568   3.212  0.00  0.00    -0.055 A 
ATOM     28  C24 A1A d          10.958  24.687   2.336  0.00  0.00     0.007 A 
ATOM     29  C25 A1A d           9.650  24.900   1.791  0.00  0.00     0.001 A 
ATOM     30  C26 A1A d           8.580  24.005   2.113  0.00  0.00     0.000 A 
ATOM     31  C27 A1A d           8.815  22.888   2.979  0.00  0.00     0.001 A 
ATOM     32  C28 A1A d          10.119  22.670   3.528  0.00  0.00     0.007 A 
ENDBRANCH  26  27
ENDBRANCH   1  26
BRANCH   1  33
ATOM     33  O6  A1A d          13.414  25.524   4.557  0.00  0.00    -0.378 OA
ATOM     34  H21 A1A d          13.616  26.101   5.284  0.00  0.00     0.211 HD
ENDBRANCH   1  33
BRANCH   1  35
ATOM     35  C10 A1A d          11.622  24.508   5.908  0.00  0.00     0.255 C 
ATOM     36  O11 A1A d          11.289  23.692   6.790  0.00  0.00    -0.270 OA
ATOM     37  N12 A1A d          10.869  25.599   5.688  0.00  0.00    -0.347 N 
ATOM     38  H22 A1A d          11.150  26.233   4.968  0.00  0.00     0.163 HD
BRANCH  37  39
ATOM     39  C51 A1A d           9.649  25.906   6.457  0.00  0.00     0.147 C 
ATOM     40  C52 A1A d           9.875  26.703   7.713  0.00  0.00    -0.027 A 
ATOM     41  C57 A1A d           8.764  27.547   7.931  0.00  0.00    -0.047 A 
ATOM     42  C53 A1A d          10.993  26.690   8.610  0.00  0.00     0.010 A 
ATOM     43  C56 A1A d           8.708  28.426   9.055  0.00  0.00     0.008 A 
ATOM     44  C58 A1A d           7.727  27.359   6.832  0.00  0.00     0.073 C 
ATOM     45  C55 A1A d           9.820  28.430   9.966  0.00  0.00     0.001 A 
ATOM     46  C54 A1A d          10.955  27.567   9.744  0.00  0.00     0.001 A 
ATOM     47  C59 A1A d           8.561  26.734   5.685  0.00  0.00     0.149 C 
BRANCH  47  48
ATOM     48  O60 A1A d           9.114  27.849   4.975  0.00  0.00    -0.393 OA
ATOM     49  H28 A1A d           8.418  28.315   4.527  0.00  0.00     0.210 HD
ENDBRANCH  47  48
ENDBRANCH  37  39
ENDBRANCH   1  35
TORSDOF 15
