REMARK  1 active torsions:
REMARK  status: ('A' for Active; 'I' for Inactive)
REMARK    1  A    between atoms: C5_5  and  NO1_12 
ROOT
ATOM      1  N1  MOL d          22.160  -1.357 -24.131  0.00  0.00    -0.158 NA
ATOM      2  N2  MOL d          20.826  -1.836 -24.005  0.00  0.00     0.003 NA
ATOM      3  N3  MOL d          20.699  -2.318 -22.725  0.00  0.00    -0.280 N 
ATOM      4  C4  MOL d          22.287  -2.621 -20.912  0.00  0.00     0.069 A 
ATOM      5  C5  MOL d          23.602  -2.423 -20.458  0.00  0.00     0.105 A 
ATOM      6  C6  MOL d          24.523  -1.775 -21.287  0.00  0.00     0.038 A 
ATOM      7  C7  MOL d          24.134  -1.369 -22.555  0.00  0.00     0.038 A 
ATOM      8  C3A MOL d          21.882  -2.207 -22.164  0.00  0.00     0.078 A 
ATOM      9  C7A MOL d          22.838  -1.636 -23.027  0.00  0.00     0.102 A 
ATOM     10  H1  MOL d          19.844  -2.693 -22.290  0.00  0.00     0.184 HD
ENDROOT
BRANCH   5  11
ATOM     11  NO1 MOL d          24.006  -2.779 -19.151  0.00  0.00    -0.116 N 
ATOM     12  O11 MOL d          25.088  -2.419 -18.730  0.00  0.00    -0.532 OA
ATOM     13  O21 MOL d          23.236  -3.395 -18.397  0.00  0.00    -0.532 OA
ENDBRANCH   5  11
TORSDOF 1
