REMARK  9 active torsions:
REMARK  status: ('A' for Active; 'I' for Inactive)
REMARK    1  A    between atoms: O2_1  and  C2_2 
REMARK    2  A    between atoms: C3_3  and  O3_4 
REMARK    3  A    between atoms: C4_5  and  O4_6 
REMARK    4  A    between atoms: C6_8  and  O6_9 
REMARK    5  A    between atoms: C1_11  and  SAY_12 
REMARK    6  A    between atoms: SAY_12  and  NAW_15 
REMARK    7  A    between atoms: CAQ_20  and  OAP_21 
REMARK    8  A    between atoms: OAP_21  and  SAX_22 
REMARK    9  A    between atoms: SAX_22  and  NAA_25 
ROOT
ATOM      1  SAY MOL d          -0.349   7.633  84.187  0.00  0.00     0.258 S 
ATOM      2  OAD MOL d          -1.324   8.222  85.107  0.00  0.00    -0.203 OA
ATOM      3  OAE MOL d           0.947   7.712  84.758  0.00  0.00    -0.203 OA
ENDROOT
BRANCH   1   4
ATOM      4  C1  MOL d          -0.552   8.976  83.128  0.00  0.00     0.295 C 
ATOM      5  C2  MOL d          -1.416   8.697  81.983  0.00  0.00     0.195 C 
ATOM      6  C3  MOL d          -0.933   9.169  80.716  0.00  0.00     0.181 C 
ATOM      7  C4  MOL d           0.069  10.270  80.664  0.00  0.00     0.180 C 
ATOM      8  C5  MOL d           0.975  10.501  81.892  0.00  0.00     0.178 C 
ATOM      9  C6  MOL d           1.286  11.776  82.343  0.00  0.00     0.198 C 
ATOM     10  O5  MOL d           0.708   9.653  83.090  0.00  0.00    -0.356 OA
BRANCH   5  11
ATOM     11  O2  MOL d          -1.958   7.350  82.056  0.00  0.00    -0.389 OA
ATOM     12  H   MOL d          -2.238   7.170  82.946  0.00  0.00     0.210 HD
ENDBRANCH   5  11
BRANCH   6  13
ATOM     13  O3  MOL d          -2.042   9.609  79.923  0.00  0.00    -0.390 OA
ATOM     14  H   MOL d          -2.640   8.883  79.787  0.00  0.00     0.210 HD
ENDBRANCH   6  13
BRANCH   7  15
ATOM     15  O4  MOL d          -0.304  11.402  79.955  0.00  0.00    -0.390 OA
ATOM     16  H   MOL d          -1.086  11.775  80.345  0.00  0.00     0.210 HD
ENDBRANCH   7  15
BRANCH   9  17
ATOM     17  O6  MOL d           2.426  11.375  83.070  0.00  0.00    -0.398 OA
ATOM     18  H   MOL d           2.171  10.746  83.735  0.00  0.00     0.209 HD
ENDBRANCH   9  17
ENDBRANCH   1   4
BRANCH   1  19
ATOM     19  NAW MOL d          -0.763   6.274  83.915  0.00  0.00    -0.308 N 
ATOM     20  CAN MOL d          -2.026   5.768  84.315  0.00  0.00     0.137 C 
ATOM     21  CAL MOL d          -2.117   4.486  85.141  0.00  0.00     0.054 C 
ATOM     22  CAQ MOL d          -0.895   3.964  85.512  0.00  0.00     0.147 C 
ATOM     23  CAK MOL d           0.190   4.033  84.593  0.00  0.00     0.054 C 
ATOM     24  CAM MOL d           0.253   5.295  83.772  0.00  0.00     0.137 C 
BRANCH  22  25
ATOM     25  OAP MOL d          -0.783   2.658  86.240  0.00  0.00    -0.254 OA
BRANCH  25  26
ATOM     26  SAX MOL d          -1.574   1.565  86.707  0.00  0.00     0.355 S 
ATOM     27  OAB MOL d          -1.521   1.433  87.943  0.00  0.00    -0.176 OA
ATOM     28  OAC MOL d          -2.894   1.708  86.335  0.00  0.00    -0.176 OA
BRANCH  26  29
ATOM     29  NAA MOL d          -1.066   0.363  86.030  0.00  0.00    -0.306 N 
ATOM     30  H   MOL d          -1.482  -0.528  86.213  0.00  0.00     0.171 HD
ATOM     31  H   MOL d          -0.304   0.436  85.386  0.00  0.00     0.171 HD
ENDBRANCH  26  29
ENDBRANCH  25  26
ENDBRANCH  22  25
ENDBRANCH   1  19
TORSDOF 9
