REMARK  5 active torsions:
REMARK  status: ('A' for Active; 'I' for Inactive)
REMARK    1  A    between atoms: N2_1  and  C4_2 
REMARK    2  A    between atoms: C4_2  and  C3_3 
REMARK    3  A    between atoms: C3_3  and  C2_4 
REMARK    4  A    between atoms: C2_4  and  C1_5 
REMARK    5  A    between atoms: C1_5  and  N1_6 
ROOT
ATOM      1  C3  PUT d          16.827  16.528  27.068  0.00  0.00     0.029 C 
ENDROOT
BRANCH   1   2
ATOM      2  C4  PUT d          16.992  18.023  26.733  0.00  0.00     0.229 C 
BRANCH   2   3
ATOM      3  N2  PUT d          15.688  18.630  26.491  0.00  0.00    -0.079 N 
ATOM      4  H1  PUT d          15.807  19.607  26.273  0.00  0.00     0.274 HD
ATOM      5  H2  PUT d          15.116  18.537  27.316  0.00  0.00     0.274 HD
ATOM      6  H3  PUT d          15.239  18.165  25.717  0.00  0.00     0.274 HD
ENDBRANCH   2   3
ENDBRANCH   1   2
BRANCH   1   7
ATOM      7  C2  PUT d          18.135  15.759  26.825  0.00  0.00     0.029 C 
BRANCH   7   8
ATOM      8  C1  PUT d          17.961  14.274  27.146  0.00  0.00     0.229 C 
BRANCH   8   9
ATOM      9  N1  PUT d          19.053  13.512  26.557  0.00  0.00    -0.079 N 
ATOM     10  H12 PUT d          18.934  12.534  26.771  0.00  0.00     0.274 HD
ATOM     11  H13 PUT d          19.930  13.835  26.935  0.00  0.00     0.274 HD
ATOM     12  H14 PUT d          19.051  13.640  25.557  0.00  0.00     0.274 HD
ENDBRANCH   8   9
ENDBRANCH   7   8
ENDBRANCH   1   7
TORSDOF 5
