REMARK  0 active torsions:
REMARK  status: ('A' for Active; 'I' for Inactive)
ROOT
ATOM      1  C5  5MI d           5.327   6.815  -1.077  0.00  0.00    -0.061 A 
ATOM      2  C6  5MI d           4.414   6.133  -1.870  0.00  0.00     0.009 A 
ATOM      3  C7  5MI d           4.686   4.832  -2.277  0.00  0.00     0.031 A 
ATOM      4  C8  5MI d           5.874   4.221  -1.892  0.00  0.00     0.042 A 
ATOM      5  N1  5MI d           6.382   3.017  -2.131  0.00  0.00    -0.365 N 
ATOM      6  C4  5MI d           6.514   6.200  -0.691  0.00  0.00     0.020 A 
ATOM      7  C9  5MI d           6.785   4.898  -1.102  0.00  0.00    -0.008 A 
ATOM      8  C3  5MI d           7.814   4.085  -0.892  0.00  0.00     0.030 A 
ATOM      9  C2  5MI d           7.567   2.942  -1.524  0.00  0.00     0.089 A 
ATOM     10  CAJ 5MI d           5.019   8.244  -0.631  0.00  0.00     0.048 C 
ATOM     11  H3  5MI d           5.939   2.272  -2.687  0.00  0.00     0.165 HD
ENDROOT
TORSDOF 0
