REMARK  4 active torsions:
REMARK  status: ('A' for Active; 'I' for Inactive)
REMARK       I    between atoms: C8_2  and  N2_4 
REMARK    1  A    between atoms: N2_4  and  C2_5 
REMARK    2  A    between atoms: C3_6  and  O4_7 
REMARK    3  A    between atoms: C4_8  and  O2_9 
REMARK    4  A    between atoms: C6_15  and  O3_16 
ROOT
ATOM      1  C2  GC2 d           2.562 -31.199  33.991  0.00  0.00     0.141 C 
ATOM      2  C3  GC2 d           2.275 -32.287  35.061  0.00  0.00     0.173 C 
ATOM      3  C4  GC2 d           1.375 -31.717  36.153  0.00  0.00     0.182 C 
ATOM      4  C1  GC2 d           1.497 -30.073  34.091  0.00  0.00     0.263 C 
ATOM      5  N1  GC2 d           0.134 -30.598  34.297  0.00  0.00    -0.060 N 
ATOM      6  C5  GC2 d          -0.001 -31.441  35.510  0.00  0.00     0.247 C 
ATOM      7  C9  GC2 d          -0.949 -29.593  34.284  0.00  0.00     0.238 C 
ATOM      8  C7  GC2 d          -1.889 -29.953  35.450  0.00  0.00     0.061 C 
ATOM      9  C6  GC2 d          -0.968 -30.678  36.439  0.00  0.00     0.153 C 
ATOM     10  H12 GC2 d          -0.038 -31.202  33.509  0.00  0.00     0.280 HD
ENDROOT
BRANCH   1  11
ATOM     11  N2  GC2 d           2.628 -31.932  32.701  0.00  0.00    -0.353 N 
ATOM     12  C8  GC2 d           1.592 -32.518  32.006  0.00  0.00     0.214 C 
ATOM     13  O1  GC2 d           0.398 -32.417  32.357  0.00  0.00    -0.274 OA
ATOM     14  C10 GC2 d           1.970 -33.228  30.704  0.00  0.00     0.117 C 
ATOM     15  H4  GC2 d           3.534 -32.010  32.286  0.00  0.00     0.163 HD
ENDBRANCH   1  11
BRANCH   2  16
ATOM     16  O4  GC2 d           3.498 -32.714  35.626  0.00  0.00    -0.391 OA
ATOM     17  H7  GC2 d           3.327 -33.380  36.282  0.00  0.00     0.210 HD
ENDBRANCH   2  16
BRANCH   3  18
ATOM     18  O2  GC2 d           1.172 -32.684  37.161  0.00  0.00    -0.391 OA
ATOM     19  H9  GC2 d           2.009 -32.926  37.539  0.00  0.00     0.210 HD
ENDBRANCH   3  18
BRANCH   9  20
ATOM     20  O3  GC2 d          -0.249 -29.702  37.214  0.00  0.00    -0.393 OA
ATOM     21  H19 GC2 d           0.323 -30.146  37.828  0.00  0.00     0.210 HD
ENDBRANCH   9  20
TORSDOF 4
