REMARK  4 active torsions:
REMARK  status: ('A' for Active; 'I' for Inactive)
REMARK    1  A    between atoms: O1_1  and  C2_2 
REMARK    2  A    between atoms: C2_2  and  C3_3 
REMARK    3  A    between atoms: C2_2  and  C11_11 
REMARK    4  A    between atoms: C2_2  and  C17_17 
ROOT
ATOM      1  C2  0H7 d         -10.892 -13.948   6.605  0.00  0.00     0.130 C 
ENDROOT
BRANCH   1   2
ATOM      2  O1  0H7 d         -10.210 -12.789   7.108  0.00  0.00    -0.379 OA
ATOM      3  H1  0H7 d         -10.275 -12.771   8.056  0.00  0.00     0.211 HD
ENDBRANCH   1   2
BRANCH   1   4
ATOM      4  C3  0H7 d         -10.812 -14.022   5.043  0.00  0.00     0.060 C 
ATOM      5  C4  0H7 d         -11.232 -12.686   4.402  0.00  0.00     0.243 C 
ATOM      6  N5  0H7 d         -10.106 -12.144   3.607  0.00  0.00    -0.070 N 
ATOM      7  C6  0H7 d          -8.915 -11.923   4.460  0.00  0.00     0.235 C 
ATOM      8  C10 0H7 d          -9.775 -13.031   2.468  0.00  0.00     0.235 C 
ATOM      9  H5  0H7 d         -10.392 -11.252   3.233  0.00  0.00     0.279 HD
ATOM     10  C7  0H7 d          -8.379 -13.285   4.951  0.00  0.00     0.033 C 
ATOM     11  C8  0H7 d          -9.374 -14.393   4.536  0.00  0.00    -0.002 C 
ATOM     12  C9  0H7 d          -9.399 -14.435   2.993  0.00  0.00     0.033 C 
ENDBRANCH   1   4
BRANCH   1  13
ATOM     13  C11 0H7 d         -10.308 -15.182   7.184  0.00  0.00     0.024 A 
ATOM     14  C12 0H7 d         -10.559 -16.416   6.744  0.00  0.00     0.020 A 
ATOM     15  C13 0H7 d          -9.968 -17.418   7.473  0.00  0.00     0.032 A 
ATOM     16  C14 0H7 d          -9.300 -17.001   8.538  0.00  0.00     0.075 A 
ATOM     17 CL1  0H7 d          -8.479 -18.031   9.644  0.00  0.00    -0.076 Cl
ATOM     18  S16 0H7 d          -9.354 -15.249   8.646  0.00  0.00    -0.079 SA
ENDBRANCH   1  13
BRANCH   1  19
ATOM     19  C17 0H7 d         -12.322 -13.902   7.100  0.00  0.00     0.024 A 
ATOM     20  C18 0H7 d         -12.710 -13.444   8.299  0.00  0.00     0.020 A 
ATOM     21  C19 0H7 d         -14.067 -13.523   8.547  0.00  0.00     0.032 A 
ATOM     22  C20 0H7 d         -14.777 -14.121   7.583  0.00  0.00     0.075 A 
ATOM     23 CL2  0H7 d         -16.506 -14.368   7.585  0.00  0.00    -0.076 Cl
ATOM     24  S22 0H7 d         -13.705 -14.588   6.274  0.00  0.00    -0.079 SA
ENDBRANCH   1  19
TORSDOF 4
