REMARK  7 active torsions:
REMARK  status: ('A' for Active; 'I' for Inactive)
REMARK    1  A    between atoms: C5_1  and  N5_2 
REMARK    2  A    between atoms: N5_2  and  C8_12 
REMARK    3  A    between atoms: C4_3  and  O4_4 
REMARK    4  A    between atoms: C3_5  and  O3_6 
REMARK    5  A    between atoms: C2_7  and  O2_8 
REMARK    6  A    between atoms: C1_9  and  S6_10 
REMARK    7  A    between atoms: C8_12  and  C9_13 
ROOT
ATOM      1  C5  MOL d          31.302  66.195   9.063  0.00  0.00     0.233 C 
ATOM      2  C4  MOL d          32.786  66.578   9.079  0.00  0.00     0.181 C 
ATOM      3  C3  MOL d          33.152  67.077   7.694  0.00  0.00     0.178 C 
ATOM      4  C2  MOL d          31.785  67.373   7.069  0.00  0.00     0.165 C 
ATOM      5  C1  MOL d          30.932  66.231   7.590  0.00  0.00     0.111 C 
ENDROOT
BRANCH   1   6
ATOM      6  N5  MOL d          31.104  64.868   9.661  0.00  0.00    -0.063 N 
ATOM      7  H2  MOL d          31.468  64.921  10.599  0.00  0.00     0.278 HD
ATOM      8  H3  MOL d          31.662  64.226   9.120  0.00  0.00     0.278 HD
BRANCH   6   9
ATOM      9  C8  MOL d          29.768  64.268   9.768  0.00  0.00     0.271 C 
BRANCH   9  10
ATOM     10  C9  MOL d          28.978  64.582  11.056  0.00  0.00    -0.033 A 
ATOM     11  C14 MOL d          28.224  65.746  11.099  0.00  0.00     0.009 A 
ATOM     12  C13 MOL d          27.515  66.023  12.282  0.00  0.00     0.001 A 
ATOM     13  C12 MOL d          27.540  65.188  13.406  0.00  0.00     0.000 A 
ATOM     14  C11 MOL d          28.312  64.004  13.353  0.00  0.00     0.001 A 
ATOM     15  C10 MOL d          29.013  63.724  12.165  0.00  0.00     0.009 A 
ENDBRANCH   9  10
ENDBRANCH   6   9
ENDBRANCH   1   6
BRANCH   2  16
ATOM     16  O4  MOL d          33.632  65.503   9.510  0.00  0.00    -0.391 OA
ATOM     17  H5  MOL d          33.528  64.764   8.921  0.00  0.00     0.210 HD
ENDBRANCH   2  16
BRANCH   5  18
ATOM     18  S6  MOL d          29.172  66.369   7.385  0.00  0.00    -0.164 SA
ATOM     19  C7  MOL d          28.530  68.032   7.624  0.00  0.00     0.090 C 
ENDBRANCH   5  18
BRANCH   3  20
ATOM     20  O3  MOL d          33.786  66.082   6.907  0.00  0.00    -0.390 OA
ATOM     21  H7  MOL d          34.585  65.801   7.337  0.00  0.00     0.210 HD
ENDBRANCH   3  20
BRANCH   4  22
ATOM     22  O2  MOL d          31.725  67.597   5.669  0.00  0.00    -0.392 OA
ATOM     23  H9  MOL d          32.044  66.827   5.212  0.00  0.00     0.210 HD
ENDBRANCH   4  22
TORSDOF 7
