REMARK  7 active torsions:
REMARK  status: ('A' for Active; 'I' for Inactive)
REMARK    1  A    between atoms: C1_2  and  C2_4 
REMARK    2  A    between atoms: C2_4  and  O2_5 
REMARK    3  A    between atoms: C2_4  and  C3_6 
REMARK    4  A    between atoms: C3_6  and  O3_7 
REMARK    5  A    between atoms: C3_6  and  C4_8 
REMARK    6  A    between atoms: C4_8  and  O4_9 
REMARK    7  A    between atoms: O4_9  and  P_10 
ROOT
ATOM      1  C3  DEZ d          26.545  -9.250  15.101  0.00  0.00     0.181 C 
ENDROOT
BRANCH   1   2
ATOM      2  C2  DEZ d          26.425  -8.184  14.011  0.00  0.00     0.249 C 
BRANCH   2   3
ATOM      3  C1  DEZ d          25.034  -7.612  14.002  0.00  0.00     0.205 C 
ATOM      4  OH2 DEZ d          24.107  -8.305  13.531  0.00  0.00    -0.646 OA
ATOM      5  OH1 DEZ d          24.849  -6.465  14.467  0.00  0.00    -0.646 OA
ENDBRANCH   2   3
BRANCH   2   6
ATOM      6  O2  DEZ d          26.717  -8.752  12.740  0.00  0.00    -0.382 OA
ATOM      7  H2  DEZ d          26.093  -9.443  12.552  0.00  0.00     0.210 HD
ENDBRANCH   2   6
ENDBRANCH   1   2
BRANCH   1   8
ATOM      8  O3  DEZ d          26.388  -8.639  16.376  0.00  0.00    -0.390 OA
ATOM      9  H4  DEZ d          26.462  -9.300  17.054  0.00  0.00     0.210 HD
ENDBRANCH   1   8
BRANCH   1  10
ATOM     10  C4  DEZ d          27.890  -9.974  15.032  0.00  0.00     0.217 C 
BRANCH  10  11
ATOM     11  O4  DEZ d          28.086 -10.787  16.195  0.00  0.00    -0.280 OA
BRANCH  11  12
ATOM     12  P   DEZ d          29.065 -12.068  16.197  0.00  0.00     0.422 P 
ATOM     13  O1P DEZ d          30.436 -11.536  16.515  0.00  0.00    -0.617 OA
ATOM     14  O2P DEZ d          28.970 -12.638  14.807  0.00  0.00    -0.617 OA
ATOM     15  O3P DEZ d          28.478 -12.954  17.264  0.00  0.00    -0.617 OA
ENDBRANCH  11  12
ENDBRANCH  10  11
ENDBRANCH   1  10
TORSDOF 7
