REMARK  7 active torsions:
REMARK  status: ('A' for Active; 'I' for Inactive)
REMARK    1  A    between atoms: C1_1  and  C24_19 
REMARK    2  A    between atoms: C6_6  and  C2_2 
REMARK    3  A    between atoms: C11_11  and  N9_9 
REMARK    4  A    between atoms: C15_15  and  C11_11 
REMARK    5  A    between atoms: C24_19  and  C25_20 
REMARK    6  A    between atoms: C25_20  and  C26_21 
REMARK    7  A    between atoms: C25_20  and  N29_24 
ROOT
ATOM      1  C1  MP9 d           6.243  24.495  21.191  0.00  0.00     0.040 A 
ATOM      2  C2  MP9 d           6.711  24.757  22.450  0.00  0.00     0.160 A 
ATOM      3  O3  MP9 d           5.963  24.125  23.392  0.00  0.00    -0.231 OA
ATOM      4  N4  MP9 d           4.918  23.428  22.730  0.00  0.00    -0.236 N 
ATOM      5  C5  MP9 d           5.146  23.615  21.441  0.00  0.00     0.208 A 
ATOM      6  O23 MP9 d           4.441  23.042  20.457  0.00  0.00    -0.170 OA
ATOM      7  H1  MP9 d           4.172  22.909  23.148  0.00  0.00     0.197 HD
ENDROOT
BRANCH   2   8
ATOM      8  C6  MP9 d           7.836  25.556  22.901  0.00  0.00     0.224 A 
ATOM      9  N7  MP9 d           8.130  25.859  24.186  0.00  0.00    -0.134 NA
ATOM     10  N8  MP9 d           9.223  26.597  24.130  0.00  0.00     0.025 NA
ATOM     11  N9  MP9 d           9.550  26.716  22.853  0.00  0.00    -0.187 N 
ATOM     12  N10 MP9 d           8.722  26.088  22.052  0.00  0.00    -0.134 NA
BRANCH  11  13
ATOM     13  C11 MP9 d          10.724  27.472  22.369  0.00  0.00     0.208 C 
BRANCH  13  14
ATOM     14  C15 MP9 d          11.447  28.236  23.455  0.00  0.00    -0.037 A 
ATOM     15  C14 MP9 d          11.188  29.620  23.648  0.00  0.00     0.009 A 
ATOM     16  C13 MP9 d          11.871  30.341  24.669  0.00  0.00     0.001 A 
ATOM     17  C12 MP9 d          12.820  29.679  25.503  0.00  0.00     0.000 A 
ATOM     18  C17 MP9 d          13.083  28.293  25.312  0.00  0.00     0.001 A 
ATOM     19  C16 MP9 d          12.395  27.572  24.290  0.00  0.00     0.009 A 
ENDBRANCH  13  14
ENDBRANCH  11  13
ENDBRANCH   2   8
BRANCH   1  20
ATOM     20  C24 MP9 d           6.741  24.969  19.858  0.00  0.00     0.090 C 
BRANCH  20  21
ATOM     21  C25 MP9 d           7.601  23.945  19.099  0.00  0.00     0.287 C 
BRANCH  21  22
ATOM     22  C26 MP9 d           7.241  23.881  17.574  0.00  0.00     0.204 C 
ATOM     23  O27 MP9 d           8.198  24.033  16.772  0.00  0.00    -0.646 OA
ATOM     24  O28 MP9 d           6.033  23.697  17.311  0.00  0.00    -0.646 OA
ENDBRANCH  21  22
BRANCH  21  25
ATOM     25  N29 MP9 d           9.081  24.276  19.225  0.00  0.00    -0.065 N 
ATOM     26  H12 MP9 d           9.622  23.592  18.720  0.00  0.00     0.275 HD
ATOM     27  H13 MP9 d           9.347  24.264  20.197  0.00  0.00     0.275 HD
ATOM     28  H14 MP9 d           9.254  25.192  18.841  0.00  0.00     0.275 HD
ENDBRANCH  21  25
ENDBRANCH  20  21
ENDBRANCH   1  20
TORSDOF 7
