REMARK  6 active torsions:
REMARK  status: ('A' for Active; 'I' for Inactive)
REMARK    1  A    between atoms: P_1  and  O5_5 
REMARK    2  A    between atoms: O5_5  and  C5_6 
REMARK    3  A    between atoms: C5_6  and  C4_7 
REMARK    4  A    between atoms: C3_9  and  O3_10 
REMARK    5  A    between atoms: C2_11  and  O2_12 
REMARK    6  A    between atoms: C1_13  and  N9_14 
ROOT
ATOM      1  C4  AMP d          38.104   5.572  16.211  0.00  0.00     0.180 C 
ATOM      2  O4  AMP d          37.574   5.431  17.540  0.00  0.00    -0.353 OA
ATOM      3  C3  AMP d          39.266   4.579  16.095  0.00  0.00     0.182 C 
ATOM      4  C2  AMP d          39.257   3.788  17.397  0.00  0.00     0.198 C 
ATOM      5  C1  AMP d          38.533   4.734  18.347  0.00  0.00     0.262 C 
ENDROOT
BRANCH   5   6
ATOM      6  N9  AMP d          37.897   4.044  19.501  0.00  0.00    -0.294 N 
ATOM      7  C8  AMP d          38.149   2.782  19.934  0.00  0.00     0.214 A 
ATOM      8  N7  AMP d          37.405   2.475  21.010  0.00  0.00    -0.236 NA
ATOM      9  C5  AMP d          36.671   3.559  21.282  0.00  0.00     0.149 A 
ATOM     10  C6  AMP d          35.680   3.893  22.295  0.00  0.00     0.155 A 
ATOM     11  C4  AMP d          36.990   4.593  20.293  0.00  0.00     0.167 A 
ATOM     12  N6  AMP d          35.373   2.946  23.229  0.00  0.00    -0.382 N 
ATOM     13  N1  AMP d          35.125   5.149  22.245  0.00  0.00    -0.222 NA
ATOM     14  H10 AMP d          34.676   3.150  23.959  0.00  0.00     0.157 HD
ATOM     15  H11 AMP d          35.838   2.027  23.203  0.00  0.00     0.157 HD
ATOM     16  C2  AMP d          35.460   6.058  21.307  0.00  0.00     0.237 A 
ATOM     17  N3  AMP d          36.369   5.807  20.338  0.00  0.00    -0.222 NA
ENDBRANCH   5   6
BRANCH   4  18
ATOM     18  O2  AMP d          40.589   3.481  17.843  0.00  0.00    -0.388 OA
ATOM     19  H7  AMP d          41.068   4.289  17.987  0.00  0.00     0.210 HD
ENDBRANCH   4  18
BRANCH   1  20
ATOM     20  C5  AMP d          37.018   5.273  15.193  0.00  0.00     0.217 C 
BRANCH  20  21
ATOM     21  O5  AMP d          37.079   3.879  14.908  0.00  0.00    -0.280 OA
BRANCH  21  22
ATOM     22  P   AMP d          36.564   3.277  13.517  0.00  0.00     0.422 P 
ATOM     23  O1P AMP d          35.057   3.401  13.643  0.00  0.00    -0.617 OA
ATOM     24  O2P AMP d          37.220   4.152  12.481  0.00  0.00    -0.617 OA
ATOM     25  O3P AMP d          37.124   1.871  13.603  0.00  0.00    -0.617 OA
ENDBRANCH  21  22
ENDBRANCH  20  21
ENDBRANCH   1  20
BRANCH   3  26
ATOM     26  O3  AMP d          40.509   5.276  15.932  0.00  0.00    -0.390 OA
ATOM     27  H5  AMP d          41.217   4.646  15.862  0.00  0.00     0.210 HD
ENDBRANCH   3  26
TORSDOF 6
