REMARK  3 active torsions:
REMARK  status: ('A' for Active; 'I' for Inactive)
REMARK    1  A    between atoms: P_1  and  O1P_2 
REMARK    2  A    between atoms: O1P_2  and  C2_6 
REMARK    3  A    between atoms: C2_6  and  C1_7 
ROOT
ATOM      1  O1P PGA d          11.778  14.328  15.645  0.00  0.00    -0.272 OA
ENDROOT
BRANCH   1   2
ATOM      2  P   PGA d          12.065  15.896  15.453  0.00  0.00     0.422 P 
ATOM      3  O2P PGA d          13.149  15.900  14.370  0.00  0.00    -0.617 OA
ATOM      4  O3P PGA d          10.741  16.464  15.034  0.00  0.00    -0.617 OA
ATOM      5  O4P PGA d          12.507  16.549  16.724  0.00  0.00    -0.617 OA
ENDBRANCH   1   2
BRANCH   1   6
ATOM      6  C2  PGA d          12.866  13.414  15.781  0.00  0.00     0.295 C 
BRANCH   6   7
ATOM      7  C1  PGA d          12.325  11.985  15.868  0.00  0.00     0.198 C 
ATOM      8  O1  PGA d          12.715  11.049  15.123  0.00  0.00    -0.646 OA
ATOM      9  O2  PGA d          11.437  11.763  16.695  0.00  0.00    -0.646 OA
ENDBRANCH   6   7
ENDBRANCH   1   6
TORSDOF 3
