REMARK  2 active torsions:
REMARK  status: ('A' for Active; 'I' for Inactive)
REMARK    1  A    between atoms: C4_3  and  N2_12 
REMARK    2  A    between atoms: C10_8  and  N5_16 
ROOT
ATOM      1  N1  MOL d         106.370  18.011  18.127  0.00  0.00    -0.188 N 
ATOM      2  N3  MOL d         108.374  18.675  18.869  0.00  0.00    -0.063 NA
ATOM      3  C4  MOL d         107.547  18.519  17.811  0.00  0.00     0.701 A 
ATOM      4  C6  MOL d         107.675  18.256  19.983  0.00  0.00     0.104 A 
ATOM      5  C7  MOL d         107.962  18.258  21.332  0.00  0.00     0.054 A 
ATOM      6  C8  MOL d         106.997  17.867  22.250  0.00  0.00     0.062 A 
ATOM      7  C10 MOL d         104.942  17.270  23.990  0.00  0.00     0.679 A 
ATOM      8  C1  MOL d         105.742  17.426  21.800  0.00  0.00     0.067 A 
ATOM      9  C2  MOL d         105.466  17.396  20.423  0.00  0.00     0.063 A 
ATOM     10  C3  MOL d         106.431  17.837  19.512  0.00  0.00     0.081 A 
ATOM     11  C9  MOL d         107.226  18.005  23.694  0.00  0.00     0.272 A 
ATOM     12  O1  MOL d         108.296  18.348  24.186  0.00  0.00    -0.267 OA
ATOM     13  N4  MOL d         106.144  17.699  24.481  0.00  0.00    -0.156 N 
ATOM     14  N6  MOL d         104.715  17.106  22.688  0.00  0.00    -0.191 N 
ATOM     15  H   MOL d         105.585  17.793  17.496  0.00  0.00     0.184 HD
ATOM     16  H   MOL d         106.240  17.795  25.472  0.00  0.00     0.187 HD
ATOM     17  H   MOL d         103.809  16.754  22.347  0.00  0.00     0.184 HD
ENDROOT
BRANCH   3  18
ATOM     18  N2  MOL d         107.936  18.904  16.596  0.00  0.00    -0.229 N 
ATOM     19  C5  MOL d         107.111  18.789  15.408  0.00  0.00     0.165 C 
ATOM     20  H   MOL d         108.878  19.307  16.494  0.00  0.00     0.177 HD
ENDBRANCH   3  18
BRANCH   7  21
ATOM     21  N5  MOL d         103.960  17.064  24.872  0.00  0.00    -0.234 N 
ATOM     22  H   MOL d         103.037  16.741  24.549  0.00  0.00     0.174 HD
ATOM     23  H   MOL d         104.126  17.229  25.875  0.00  0.00     0.174 HD
ENDBRANCH   7  21
TORSDOF 2
