REMARK  5 active torsions:
REMARK  status: ('A' for Active; 'I' for Inactive)
REMARK    1  A    between atoms: C1_1  and  O1_12 
REMARK    2  A    between atoms: C2_2  and  O2_7 
REMARK    3  A    between atoms: C3_3  and  O3_8 
REMARK    4  A    between atoms: C4_4  and  O4_9 
REMARK    5  A    between atoms: C5_5  and  C6_6 
ROOT
ATOM      1  C1  BDP d         -62.820  16.197   6.149  0.00  0.00     0.289 C 
ATOM      2  C2  BDP d         -64.220  15.649   5.910  0.00  0.00     0.204 C 
ATOM      3  C3  BDP d         -64.570  14.736   7.074  0.00  0.00     0.183 C 
ATOM      4  C4  BDP d         -63.523  13.630   7.162  0.00  0.00     0.189 C 
ATOM      5  C5  BDP d         -62.109  14.214   7.156  0.00  0.00     0.256 C 
ATOM      6  O5  BDP d         -61.936  15.102   6.066  0.00  0.00    -0.340 OA
ENDROOT
BRANCH   5   7
ATOM      7  C6  BDP d         -61.085  13.086   7.059  0.00  0.00     0.206 C 
ATOM      8  O6A BDP d         -60.246  13.133   6.145  0.00  0.00    -0.646 OA
ATOM      9  O6B BDP d         -61.134  12.164   7.903  0.00  0.00    -0.646 OA
ENDBRANCH   5   7
BRANCH   4  10
ATOM     10  O4  BDP d         -63.690  12.891   8.354  0.00  0.00    -0.390 OA
ATOM     11  H8  BDP d         -63.047  12.192   8.385  0.00  0.00     0.210 HD
ENDBRANCH   4  10
BRANCH   3  12
ATOM     12  O3  BDP d         -65.866  14.215   6.874  0.00  0.00    -0.390 OA
ATOM     13  H7  BDP d         -66.489  14.930   6.824  0.00  0.00     0.210 HD
ENDBRANCH   3  12
BRANCH   1  14
ATOM     14  O1  BDP d         -62.494  17.128   5.150  0.00  0.00    -0.368 OA
ATOM     15  H9  BDP d         -63.088  17.868   5.202  0.00  0.00     0.212 HD
ENDBRANCH   1  14
BRANCH   2  16
ATOM     16  O2  BDP d         -65.171  16.681   5.809  0.00  0.00    -0.388 OA
ATOM     17  H6  BDP d         -66.031  16.304   5.665  0.00  0.00     0.210 HD
ENDBRANCH   2  16
TORSDOF 5
