REMARK  5 active torsions:
REMARK  status: ('A' for Active; 'I' for Inactive)
REMARK    1  A    between atoms: N1_3  and  C14_17 
REMARK    2  A    between atoms: N2_8  and  C8_10 
REMARK    3  A    between atoms: C14_17  and  C15_18 
REMARK    4  A    between atoms: C17_20  and  O1_24 
REMARK    5  A    between atoms: O1_24  and  C21_25 
ROOT
ATOM      1  C1  MOL d          22.388  34.637  42.468  0.00  0.00     0.061 C 
ATOM      2  C2  MOL d          23.407  34.927  41.378  0.00  0.00     0.238 C 
ATOM      3  N1  MOL d          23.174  36.252  40.711  0.00  0.00    -0.063 N 
ATOM      4  C3  MOL d          22.903  37.419  41.637  0.00  0.00     0.187 C 
ATOM      5  C4  MOL d          21.842  37.096  42.680  0.00  0.00     0.066 C 
ATOM      6  C5  MOL d          22.096  35.790  43.422  0.00  0.00     0.066 C 
ATOM      7  C6  MOL d          22.483  38.637  40.860  0.00  0.00     0.040 C 
ATOM      8  N2  MOL d          23.059  35.986  44.550  0.00  0.00    -0.252 N 
ATOM      9  C7  MOL d          20.798  35.467  44.146  0.00  0.00     0.140 C 
ATOM     10  S1  MOL d          22.673  35.049  45.925  0.00  0.00     0.305 S 
ATOM     11  N3  MOL d          21.141  34.628  45.312  0.00  0.00    -0.195 NA
ATOM     12  O2  MOL d          22.577  36.033  46.989  0.00  0.00    -0.188 OA
ATOM     13  C24 MOL d          20.032  34.561  46.286  0.00  0.00     0.131 C 
ATOM     14  O3  MOL d          23.490  33.867  46.066  0.00  0.00    -0.188 OA
ATOM     15  H5  MOL d          22.310  36.134  40.206  0.00  0.00     0.280 HD
ENDROOT
BRANCH   8  16
ATOM     16  C8  MOL d          24.452  36.362  44.502  0.00  0.00     0.050 A 
ATOM     17  C9  MOL d          25.552  35.565  44.242  0.00  0.00     0.030 A 
ATOM     18  C10 MOL d          26.822  36.119  44.272  0.00  0.00     0.005 A 
ATOM     19  C11 MOL d          26.997  37.461  44.586  0.00  0.00     0.042 A 
ATOM     20  C12 MOL d          25.886  38.238  44.850  0.00  0.00     0.118 A 
ATOM     21  C13 MOL d          24.626  37.694  44.810  0.00  0.00     0.072 A 
ATOM     22  F1  MOL d          25.958  39.539  45.155  0.00  0.00    -0.206 F 
ENDBRANCH   8  16
BRANCH   3  23
ATOM     23  C14 MOL d          24.210  36.528  39.648  0.00  0.00     0.274 C 
BRANCH  23  24
ATOM     24  C15 MOL d          25.625  36.652  40.116  0.00  0.00    -0.030 A 
ATOM     25  C16 MOL d          26.414  35.525  40.170  0.00  0.00     0.045 A 
ATOM     26  C17 MOL d          27.726  35.605  40.599  0.00  0.00     0.069 A 
ATOM     27  C18 MOL d          28.262  36.825  40.971  0.00  0.00     0.037 A 
ATOM     28  C19 MOL d          27.480  37.960  40.903  0.00  0.00     0.003 A 
ATOM     29  C20 MOL d          26.176  37.871  40.470  0.00  0.00     0.009 A 
BRANCH  26  30
ATOM     30  O1  MOL d          28.579  34.499  40.688  0.00  0.00    -0.347 OA
BRANCH  30  31
ATOM     31  C21 MOL d          28.244  33.389  39.869  0.00  0.00     0.120 C 
ATOM     32  C22 MOL d          28.471  33.697  38.394  0.00  0.00     0.040 C 
ATOM     33  C23 MOL d          29.174  32.263  40.308  0.00  0.00     0.040 C 
ENDBRANCH  30  31
ENDBRANCH  26  30
ENDBRANCH  23  24
ENDBRANCH   3  23
TORSDOF 5
