REMARK  12 active torsions:
REMARK  status: ('A' for Active; 'I' for Inactive)
REMARK    1  A    between atoms: O1_10  and  C1_1 
REMARK    2  A    between atoms: C2_2  and  N2_9 
REMARK    3  A    between atoms: C3_3  and  O3_11 
REMARK    4  A    between atoms: C4_4  and  O4_12 
REMARK    5  A    between atoms: C5_5  and  C6_6 
REMARK    6  A    between atoms: C6_6  and  O6_14 
REMARK       I    between atoms: N2_9  and  C7_7 
REMARK    7  A    between atoms: C3_18  and  O1_10 
REMARK    8  A    between atoms: C1_16  and  O1_23 
REMARK    9  A    between atoms: C2_17  and  O2_24 
REMARK   10  A    between atoms: C4_19  and  O4_25 
REMARK   11  A    between atoms: C5_20  and  C6_21 
REMARK   12  A    between atoms: C6_21  and  O6_27 
ROOT
ATOM      1  C1  NAG d         -12.169  29.413   5.473  0.00  0.00     0.286 C 
ATOM      2  C2  NAG d         -12.752  28.996   4.209  0.00  0.00     0.170 C 
ATOM      3  C3  NAG d         -13.763  28.017   4.344  0.00  0.00     0.177 C 
ATOM      4  C4  NAG d         -13.428  26.879   5.179  0.00  0.00     0.180 C 
ATOM      5  C5  NAG d         -12.889  27.332   6.515  0.00  0.00     0.179 C 
ATOM      6  O5  NAG d         -11.764  28.237   6.152  0.00  0.00    -0.349 OA
ENDROOT
BRANCH   1   7
ATOM      7  O1  NAG d         -11.059  30.219   5.218  0.00  0.00    -0.348 OA
BRANCH   7   8
ATOM      8  C3  NAG d         -10.858  31.198   6.306  0.00  0.00     0.189 C 
ATOM      9  C2  NAG d         -10.182  32.388   5.833  0.00  0.00     0.205 C 
ATOM     10  C1  NAG d          -9.602  33.229   6.874  0.00  0.00     0.290 C 
ATOM     11  O5  NAG d          -9.055  32.473   7.938  0.00  0.00    -0.349 OA
ATOM     12  C5  NAG d          -9.993  31.475   8.529  0.00  0.00     0.179 C 
ATOM     13  C4  NAG d         -10.262  30.510   7.396  0.00  0.00     0.181 C 
BRANCH   9  14
ATOM     14  O2  NAG d         -11.191  33.231   5.277  0.00  0.00    -0.388 OA
ATOM     15  H25 NAG d         -10.791  34.029   4.952  0.00  0.00     0.210 HD
ENDBRANCH   9  14
BRANCH  10  16
ATOM     16  O1  NAG d          -8.657  34.078   6.345  0.00  0.00    -0.363 OA
ATOM     17  C7  NAG d          -7.346  33.695   6.233  0.00  0.00     0.204 C 
ENDBRANCH  10  16
BRANCH  12  18
ATOM     18  C6  NAG d          -9.380  30.838   9.581  0.00  0.00     0.198 C 
BRANCH  18  19
ATOM     19  O6  NAG d          -8.193  30.226   9.307  0.00  0.00    -0.398 OA
ATOM     20  H27 NAG d          -8.327  29.562   8.641  0.00  0.00     0.209 HD
ENDBRANCH  18  19
ENDBRANCH  12  18
BRANCH  13  21
ATOM     21  O4  NAG d          -9.016  30.203   6.911  0.00  0.00    -0.390 OA
ATOM     22  H26 NAG d          -8.498  29.807   7.601  0.00  0.00     0.210 HD
ENDBRANCH  13  21
ENDBRANCH   7   8
ENDBRANCH   1   7
BRANCH   2  23
ATOM     23  N2  NAG d         -13.337  30.230   3.600  0.00  0.00    -0.349 N 
ATOM     24  C7  NAG d         -12.613  30.826   2.541  0.00  0.00     0.214 C 
ATOM     25  C8  NAG d         -11.374  30.262   2.052  0.00  0.00     0.117 C 
ATOM     26  O7  NAG d         -13.044  31.825   2.030  0.00  0.00    -0.274 OA
ATOM     27  H11 NAG d         -14.200  30.616   3.926  0.00  0.00     0.163 HD
ENDBRANCH   2  23
BRANCH   3  28
ATOM     28  O3  NAG d         -14.062  27.554   3.015  0.00  0.00    -0.391 OA
ATOM     29  H12 NAG d         -14.797  26.954   3.048  0.00  0.00     0.210 HD
ENDBRANCH   3  28
BRANCH   5  30
ATOM     30  C6  NAG d         -12.351  26.248   7.172  0.00  0.00     0.198 C 
BRANCH  30  31
ATOM     31  O6  NAG d         -11.051  26.004   6.836  0.00  0.00    -0.398 OA
ATOM     32  H14 NAG d         -10.521  26.762   7.053  0.00  0.00     0.209 HD
ENDBRANCH  30  31
ENDBRANCH   5  30
BRANCH   4  33
ATOM     33  O4  NAG d         -14.541  26.104   5.405  0.00  0.00    -0.390 OA
ATOM     34  H13 NAG d         -14.894  25.809   4.574  0.00  0.00     0.210 HD
ENDBRANCH   4  33
TORSDOF 12
