REMARK  24 active torsions:
REMARK  status: ('A' for Active; 'I' for Inactive)
REMARK       I    between atoms: C37_2  and  N5_3 
REMARK    1  A    between atoms: C37_2  and  C36_12 
REMARK    2  A    between atoms: N5_3  and  C38_4 
REMARK    3  A    between atoms: C38_4  and  C40_5 
REMARK    4  A    between atoms: C31_14  and  N4_15 
REMARK    5  A    between atoms: N4_15  and  S_16 
REMARK    6  A    between atoms: C29_23  and  C28_24 
REMARK       I    between atoms: C28_24  and  N3_26 
REMARK    7  A    between atoms: N3_26  and  C20_27 
REMARK    8  A    between atoms: C20_27  and  C21_28 
REMARK    9  A    between atoms: C20_27  and  C19_38 
REMARK   10  A    between atoms: C21_28  and  O6_29 
REMARK   11  A    between atoms: O6_29  and  C22_30 
REMARK   12  A    between atoms: C19_38  and  O5_39 
REMARK   13  A    between atoms: C19_38  and  C18_40 
REMARK   14  A    between atoms: C18_40  and  C14_41 
REMARK   15  A    between atoms: C14_41  and  O3_42 
REMARK   16  A    between atoms: C14_41  and  C13_47 
REMARK   17  A    between atoms: O3_42  and  C15_43 
REMARK   18  A    between atoms: C15_43  and  C16_44 
REMARK   19  A    between atoms: C16_44  and  O4_45 
REMARK       I    between atoms: C13_47  and  N2_49 
REMARK   20  A    between atoms: N2_49  and  C9_50 
REMARK   21  A    between atoms: C9_50  and  C10_51 
REMARK   22  A    between atoms: C9_50  and  C1_54 
REMARK       I    between atoms: C1_54  and  N1_56 
REMARK   23  A    between atoms: N1_56  and  C2_57 
REMARK   24  A    between atoms: C2_57  and  C3_58 
ROOT
ATOM      1  C20 MV7 d          -2.386  17.420  34.016  0.00  0.00     0.137 C 
ENDROOT
BRANCH   1   2
ATOM      2  N3  MV7 d          -1.305  17.381  33.033  0.00  0.00    -0.348 N 
ATOM      3  C28 MV7 d          -0.019  17.577  33.297  0.00  0.00     0.252 C 
ATOM      4  O7  MV7 d           0.403  17.781  34.423  0.00  0.00    -0.268 OA
ATOM      5  H20 MV7 d          -1.555  17.191  32.084  0.00  0.00     0.163 HD
BRANCH   3   6
ATOM      6  C29 MV7 d           0.940  17.588  32.158  0.00  0.00     0.035 A 
ATOM      7  C30 MV7 d           2.173  16.939  32.218  0.00  0.00     0.047 A 
ATOM      8  C31 MV7 d           3.066  16.971  31.138  0.00  0.00     0.046 A 
ATOM      9  C34 MV7 d           2.716  17.742  30.025  0.00  0.00     0.047 A 
ATOM     10  C36 MV7 d           1.492  18.393  29.988  0.00  0.00     0.035 A 
ATOM     11  C35 MV7 d           0.597  18.346  31.050  0.00  0.00     0.034 A 
BRANCH   8  12
ATOM     12  N4  MV7 d           4.293  16.273  31.240  0.00  0.00    -0.281 N 
ATOM     13  C32 MV7 d           4.918  16.195  32.587  0.00  0.00     0.169 C 
BRANCH  12  14
ATOM     14  S   MV7 d           5.078  15.617  30.029  0.00  0.00     0.228 S 
ATOM     15  O9  MV7 d           5.833  14.530  30.476  0.00  0.00    -0.206 OA
ATOM     16  C33 MV7 d           6.280  16.689  29.570  0.00  0.00     0.186 C 
ATOM     17  O8  MV7 d           4.205  15.309  28.969  0.00  0.00    -0.206 OA
ENDBRANCH  12  14
ENDBRANCH   8  12
BRANCH  10  18
ATOM     18  C37 MV7 d           1.105  19.148  28.764  0.00  0.00     0.252 C 
ATOM     19  O10 MV7 d           1.964  19.666  28.117  0.00  0.00    -0.268 OA
ATOM     20  N5  MV7 d          -0.170  19.188  28.405  0.00  0.00    -0.349 N 
ATOM     21  H1  MV7 d          -0.835  18.741  29.004  0.00  0.00     0.163 HD
BRANCH  20  22
ATOM     22  C38 MV7 d          -0.673  19.834  27.204  0.00  0.00     0.114 C 
ATOM     23  C39 MV7 d          -1.941  20.598  27.596  0.00  0.00     0.037 C 
BRANCH  22  24
ATOM     24  C40 MV7 d          -0.930  18.771  26.154  0.00  0.00    -0.036 A 
ATOM     25  C43 MV7 d          -0.257  18.816  24.922  0.00  0.00     0.009 A 
ATOM     26  C44 MV7 d          -0.466  17.855  23.906  0.00  0.00     0.001 A 
ATOM     27  C45 MV7 d          -1.342  16.800  24.148  0.00  0.00     0.000 A 
ATOM     28  C42 MV7 d          -2.000  16.716  25.386  0.00  0.00     0.001 A 
ATOM     29  C41 MV7 d          -1.784  17.679  26.376  0.00  0.00     0.009 A 
ENDBRANCH  22  24
ENDBRANCH  20  22
ENDBRANCH  10  18
ENDBRANCH   3   6
ENDBRANCH   1   2
BRANCH   1  30
ATOM     30  C21 MV7 d          -3.549  18.053  33.228  0.00  0.00     0.203 C 
BRANCH  30  31
ATOM     31  O6  MV7 d          -3.269  19.166  32.394  0.00  0.00    -0.349 OA
BRANCH  31  32
ATOM     32  C22 MV7 d          -2.418  20.224  32.650  0.00  0.00     0.074 A 
ATOM     33  C27 MV7 d          -1.985  20.961  31.556  0.00  0.00     0.079 A 
ATOM     34  C26 MV7 d          -1.119  22.027  31.750  0.00  0.00     0.121 A 
ATOM     35  F2  MV7 d          -0.727  22.709  30.683  0.00  0.00    -0.206 F 
ATOM     36  C25 MV7 d          -0.653  22.390  33.020  0.00  0.00     0.084 A 
ATOM     37  C24 MV7 d          -1.092  21.664  34.102  0.00  0.00     0.121 A 
ATOM     38  F1  MV7 d          -0.659  21.985  35.326  0.00  0.00    -0.206 F 
ATOM     39  C23 MV7 d          -1.984  20.592  33.936  0.00  0.00     0.079 A 
ENDBRANCH  31  32
ENDBRANCH  30  31
ENDBRANCH   1  30
BRANCH   1  40
ATOM     40  C19 MV7 d          -2.815  16.014  34.445  0.00  0.00     0.146 C 
BRANCH  40  41
ATOM     41  O5  MV7 d          -3.292  15.279  33.312  0.00  0.00    -0.393 OA
ATOM     42  H28 MV7 d          -3.555  14.409  33.588  0.00  0.00     0.210 HD
ENDBRANCH  40  41
BRANCH  40  43
ATOM     43  C18 MV7 d          -1.623  15.293  35.019  0.00  0.00     0.075 C 
BRANCH  43  44
ATOM     44  C14 MV7 d          -2.050  14.369  36.130  0.00  0.00     0.215 C 
BRANCH  44  45
ATOM     45  O3  MV7 d          -0.958  13.460  36.187  0.00  0.00    -0.374 OA
BRANCH  45  46
ATOM     46  C15 MV7 d          -1.274  12.226  36.818  0.00  0.00     0.195 C 
BRANCH  46  47
ATOM     47  C16 MV7 d           0.013  11.412  36.738  0.00  0.00     0.193 C 
BRANCH  47  48
ATOM     48  O4  MV7 d           0.325  10.984  38.043  0.00  0.00    -0.394 OA
ATOM     49  C17 MV7 d           0.704  12.056  38.940  0.00  0.00     0.201 C 
ENDBRANCH  47  48
ENDBRANCH  46  47
ENDBRANCH  45  46
ENDBRANCH  44  45
BRANCH  44  50
ATOM     50  C13 MV7 d          -2.149  15.096  37.449  0.00  0.00     0.247 C 
ATOM     51  O2  MV7 d          -1.178  15.696  37.840  0.00  0.00    -0.271 OA
ATOM     52  N2  MV7 d          -3.293  15.050  38.127  0.00  0.00    -0.345 N 
ATOM     53  H39 MV7 d          -4.093  14.583  37.751  0.00  0.00     0.163 HD
BRANCH  52  54
ATOM     54  C9  MV7 d          -3.351  15.693  39.423  0.00  0.00     0.180 C 
BRANCH  54  55
ATOM     55  C10 MV7 d          -4.660  15.505  40.217  0.00  0.00     0.009 C 
ATOM     56  C12 MV7 d          -5.354  16.833  40.488  0.00  0.00     0.012 C 
ATOM     57  C11 MV7 d          -5.584  14.333  39.903  0.00  0.00     0.012 C 
ENDBRANCH  54  55
BRANCH  54  58
ATOM     58  C1  MV7 d          -2.435  14.971  40.368  0.00  0.00     0.241 C 
ATOM     59  O1  MV7 d          -2.300  13.748  40.292  0.00  0.00    -0.271 OA
ATOM     60  N1  MV7 d          -1.832  15.711  41.293  0.00  0.00    -0.355 N 
ATOM     61  H48 MV7 d          -2.010  16.695  41.274  0.00  0.00     0.162 HD
BRANCH  60  62
ATOM     62  C2  MV7 d          -0.933  15.219  42.335  0.00  0.00     0.161 C 
BRANCH  62  63
ATOM     63  C3  MV7 d           0.355  15.966  42.218  0.00  0.00    -0.041 A 
ATOM     64  C4  MV7 d           1.196  15.703  41.149  0.00  0.00     0.009 A 
ATOM     65  C5  MV7 d           2.396  16.393  41.046  0.00  0.00     0.001 A 
ATOM     66  C6  MV7 d           2.733  17.352  42.016  0.00  0.00     0.000 A 
ATOM     67  C7  MV7 d           1.890  17.623  43.098  0.00  0.00     0.001 A 
ATOM     68  C8  MV7 d           0.695  16.915  43.197  0.00  0.00     0.009 A 
ENDBRANCH  62  63
ENDBRANCH  60  62
ENDBRANCH  54  58
ENDBRANCH  52  54
ENDBRANCH  44  50
ENDBRANCH  43  44
ENDBRANCH  40  43
ENDBRANCH   1  40
TORSDOF 24
