REMARK  4 active torsions:
REMARK  status: ('A' for Active; 'I' for Inactive)
REMARK    1  A    between atoms: P1_1  and  O2_5 
REMARK    2  A    between atoms: O2_5  and  C1_6 
REMARK    3  A    between atoms: C1_6  and  C2_7 
REMARK    4  A    between atoms: C2_7  and  N1_8 
ROOT
ATOM      1  C1   PC d          16.412  12.422  18.177  0.00  0.00     0.210 C 
ENDROOT
BRANCH   1   2
ATOM      2  O2   PC d          16.617  11.600  19.320  0.00  0.00    -0.281 OA
BRANCH   2   3
ATOM      3  P1   PC d          15.472  10.673  19.869  0.00  0.00     0.422 P 
ATOM      4  O1   PC d          16.003  10.098  21.177  0.00  0.00    -0.617 OA
ATOM      5  O3   PC d          15.198   9.601  18.847  0.00  0.00    -0.617 OA
ATOM      6  O4   PC d          14.274  11.563  20.104  0.00  0.00    -0.617 OA
ENDBRANCH   2   3
ENDBRANCH   1   2
BRANCH   1   7
ATOM      7  C2   PC d          17.635  13.254  17.763  0.00  0.00     0.262 C 
BRANCH   7   8
ATOM      8  N1   PC d          18.011  14.411  18.637  0.00  0.00    -0.077 N 
ATOM      9  C3   PC d          16.792  15.304  18.798  0.00  0.00     0.271 C 
ATOM     10  C4   PC d          19.169  15.054  18.035  0.00  0.00     0.271 C 
ATOM     11  C5   PC d          18.374  13.970  19.924  0.00  0.00     0.271 C 
ENDBRANCH   7   8
ENDBRANCH   1   7
TORSDOF 4
