REMARK  7 active torsions:
REMARK  status: ('A' for Active; 'I' for Inactive)
REMARK    1  A    between atoms: N_1  and  CA_2 
REMARK    2  A    between atoms: CA_2  and  C_3 
REMARK       I    between atoms: C_3  and  N_5 
REMARK    3  A    between atoms: N_5  and  CA_6 
REMARK    4  A    between atoms: CA_6  and  C_7 
REMARK    5  A    between atoms: CA_6  and  CB_9 
REMARK    6  A    between atoms: CB_9  and  CG_10 
REMARK    7  A    between atoms: CG_10  and  CD_11 
ROOT
ATOM      1  C   GLY d          13.100   6.948  10.890  0.00  0.00     0.243 C 
ATOM      2  O   GLY d          13.752   7.214   9.876  0.00  0.00    -0.272 OA
ATOM      3  N   GLY d          11.905   6.359  10.846  0.00  0.00    -0.345 N 
ATOM      4  H6  GLY d          11.393   6.237  11.696  0.00  0.00     0.163 HD
ENDROOT
BRANCH   3   5
ATOM      5  CA  GLY d          11.322   5.887   9.592  0.00  0.00     0.186 C 
BRANCH   5   6
ATOM      6  C   GLY d          10.787   7.017   8.723  0.00  0.00     0.196 C 
ATOM      7  O   GLY d          10.398   8.081   9.204  0.00  0.00    -0.646 OA
ATOM      8  OXT GLY d          10.729   6.875   7.503  0.00  0.00    -0.646 OA
ENDBRANCH   5   6
BRANCH   5   9
ATOM      9  CB  GLY d          10.221   4.854   9.849  0.00  0.00     0.046 C 
BRANCH   9  10
ATOM     10  CG  GLY d          10.700   3.618  10.587  0.00  0.00     0.116 C 
BRANCH  10  11
ATOM     11  CD  GLY d          10.464   3.693  12.097  0.00  0.00     0.172 C 
ATOM     12  OE1 GLY d          10.562   2.639  12.770  0.00  0.00    -0.648 OA
ATOM     13  OE2 GLY d          10.161   4.799  12.610  0.00  0.00    -0.648 OA
ENDBRANCH  10  11
ENDBRANCH   9  10
ENDBRANCH   5   9
ENDBRANCH   3   5
BRANCH   1  14
ATOM     14  CA  GLY d          13.640   7.279  12.275  0.00  0.00     0.332 C 
BRANCH  14  15
ATOM     15  N   GLY d          14.565   8.396  12.302  0.00  0.00    -0.071 N 
ATOM     16  H1  GLY d          14.876   8.552  13.248  0.00  0.00     0.274 HD
ATOM     17  H2  GLY d          14.102   9.224  11.960  0.00  0.00     0.274 HD
ATOM     18  H3  GLY d          15.359   8.189  11.717  0.00  0.00     0.274 HD
ENDBRANCH  14  15
ENDBRANCH   1  14
TORSDOF 7
