REMARK  4 active torsions:
REMARK  status: ('A' for Active; 'I' for Inactive)
REMARK    1  A    between atoms: O1_1  and  C6_2 
REMARK    2  A    between atoms: C6_2  and  C5_3 
REMARK    3  A    between atoms: C4_4  and  O5_5 
REMARK    4  A    between atoms: C3_6  and  O7_7 
ROOT
ATOM      1  C5  DZX d          79.048  88.896  18.390  0.00  0.00     0.071 C 
ATOM      2  C4  DZX d          78.798  89.142  19.910  0.00  0.00     0.157 C 
ATOM      3  C3  DZX d          77.450  89.800  20.303  0.00  0.00     0.177 C 
ATOM      4  C2  DZX d          76.305  89.437  19.316  0.00  0.00     0.217 C 
ATOM      5  C7  DZX d          76.110  87.914  19.254  0.00  0.00     0.038 C 
ATOM      6  C8  DZX d          76.985  87.424  18.097  0.00  0.00     0.036 C 
ATOM      7  C1  DZX d          77.715  88.690  17.624  0.00  0.00     0.195 C 
ATOM      8  N1  DZX d          76.701  89.739  17.936  0.00  0.00    -0.064 N 
ATOM      9  H15 DZX d          77.105  90.660  17.871  0.00  0.00     0.278 HD
ATOM     10  H16 DZX d          75.912  89.673  17.312  0.00  0.00     0.278 HD
ENDROOT
BRANCH   1  11
ATOM     11  C6  DZX d          80.043  87.745  18.086  0.00  0.00     0.173 C 
BRANCH  11  12
ATOM     12  O1  DZX d          80.753  88.108  16.932  0.00  0.00    -0.400 OA
ATOM     13  H1  DZX d          81.219  88.921  17.090  0.00  0.00     0.209 HD
ENDBRANCH  11  12
ENDBRANCH   1  11
BRANCH   2  14
ATOM     14  O5  DZX d          78.869  87.894  20.528  0.00  0.00    -0.392 OA
ATOM     15  H6  DZX d          78.722  87.995  21.461  0.00  0.00     0.210 HD
ENDBRANCH   2  14
BRANCH   3  16
ATOM     16  O7  DZX d          77.170  89.335  21.595  0.00  0.00    -0.391 OA
ATOM     17  H8  DZX d          77.869  89.596  22.183  0.00  0.00     0.210 HD
ENDBRANCH   3  16
TORSDOF 4
