REMARK  4 active torsions:
REMARK  status: ('A' for Active; 'I' for Inactive)
REMARK    1  A    between atoms: C_1  and  N_2 
REMARK    2  A    between atoms: S_4  and  N1_6 
REMARK    3  A    between atoms: C3_10  and  S_4 
REMARK       I    between atoms: N1_6  and  C6_13 
REMARK    4  A    between atoms: C6_13  and  C7_14 
ROOT
ATOM      1  O   RV1 d          52.036  38.663  65.212  0.00  0.00    -0.200 OA
ATOM      2  S   RV1 d          52.843  39.810  65.498  0.00  0.00     0.265 S 
ATOM      3  O1  RV1 d          53.103  40.187  66.857  0.00  0.00    -0.200 OA
ENDROOT
BRANCH   2   4
ATOM      4  N1  RV1 d          52.126  41.150  64.886  0.00  0.00    -0.249 N 
ATOM      5  C6  RV1 d          51.859  41.358  63.561  0.00  0.00     0.242 C 
ATOM      6  O2  RV1 d          52.122  40.549  62.671  0.00  0.00    -0.271 OA
ATOM      7  H4  RV1 d          51.864  41.869  65.529  0.00  0.00     0.182 HD
BRANCH   5   8
ATOM      8  C7  RV1 d          51.147  42.657  63.289  0.00  0.00     0.123 A 
ATOM      9  C8  RV1 d          50.037  42.619  62.297  0.00  0.00    -0.012 A 
ATOM     10  C9  RV1 d          51.291  43.290  61.941  0.00  0.00    -0.012 A 
ENDBRANCH   5   8
ENDBRANCH   2   4
BRANCH   2  11
ATOM     11  C3  RV1 d          54.393  39.612  64.682  0.00  0.00     0.080 A 
ATOM     12  C2  RV1 d          54.495  38.736  63.611  0.00  0.00     0.027 A 
ATOM     13  C1  RV1 d          55.717  38.564  62.988  0.00  0.00     0.030 A 
ATOM     14  C   RV1 d          56.859  39.232  63.443  0.00  0.00     0.025 A 
ATOM     15  C5  RV1 d          56.734  40.090  64.542  0.00  0.00     0.030 A 
ATOM     16  C4  RV1 d          55.515  40.268  65.171  0.00  0.00     0.027 A 
BRANCH  14  17
ATOM     17  N   RV1 d          58.066  39.055  62.828  0.00  0.00    -0.399 N 
ATOM     18  H1  RV1 d          58.144  38.421  62.020  0.00  0.00     0.156 HD
ATOM     19  H2  RV1 d          58.898  39.556  63.172  0.00  0.00     0.156 HD
ENDBRANCH  14  17
ENDBRANCH   2  11
TORSDOF 4
