REMARK  11 active torsions:
REMARK  status: ('A' for Active; 'I' for Inactive)
REMARK    1  A    between atoms: C1_1  and  O8_8 
REMARK    2  A    between atoms: C2_2  and  O9_9 
REMARK    3  A    between atoms: C3_3  and  N7_7 
REMARK    4  A    between atoms: C5_5  and  C6_6 
REMARK    5  A    between atoms: C10_10  and  C16_16 
REMARK    6  A    between atoms: C13_13  and  C15_15 
REMARK    7  A    between atoms: C16_16  and  N17_17 
REMARK       I    between atoms: N17_17  and  C18_18 
REMARK    8  A    between atoms: C18_18  and  C19_19 
REMARK    9  A    between atoms: C20_20  and  O26_26 
REMARK   10  A    between atoms: C21_21  and  O27_27 
REMARK   11  A    between atoms: C23_23  and  N25_25 
ROOT
ATOM      1  C6  OZS d         -19.822  30.271  10.765  0.00  0.00     0.005 C 
ATOM      2  C10 OZS d         -20.629  29.660   9.915  0.00  0.00    -0.009 C 
ENDROOT
BRANCH   1   3
ATOM      3  C5  OZS d         -19.666  29.752  12.153  0.00  0.00     0.178 C 
ATOM      4  C1  OZS d         -20.031  30.877  13.189  0.00  0.00     0.183 C 
ATOM      5  C2  OZS d         -18.611  31.454  13.401  0.00  0.00     0.199 C 
ATOM      6  C3  OZS d         -17.733  30.167  13.509  0.00  0.00     0.260 C 
ATOM      7  O4  OZS d         -18.284  29.389  12.428  0.00  0.00    -0.352 OA
BRANCH   4   8
ATOM      8  O8  OZS d         -20.567  30.258  14.345  0.00  0.00    -0.390 OA
ATOM      9  H6  OZS d         -20.794  30.924  14.983  0.00  0.00     0.210 HD
ENDBRANCH   4   8
BRANCH   5  10
ATOM     10  O9  OZS d         -18.543  32.257  14.586  0.00  0.00    -0.388 OA
ATOM     11  H7  OZS d         -18.851  31.751  15.328  0.00  0.00     0.210 HD
ENDBRANCH   5  10
BRANCH   6  12
ATOM     12  N7  OZS d         -16.334  30.335  13.222  0.00  0.00    -0.319 N 
ATOM     13  C11 OZS d         -15.726  31.298  12.344  0.00  0.00     0.212 A 
ATOM     14  N14 OZS d         -14.422  31.123  12.299  0.00  0.00    -0.238 NA
ATOM     15  C13 OZS d         -14.191  30.056  13.143  0.00  0.00     0.157 A 
ATOM     16  C12 OZS d         -15.343  29.554  13.734  0.00  0.00     0.131 A 
BRANCH  15  17
ATOM     17  C15 OZS d         -12.840  29.492  13.376  0.00  0.00     0.435 C 
ATOM     18  F29 OZS d         -12.030  29.473  12.311  0.00  0.00    -0.165 F 
ATOM     19  F30 OZS d         -12.091  30.130  14.286  0.00  0.00    -0.165 F 
ATOM     20  F31 OZS d         -12.759  28.162  13.592  0.00  0.00    -0.165 F 
ENDBRANCH  15  17
ENDBRANCH   6  12
ENDBRANCH   1   3
BRANCH   2  21
ATOM     21  C16 OZS d         -20.820  30.156   8.479  0.00  0.00     0.150 C 
BRANCH  21  22
ATOM     22  N17 OZS d         -21.761  29.276   7.791  0.00  0.00    -0.353 N 
ATOM     23  C18 OZS d         -22.562  29.731   6.826  0.00  0.00     0.254 C 
ATOM     24  O28 OZS d         -22.396  30.930   6.402  0.00  0.00    -0.268 OA
ATOM     25  H13 OZS d         -21.806  28.311   8.049  0.00  0.00     0.163 HD
BRANCH  23  26
ATOM     26  C19 OZS d         -23.645  28.876   6.225  0.00  0.00     0.070 A 
ATOM     27  C20 OZS d         -23.670  27.475   6.497  0.00  0.00     0.114 A 
ATOM     28  C21 OZS d         -24.755  26.757   5.930  0.00  0.00     0.102 A 
ATOM     29  C22 OZS d         -25.711  27.322   5.135  0.00  0.00     0.075 A 
ATOM     30  C23 OZS d         -25.661  28.739   4.945  0.00  0.00     0.106 A 
ATOM     31  C24 OZS d         -24.607  29.520   5.473  0.00  0.00     0.056 A 
BRANCH  27  32
ATOM     32  O26 OZS d         -22.719  26.828   7.159  0.00  0.00    -0.357 OA
ATOM     33  H16 OZS d         -22.073  27.450   7.471  0.00  0.00     0.217 HD
ENDBRANCH  27  32
BRANCH  28  34
ATOM     34  O27 OZS d         -24.801  25.395   6.127  0.00  0.00    -0.358 OA
ATOM     35  H17 OZS d         -24.085  25.134   6.695  0.00  0.00     0.217 HD
ENDBRANCH  28  34
BRANCH  30  36
ATOM     36  N25 OZS d         -26.667  29.378   4.141  0.00  0.00    -0.116 N 
ATOM     37  O32 OZS d         -27.502  28.755   3.529  0.00  0.00    -0.532 OA
ATOM     38  O33 OZS d         -26.624  30.593   4.093  0.00  0.00    -0.532 OA
ENDBRANCH  30  36
ENDBRANCH  23  26
ENDBRANCH  21  22
ENDBRANCH   2  21
TORSDOF 11
