REMARK  3 active torsions:
REMARK  status: ('A' for Active; 'I' for Inactive)
REMARK    1  A    between atoms: N1_1  and  CA_2 
REMARK    2  A    between atoms: CA_2  and  CB_3 
REMARK    3  A    between atoms: CB_3  and  CG_4 
ROOT
ATOM      1  CG  TSS d          11.717 -20.553   5.727  0.00  0.00    -0.029 A 
ATOM      2  CD1 TSS d          10.355 -20.811   5.971  0.00  0.00     0.096 A 
ATOM      3  NE1 TSS d           9.563 -19.831   5.433  0.00  0.00    -0.365 N 
ATOM      4  CE2 TSS d          10.405 -18.953   4.857  0.00  0.00     0.042 A 
ATOM      5  CD2 TSS d          11.680 -19.370   5.025  0.00  0.00    -0.002 A 
ATOM      6  CZ2 TSS d          10.008 -17.803   4.213  0.00  0.00     0.030 C 
ATOM      7  CH2 TSS d          11.059 -17.013   3.766  0.00  0.00     0.002 C 
ATOM      8  CZ3 TSS d          12.380 -17.476   3.813  0.00  0.00     0.001 C 
ATOM      9  CE3 TSS d          12.726 -18.617   4.525  0.00  0.00     0.014 C 
ATOM     10  H9  TSS d           8.535 -19.777   5.463  0.00  0.00     0.165 HD
ENDROOT
BRANCH   1  11
ATOM     11  CB  TSS d          12.921 -21.388   6.127  0.00  0.00     0.068 C 
BRANCH  11  12
ATOM     12  CA  TSS d          12.492 -22.857   6.196  0.00  0.00     0.234 C 
BRANCH  12  13
ATOM     13  N1  TSS d          13.661 -23.705   6.355  0.00  0.00    -0.079 N 
ATOM     14  H1  TSS d          13.373 -24.670   6.400  0.00  0.00     0.274 HD
ATOM     15  H2  TSS d          14.142 -23.458   7.206  0.00  0.00     0.274 HD
ATOM     16  H3  TSS d          14.280 -23.575   5.570  0.00  0.00     0.274 HD
ENDBRANCH  12  13
ENDBRANCH  11  12
ENDBRANCH   1  11
TORSDOF 3
