REMARK  4 active torsions:
REMARK  status: ('A' for Active; 'I' for Inactive)
REMARK    1  A    between atoms: C5_10  and  O_3 
REMARK    2  A    between atoms: C1_4  and  O2_7 
REMARK    3  A    between atoms: C2_6  and  O1_5 
REMARK    4  A    between atoms: C3_8  and  C5_10 
ROOT
ATOM      1  C   GIF d          76.030  88.904  19.516  0.00  0.00     0.266 C 
ATOM      2  N   GIF d          76.308  88.877  18.064  0.00  0.00    -0.072 N 
ATOM      3  C1  GIF d          77.249  89.074  20.387  0.00  0.00     0.172 C 
ATOM      4  C2  GIF d          78.368  88.210  19.987  0.00  0.00     0.156 C 
ATOM      5  C3  GIF d          78.698  88.299  18.542  0.00  0.00     0.066 C 
ATOM      6  C4  GIF d          77.482  88.086  17.671  0.00  0.00     0.241 C 
ATOM      7  H3  GIF d          76.453  89.826  17.756  0.00  0.00     0.277 HD
ATOM      8  H4  GIF d          75.501  88.492  17.598  0.00  0.00     0.277 HD
ENDROOT
BRANCH   5   9
ATOM      9  C5  GIF d          79.808  87.335  18.130  0.00  0.00     0.173 C 
BRANCH   9  10
ATOM     10  O   GIF d          80.326  87.459  16.850  0.00  0.00    -0.400 OA
ATOM     11  H5  GIF d          80.696  88.327  16.742  0.00  0.00     0.209 HD
ENDBRANCH   9  10
ENDBRANCH   5   9
BRANCH   4  12
ATOM     12  O1  GIF d          77.984  86.900  20.271  0.00  0.00    -0.392 OA
ATOM     13  H7  GIF d          77.808  86.817  21.201  0.00  0.00     0.210 HD
ENDBRANCH   4  12
BRANCH   3  14
ATOM     14  O2  GIF d          76.883  88.807  21.705  0.00  0.00    -0.391 OA
ATOM     15  H9  GIF d          77.623  88.971  22.277  0.00  0.00     0.210 HD
ENDBRANCH   3  14
TORSDOF 4
