REMARK  13 active torsions:
REMARK  status: ('A' for Active; 'I' for Inactive)
REMARK    1  A    between atoms: C1_1  and  N1_2 
REMARK    2  A    between atoms: N1_2  and  C8_13 
REMARK    3  A    between atoms: C2_3  and  O2_4 
REMARK    4  A    between atoms: C3_5  and  O3_6 
REMARK    5  A    between atoms: C4_7  and  O4_8 
REMARK    6  A    between atoms: C5_9  and  C6_10 
REMARK    7  A    between atoms: C6_10  and  O6_11 
REMARK    8  A    between atoms: C8_13  and  C9_14 
REMARK    9  A    between atoms: C9_14  and  C10_15 
REMARK   10  A    between atoms: C10_15  and  C11_16 
REMARK   11  A    between atoms: C11_16  and  C12_17 
REMARK   12  A    between atoms: C12_17  and  C13_18 
REMARK   13  A    between atoms: C13_18  and  C14_19 
ROOT
ATOM      1  C1  OEV d          31.009  66.499   9.883  0.00  0.00     0.240 C 
ATOM      2  C2  OEV d          32.092  65.757   9.039  0.00  0.00     0.184 C 
ATOM      3  C3  OEV d          32.452  66.621   7.871  0.00  0.00     0.182 C 
ATOM      4  C4  OEV d          31.247  66.778   6.926  0.00  0.00     0.180 C 
ATOM      5  C5  OEV d          29.915  67.005   7.670  0.00  0.00    -0.027 C 
ATOM      6  C7  OEV d          29.817  66.848   9.023  0.00  0.00     0.016 C 
ENDROOT
BRANCH   1   7
ATOM      7  N1  OEV d          30.664  65.654  10.988  0.00  0.00    -0.065 N 
ATOM      8  H2  OEV d          31.460  65.591  11.603  0.00  0.00     0.278 HD
ATOM      9  H3  OEV d          30.440  64.738  10.632  0.00  0.00     0.278 HD
BRANCH   7  10
ATOM     10  C8  OEV d          29.529  66.141  11.753  0.00  0.00     0.233 C 
BRANCH  10  11
ATOM     11  C9  OEV d          29.740  67.565  12.208  0.00  0.00     0.027 C 
BRANCH  11  12
ATOM     12  C10 OEV d          28.942  67.929  13.476  0.00  0.00     0.002 C 
BRANCH  12  13
ATOM     13  C11 OEV d          27.462  68.163  13.264  0.00  0.00     0.000 C 
BRANCH  13  14
ATOM     14  C12 OEV d          26.986  68.010  11.856  0.00  0.00     0.000 C 
BRANCH  14  15
ATOM     15  C13 OEV d          25.547  68.501  11.572  0.00  0.00    -0.000 C 
BRANCH  15  16
ATOM     16  C14 OEV d          24.571  67.353  11.530  0.00  0.00    -0.005 C 
ATOM     17  C15 OEV d          23.866  67.169  10.196  0.00  0.00     0.005 C 
ENDBRANCH  15  16
ENDBRANCH  14  15
ENDBRANCH  13  14
ENDBRANCH  12  13
ENDBRANCH  11  12
ENDBRANCH  10  11
ENDBRANCH   7  10
ENDBRANCH   1   7
BRANCH   2  18
ATOM     18  O2  OEV d          33.175  65.425   9.825  0.00  0.00    -0.390 OA
ATOM     19  H5  OEV d          33.823  64.975   9.296  0.00  0.00     0.210 HD
ENDBRANCH   2  18
BRANCH   3  20
ATOM     20  O3  OEV d          33.542  66.206   7.120  0.00  0.00    -0.390 OA
ATOM     21  H7  OEV d          33.686  66.818   6.408  0.00  0.00     0.210 HD
ENDBRANCH   3  20
BRANCH   5  22
ATOM     22  C6  OEV d          28.692  67.329   6.837  0.00  0.00     0.201 C 
BRANCH  22  23
ATOM     23  O6  OEV d          27.509  67.092   7.509  0.00  0.00    -0.397 OA
ATOM     24  H12 OEV d          26.776  67.310   6.945  0.00  0.00     0.209 HD
ENDBRANCH  22  23
ENDBRANCH   5  22
BRANCH   4  25
ATOM     25  O4  OEV d          31.480  67.732   5.949  0.00  0.00    -0.388 OA
ATOM     26  H9  OEV d          32.234  67.476   5.431  0.00  0.00     0.210 HD
ENDBRANCH   4  25
TORSDOF 13
