REMARK  9 active torsions:
REMARK  status: ('A' for Active; 'I' for Inactive)
REMARK    1  A    between atoms: S1_1  and  N1_4 
REMARK    2  A    between atoms: S1_1  and  C1_5 
REMARK    3  A    between atoms: C4_8  and  N2_11 
REMARK    4  A    between atoms: N2_11  and  C7_12 
REMARK    5  A    between atoms: C8_13  and  O4_19 
REMARK    6  A    between atoms: C9_14  and  O5_20 
REMARK    7  A    between atoms: C10_15  and  O6_21 
REMARK    8  A    between atoms: C11_16  and  C12_17 
REMARK    9  A    between atoms: C12_17  and  O7_22 
ROOT
ATOM      1  C7  BO1 d          -3.859   6.512  13.101  0.00  0.00     0.253 C 
ATOM      2  C8  BO1 d          -2.834   7.308  12.291  0.00  0.00     0.198 C 
ATOM      3  C9  BO1 d          -3.422   8.677  11.938  0.00  0.00     0.182 C 
ATOM      4  C10 BO1 d          -4.674   8.471  11.112  0.00  0.00     0.180 C 
ATOM      5  C11 BO1 d          -5.697   7.653  11.944  0.00  0.00     0.179 C 
ATOM      6  O3  BO1 d          -5.107   6.368  12.324  0.00  0.00    -0.354 OA
ENDROOT
BRANCH   1   7
ATOM      7  N2  BO1 d          -3.350   5.231  13.436  0.00  0.00    -0.362 N 
ATOM      8  H7  BO1 d          -2.407   5.000  13.092  0.00  0.00     0.162 HD
BRANCH   7   9
ATOM      9  C4  BO1 d          -4.003   4.258  14.184  0.00  0.00     0.030 A 
ATOM     10  C3  BO1 d          -5.405   4.322  14.503  0.00  0.00     0.031 A 
ATOM     11  C2  BO1 d          -6.008   3.322  15.259  0.00  0.00     0.027 A 
ATOM     12  C1  BO1 d          -5.242   2.224  15.726  0.00  0.00     0.079 A 
ATOM     13  C6  BO1 d          -3.866   2.156  15.416  0.00  0.00     0.027 A 
ATOM     14  C5  BO1 d          -3.260   3.149  14.664  0.00  0.00     0.031 A 
BRANCH  12  15
ATOM     15  S1  BO1 d          -5.972   0.950  16.687  0.00  0.00     0.256 S 
ATOM     16  O1  BO1 d          -5.426   1.086  18.008  0.00  0.00    -0.201 OA
ATOM     17  O2  BO1 d          -7.395   1.044  16.518  0.00  0.00    -0.201 OA
BRANCH  15  18
ATOM     18  N1  BO1 d          -5.487  -0.462  16.114  0.00  0.00    -0.324 N 
ATOM     19  H1  BO1 d          -4.518  -0.708  16.146  0.00  0.00     0.169 HD
ATOM     20  H2  BO1 d          -6.152  -1.099  15.724  0.00  0.00     0.169 HD
ENDBRANCH  15  18
ENDBRANCH  12  15
ENDBRANCH   7   9
ENDBRANCH   1   7
BRANCH   2  21
ATOM     21  O4  BO1 d          -1.655   7.439  13.093  0.00  0.00    -0.389 OA
ATOM     22  H15 BO1 d          -1.001   7.935  12.614  0.00  0.00     0.210 HD
ENDBRANCH   2  21
BRANCH   3  23
ATOM     23  O5  BO1 d          -2.459   9.414  11.185  0.00  0.00    -0.390 OA
ATOM     24  H16 BO1 d          -2.822  10.260  10.950  0.00  0.00     0.210 HD
ENDBRANCH   3  23
BRANCH   5  25
ATOM     25  C12 BO1 d          -6.970   7.373  11.197  0.00  0.00     0.198 C 
BRANCH  25  26
ATOM     26  O7  BO1 d          -6.737   6.448  10.141  0.00  0.00    -0.398 OA
ATOM     27  H18 BO1 d          -6.406   5.634  10.502  0.00  0.00     0.209 HD
ENDBRANCH  25  26
ENDBRANCH   5  25
BRANCH   4  28
ATOM     28  O6  BO1 d          -5.243   9.739  10.768  0.00  0.00    -0.390 OA
ATOM     29  H17 BO1 d          -4.616  10.239  10.259  0.00  0.00     0.210 HD
ENDBRANCH   4  28
TORSDOF 9
