REMARK  3 active torsions:
REMARK  status: ('A' for Active; 'I' for Inactive)
REMARK    1  A    between atoms: C2_2  and  C21_7 
REMARK    2  A    between atoms: C3_3  and  O31_11 
REMARK    3  A    between atoms: C21_7  and  C22_8 
ROOT
ATOM      1  N1  PRZ d          50.263  22.961  42.730  0.00  0.00    -0.260 NA
ATOM      2  C2  PRZ d          50.250  23.775  41.653  0.00  0.00     0.087 A 
ATOM      3  C3  PRZ d          51.216  23.572  40.663  0.00  0.00     0.189 A 
ATOM      4  N4  PRZ d          52.117  22.579  40.806  0.00  0.00    -0.234 NA
ATOM      5  C5  PRZ d          52.118  21.790  41.871  0.00  0.00     0.138 A 
ATOM      6  C6  PRZ d          51.160  21.990  42.865  0.00  0.00     0.136 A 
ENDROOT
BRANCH   2   7
ATOM      7  C21 PRZ d          49.149  24.853  41.561  0.00  0.00     0.067 C 
BRANCH   7   8
ATOM      8  C22 PRZ d          48.280  24.644  40.312  0.00  0.00    -0.017 C 
ATOM      9  C23 PRZ d          47.202  25.729  40.257  0.00  0.00     0.010 C 
ATOM     10  C24 PRZ d          47.642  23.249  40.307  0.00  0.00     0.010 C 
ENDBRANCH   7   8
ENDBRANCH   2   7
BRANCH   3  11
ATOM     11  O31 PRZ d          51.234  24.443  39.619  0.00  0.00    -0.338 OA
ATOM     12  C31 PRZ d          52.403  24.333  38.815  0.00  0.00     0.211 C 
ENDBRANCH   3  11
TORSDOF 3
