REMARK  5 active torsions:
REMARK  status: ('A' for Active; 'I' for Inactive)
REMARK    1  A    between atoms: N5_6  and  C4_9 
REMARK    2  A    between atoms: C1_16  and  O20_17 
REMARK    3  A    between atoms: O20_17  and  C21_18 
REMARK    4  A    between atoms: C24_21  and  C25_22 
REMARK    5  A    between atoms: C26_25  and  O27_27 
ROOT
ATOM      1  C4  PFA d          19.299   5.407   4.443  0.00  0.00     0.064 A 
ATOM      2  C5  PFA d          20.493   6.176   4.753  0.00  0.00     0.041 A 
ATOM      3  C6  PFA d          20.859   7.233   3.877  0.00  0.00    -0.025 A 
ATOM      4  C7  PFA d          22.040   8.059   4.115  0.00  0.00     0.051 C 
ATOM      5  C3  PFA d          18.553   5.719   3.321  0.00  0.00     0.041 A 
ATOM      6  C2  PFA d          18.956   6.702   2.397  0.00  0.00    -0.025 A 
ATOM      7  C19 PFA d          18.088   7.020   1.162  0.00  0.00     0.051 C 
ATOM      8  C1  PFA d          20.103   7.482   2.696  0.00  0.00     0.088 A 
ENDROOT
BRANCH   8   9
ATOM      9  O20 PFA d          20.380   8.504   1.813  0.00  0.00    -0.310 OA
BRANCH   9  10
ATOM     10  C21 PFA d          21.419   8.339   0.910  0.00  0.00     0.076 A 
ATOM     11  C31 PFA d          21.680   7.075   0.261  0.00  0.00     0.040 A 
ATOM     12  C29 PFA d          22.756   7.045  -0.637  0.00  0.00     0.040 A 
ATOM     13  C26 PFA d          23.583   8.175  -0.855  0.00  0.00     0.072 A 
ATOM     14  C24 PFA d          23.295   9.425  -0.257  0.00  0.00    -0.019 A 
ATOM     15  C22 PFA d          22.220   9.512   0.664  0.00  0.00     0.047 A 
BRANCH  13  16
ATOM     16  O27 PFA d          24.637   8.036  -1.731  0.00  0.00    -0.360 OA
ATOM     17  H21 PFA d          25.110   8.858  -1.789  0.00  0.00     0.217 HD
ENDBRANCH  13  16
BRANCH  14  18
ATOM     18  C25 PFA d          24.211  10.646  -0.504  0.00  0.00     0.013 C 
ATOM     19  C8  PFA d          23.293  11.889  -0.716  0.00  0.00     0.015 C 
ATOM     20  C9  PFA d          25.097  10.780   0.760  0.00  0.00     0.015 C 
ENDBRANCH  14  18
ENDBRANCH   9  10
ENDBRANCH   8   9
BRANCH   1  21
ATOM     21  N5  PFA d          19.023   4.410   5.400  0.00  0.00    -0.183 N 
ATOM     22  C14 PFA d          18.023   4.377   6.268  0.00  0.00     0.350 A 
ATOM     23  O9  PFA d          17.223   5.255   6.139  0.00  0.00    -0.244 OA
ATOM     24  N6  PFA d          17.977   3.356   7.189  0.00  0.00    -0.273 N 
ATOM     25  C10 PFA d          18.947   2.397   7.246  0.00  0.00     0.268 A 
ATOM     26  H1  PFA d          17.213   3.315   7.833  0.00  0.00     0.173 HD
ATOM     27  O8  PFA d          18.955   1.489   8.047  0.00  0.00    -0.266 OA
ATOM     28  C17 PFA d          20.019   2.446   6.252  0.00  0.00     0.213 A 
ATOM     29  N3  PFA d          20.032   3.413   5.406  0.00  0.00    -0.170 NA
ENDBRANCH   1  21
TORSDOF 5
