REMARK  4 active torsions:
REMARK  status: ('A' for Active; 'I' for Inactive)
REMARK    1  A    between atoms: S21_2  and  N24_4 
REMARK    2  A    between atoms: S21_2  and  C19_5 
REMARK    3  A    between atoms: C16_7  and  C14_10 
REMARK    4  A    between atoms: N11_12  and  C10_15 
ROOT
ATOM      1  C14 9FK d          14.381 -26.869  59.126  0.00  0.00     0.109 A 
ATOM      2  C15 9FK d          15.471 -27.727  58.954  0.00  0.00     0.149 A 
ATOM      3  N11 9FK d          16.504 -26.876  59.133  0.00  0.00    -0.246 N 
ATOM      4  N12 9FK d          16.106 -25.575  59.436  0.00  0.00     0.010 NA
ATOM      5  N13 9FK d          14.706 -25.599  59.440  0.00  0.00    -0.157 NA
ENDROOT
BRANCH   1   6
ATOM      6  C16 9FK d          12.915 -27.129  59.136  0.00  0.00     0.037 A 
ATOM      7  S20 9FK d          11.928 -25.751  59.429  0.00  0.00    -0.074 SA
ATOM      8  C19 9FK d          10.516 -26.745  59.365  0.00  0.00     0.120 A 
ATOM      9  C18 9FK d          10.801 -28.094  59.172  0.00  0.00     0.034 A 
ATOM     10  C17 9FK d          12.196 -28.316  59.037  0.00  0.00     0.023 A 
BRANCH   8  11
ATOM     11  S21 9FK d           8.987 -26.147  59.637  0.00  0.00     0.263 S 
ATOM     12  O22 9FK d           9.041 -24.699  59.587  0.00  0.00    -0.200 OA
ATOM     13  O23 9FK d           8.600 -26.561  60.952  0.00  0.00    -0.200 OA
BRANCH  11  14
ATOM     14  N24 9FK d           7.981 -26.837  58.600  0.00  0.00    -0.324 N 
ATOM     15  H1  9FK d           8.084 -26.672  57.619  0.00  0.00     0.169 HD
ATOM     16  H2  9FK d           7.250 -27.433  58.933  0.00  0.00     0.169 HD
ENDBRANCH  11  14
ENDBRANCH   8  11
ENDBRANCH   1   6
BRANCH   3  17
ATOM     17  C10 9FK d          17.849 -27.034  59.090  0.00  0.00     0.065 A 
ATOM     18  C9  9FK d          18.711 -26.138  58.434  0.00  0.00     0.032 A 
ATOM     19  C8  9FK d          20.110 -26.227  58.435  0.00  0.00     0.003 A 
ATOM     20  C7  9FK d          20.759 -27.239  59.121  0.00  0.00     0.012 A 
ATOM     21  C4  9FK d          20.021 -28.180  59.827  0.00  0.00    -0.024 A 
ATOM     22  C3  9FK d          18.525 -28.117  59.867  0.00  0.00     0.003 A 
ATOM     23  C5  9FK d          20.692 -29.186  60.500  0.00  0.00     0.012 A 
ATOM     24  C2  9FK d          17.853 -29.085  60.605  0.00  0.00     0.014 A 
ATOM     25  C1  9FK d          18.569 -30.081  61.257  0.00  0.00     0.001 A 
ATOM     26  C6  9FK d          19.969 -30.128  61.219  0.00  0.00     0.001 A 
ENDBRANCH   3  17
TORSDOF 4
