4n6h_ligand

Created by X-TOOL on Fri Sep 26 17:34:59 2014
 58 65  0  0  0  0  0  0  0  0999 V2000
   -6.2170  -65.8630   71.5100  C 0  0  0  1  0  3
   -6.8570  -67.0210   71.1040  C 0  0  0  1  0  3
   -7.7160  -68.8490   69.8180  C 0  0  0  2  0  4
   -6.7520  -69.0270   68.7740  C 0  0  0  1  0  3
   -5.5200  -69.6670   68.8950  C 0  0  0  1  0  3
   -4.8560  -69.4920   67.7250  C 0  0  0  1  0  3
   -3.6160  -69.8700   67.3110  C 0  0  0  2  0  3
   -3.1530  -69.5700   66.0210  C 0  0  0  2  0  3
   -3.9780  -68.8000   65.1880  C 0  0  0  2  0  3
   -5.2350  -68.4110   65.6570  C 0  0  0  2  0  3
   -5.6310  -68.7660   66.9030  C 0  0  0  1  0  3
   -5.0890  -70.3410   70.0880  C 0  0  0  3  0  4
   -6.2310  -70.5970   71.0880  C 0  0  0  1  0  4
   -5.7380  -70.8350   72.5040  C 0  0  0  2  0  4
   -7.8760  -70.2150   73.4650  C 0  0  0  3  0  4
   -8.3340  -69.6940   72.1470  C 0  0  0  3  0  4
   -7.1990  -69.3510   71.1610  C 0  0  0  1  0  4
   -6.4490  -68.2130   71.6690  C 0  0  0  1  0  3
   -5.4660  -68.3450   72.5850  C 0  0  0  1  0  3
   -4.8120  -67.1720   73.0070  C 0  0  0  2  0  3
   -5.1810  -65.9180   72.4600  C 0  0  0  2  0  3
   -6.7660  -68.5140   67.5360  N 0  0  0  2  0  3
   -6.8900  -71.3460   73.3550  N 0  3  0  2  0  4
   -6.6150  -64.6770   70.9250  O 0  0  0  2  0  2
   -7.8440  -67.2600   70.1540  O 0  0  0  1  0  2
   -6.9650  -71.8500   70.6610  O 0  0  0  2  0  2
   -5.1360  -69.6390   73.0820  C 0  0  0  3  0  4
   -6.5950  -71.8760   74.7000  C 0  0  0  3  0  4
   -5.5530  -73.0170   74.6130  C 0  0  0  2  0  4
   -4.0700  -72.7160   74.9220  C 0  0  0  3  0  4
   -4.8990  -73.4520   75.9530  C 0  0  0  3  0  4
   -8.6758  -69.3088   69.5400  H 0  0  0  1  0  1
   -2.9723  -70.4145   67.9924  H 0  0  0  1  0  1
   -2.1869  -69.9226   65.6784  H 0  0  0  1  0  1
   -3.6458  -68.5117   64.1972  H 0  0  0  1  0  1
   -5.8928  -67.8258   65.0247  H 0  0  0  1  0  1
   -4.3245  -69.7230   70.5816  H 0  0  0  1  0  1
   -4.6505  -71.3088   69.8034  H 0  0  0  1  0  1
   -4.9633  -71.6151   72.4698  H 0  0  0  1  0  1
   -8.7545  -70.5724   74.0222  H 0  0  0  1  0  1
   -7.4007  -69.3917   74.0184  H 0  0  0  1  0  1
   -8.9213  -68.7810   72.3246  H 0  0  0  1  0  1
   -8.9744  -70.4571   71.6805  H 0  0  0  1  0  1
   -4.0256  -67.2281   73.7509  H 0  0  0  1  0  1
   -4.6715  -65.0127   72.7696  H 0  0  0  1  0  1
   -7.5560  -67.9922   67.1304  H 0  0  0  1  0  1
   -7.3195  -72.1002   72.8423  H 0  0  0  1  0  1
   -7.3230  -64.8480   70.3151  H 0  0  0  1  0  1
   -7.2901  -71.7389   69.7753  H 0  0  0  1  0  1
   -4.0473  -69.7500   72.9704  H 0  0  0  1  0  1
   -5.3971  -69.6410   74.1505  H 0  0  0  1  0  1
   -7.5215  -72.2646   75.1478  H 0  0  0  1  0  1
   -6.1950  -71.0670   75.3288  H 0  0  0  1  0  1
   -5.8320  -73.7456   73.8376  H 0  0  0  1  0  1
   -3.7503  -71.6812   75.1144  H 0  0  0  1  0  1
   -3.2781  -73.2487   74.3751  H 0  0  0  1  0  1
   -4.7094  -74.5173   76.1507  H 0  0  0  1  0  1
   -5.1816  -72.9498   76.8900  H 0  0  0  1  0  1
  2  1  4  0  0  1
  1 21  4  0  0  1
  1 24  1  0  0  2
  2 18  4  0  0  1
 25  2  1  0  0  1
  3  4  1  0  0  1
 17  3  1  0  0  1
  3 25  1  0  0  1
  5  4  2  0  0  1
  4 22  1  0  0  1
  5  6  1  0  0  1
 12  5  1  0  0  1
  6  7  4  0  0  1
  6 11  4  0  0  1
  7  8  4  0  0  1
  8  9  4  0  0  1
 10  9  4  0  0  1
 11 10  4  0  0  1
 22 11  1  0  0  1
 13 12  1  0  0  1
 14 13  1  0  0  1
 13 17  1  0  0  1
 13 26  1  0  0  2
 23 14  1  0  0  1
 14 27  1  0  0  1
 15 16  1  0  0  1
 15 23  1  0  0  1
 16 17  1  0  0  1
 17 18  1  0  0  1
 18 19  4  0  0  1
 19 20  4  0  0  1
 19 27  1  0  0  1
 20 21  4  0  0  1
 23 28  1  0  0  2
 28 29  1  0  0  2
 29 30  1  0  0  1
 29 31  1  0  0  1
 30 31  1  0  0  1
  3 32  1  0  0  2
  7 33  1  0  0  2
  8 34  1  0  0  2
  9 35  1  0  0  2
 10 36  1  0  0  2
 12 37  1  0  0  2
 12 38  1  0  0  2
 14 39  1  0  0  2
 15 40  1  0  0  2
 15 41  1  0  0  2
 16 42  1  0  0  2
 16 43  1  0  0  2
 20 44  1  0  0  2
 21 45  1  0  0  2
 22 46  1  0  0  2
 23 47  1  0  0  2
 24 48  1  0  0  2
 26 49  1  0  0  2
 27 50  1  0  0  2
 27 51  1  0  0  2
 28 52  1  0  0  2
 28 53  1  0  0  2
 29 54  1  0  0  2
 30 55  1  0  0  2
 30 56  1  0  0  2
 31 57  1  0  0  2
 31 58  1  0  0  2
M  END
> <MOLECULAR_FORMULA>
C26H27N2O3

> <MOLECULAR_WEIGHT>
415.3

> <NUM_HB_ATOMS>
5  

> <NUM_ROTOR>
2  

> <XLOGP2>
3.07 

$$$$
