REMARK  2 active torsions:
REMARK  status: ('A' for Active; 'I' for Inactive)
REMARK    1  A    between atoms: C3_3  and  O31_4 
REMARK    2  A    between atoms: C6_7  and  C7_8 
ROOT
ATOM      1  C1  GA4 d          30.520  46.474  14.266  0.00  0.00     0.042 C 
ATOM      2  C2  GA4 d          29.436  46.226  13.220  0.00  0.00     0.036 C 
ATOM      3  C3  GA4 d          29.562  44.806  12.596  0.00  0.00     0.136 C 
ATOM      4  C4  GA4 d          31.009  44.427  12.201  0.00  0.00     0.077 C 
ATOM      5  C5  GA4 d          31.840  44.480  13.473  0.00  0.00     0.057 C 
ATOM      6  C6  GA4 d          33.339  44.110  13.481  0.00  0.00     0.104 C 
ATOM      7  C8  GA4 d          34.037  45.069  14.466  0.00  0.00    -0.016 C 
ATOM      8  C9  GA4 d          33.068  46.283  14.608  0.00  0.00     0.031 C 
ATOM      9  C10 GA4 d          31.890  45.997  13.705  0.00  0.00     0.081 C 
ATOM     10  C11 GA4 d          33.781  47.630  14.322  0.00  0.00     0.009 C 
ATOM     11  C12 GA4 d          35.113  47.771  15.106  0.00  0.00     0.009 C 
ATOM     12  C13 GA4 d          35.865  46.411  15.225  0.00  0.00     0.014 C 
ATOM     13  C14 GA4 d          35.417  45.581  14.036  0.00  0.00     0.020 C 
ATOM     14  C15 GA4 d          34.355  44.509  15.853  0.00  0.00     0.044 C 
ATOM     15  C16 GA4 d          35.323  45.553  16.329  0.00  0.00    -0.084 C 
ATOM     16  C17 GA4 d          35.676  45.631  17.605  0.00  0.00     0.014 C 
ATOM     17  C18 GA4 d          31.099  43.084  11.469  0.00  0.00     0.029 C 
ATOM     18  C19 GA4 d          31.560  45.579  11.422  0.00  0.00     0.271 C 
ATOM     19  O91 GA4 d          31.589  45.740  10.199  0.00  0.00    -0.264 OA
ATOM     20  O92 GA4 d          32.094  46.494  12.358  0.00  0.00    -0.308 OA
ENDROOT
BRANCH   6  21
ATOM     21  C7  GA4 d          33.556  42.640  13.731  0.00  0.00     0.178 C 
ATOM     22  O71 GA4 d          32.936  41.978  14.606  0.00  0.00    -0.648 OA
ATOM     23  O72 GA4 d          34.398  42.130  12.997  0.00  0.00    -0.648 OA
ENDBRANCH   6  21
BRANCH   3  24
ATOM     24  O31 GA4 d          29.031  43.848  13.519  0.00  0.00    -0.394 OA
ATOM     25  H6  GA4 d          29.104  42.977  13.146  0.00  0.00     0.210 HD
ENDBRANCH   3  24
TORSDOF 2
