REMARK  7 active torsions:
REMARK  status: ('A' for Active; 'I' for Inactive)
REMARK    1  A    between atoms: C9_6  and  C4_5 
REMARK    2  A    between atoms: C6_28  and  C9_6 
REMARK    3  A    between atoms: S1_7  and  N1_10 
REMARK    4  A    between atoms: S1_7  and  C6_28 
REMARK    5  A    between atoms: N1_10  and  C12_11 
REMARK    6  A    between atoms: N2_16  and  C16_17 
REMARK    7  A    between atoms: C16_17  and  C18_19 
REMARK       I    between atoms: C18_19  and  N3_21 
ROOT
ATOM      1  C12 MOL d           5.909   6.206  22.091  0.00  0.00     0.186 C 
ATOM      2  C13 MOL d           4.625   5.596  21.536  0.00  0.00     0.055 C 
ATOM      3  C14 MOL d           5.076   4.440  20.647  0.00  0.00     0.129 C 
ATOM      4  C15 MOL d           7.030   5.566  21.289  0.00  0.00     0.244 C 
ATOM      5  O3  MOL d           8.180   5.991  21.261  0.00  0.00    -0.271 OA
ATOM      6  N2  MOL d           6.542   4.480  20.668  0.00  0.00    -0.337 N 
ENDROOT
BRANCH   1   7
ATOM      7  N1  MOL d           5.959   7.638  21.960  0.00  0.00    -0.306 N 
ATOM      8  H5  MOL d           5.684   8.085  21.109  0.00  0.00     0.173 HD
BRANCH   7   9
ATOM      9  S1  MOL d           6.504   8.560  23.307  0.00  0.00     0.227 S 
ATOM     10  O2  MOL d           6.380   9.899  22.812  0.00  0.00    -0.206 OA
ATOM     11  O1  MOL d           5.768   8.166  24.468  0.00  0.00    -0.206 OA
BRANCH   9  12
ATOM     12  C6  MOL d           8.260   8.202  23.505  0.00  0.00     0.168 C 
BRANCH  12  13
ATOM     13  C9  MOL d           8.634   8.664  24.906  0.00  0.00     0.063 C 
BRANCH  13  14
ATOM     14  C4  MOL d           9.899   8.126  25.514  0.00  0.00    -0.015 A 
ATOM     15  C3  MOL d           9.984   7.467  26.668  0.00  0.00     0.017 A 
ATOM     16  C2  MOL d          11.344   7.071  27.018  0.00  0.00     0.032 A 
ATOM     17  C1  MOL d          12.196   7.461  26.064  0.00  0.00     0.075 A 
ATOM     18 CL1  MOL d          13.889   7.176  26.124  0.00  0.00    -0.076 Cl
ATOM     19  S6  MOL d          11.466   8.310  24.716  0.00  0.00    -0.083 SA
ENDBRANCH  13  14
ENDBRANCH  12  13
ENDBRANCH   9  12
ENDBRANCH   7   9
ENDBRANCH   1   7
BRANCH   6  20
ATOM     20  C16 MOL d           7.388   3.423  20.103  0.00  0.00     0.175 C 
ATOM     21  C17 MOL d           7.002   2.060  20.706  0.00  0.00     0.042 C 
BRANCH  20  22
ATOM     22  C18 MOL d           7.296   3.422  18.559  0.00  0.00     0.242 C 
ATOM     23  O4  MOL d           6.235   3.763  18.038  0.00  0.00    -0.271 OA
ATOM     24  N3  MOL d           8.394   3.062  17.814  0.00  0.00    -0.346 N 
ATOM     25  C19 MOL d           9.661   2.514  18.347  0.00  0.00     0.152 C 
ATOM     26  C23 MOL d           8.343   3.258  16.353  0.00  0.00     0.152 C 
ATOM     27  C20 MOL d          10.176   1.340  17.519  0.00  0.00     0.187 C 
ATOM     28  O5  MOL d          10.140   1.708  16.154  0.00  0.00    -0.388 OA
ATOM     29  C22 MOL d           8.851   2.006  15.656  0.00  0.00     0.187 C 
ENDBRANCH  20  22
ENDBRANCH   6  20
TORSDOF 7
