REMARK  3 active torsions:
REMARK  status: ('A' for Active; 'I' for Inactive)
REMARK    1  A    between atoms: C10_5  and  C9_4 
REMARK       I    between atoms: C9_4  and  N_21 
REMARK    2  A    between atoms: S_12  and  N1_14 
REMARK    3  A    between atoms: C13_15  and  S_12 
ROOT
ATOM      1  C10 MOL d          16.904   6.255  14.685  0.00  0.00     0.032 A 
ATOM      2  C13 MOL d          15.708   4.037  15.923  0.00  0.00     0.079 A 
ATOM      3  C12 MOL d          17.082   4.120  15.729  0.00  0.00     0.026 A 
ATOM      4  C11 MOL d          17.663   5.206  15.132  0.00  0.00     0.018 A 
ATOM      5  C14 MOL d          14.886   5.109  15.487  0.00  0.00     0.026 A 
ATOM      6  C15 MOL d          15.537   6.206  14.815  0.00  0.00     0.018 A 
ENDROOT
BRANCH   1   7
ATOM      7  C9  MOL d          17.499   7.472  14.005  0.00  0.00     0.258 C 
ATOM      8  O   MOL d          16.760   8.385  13.746  0.00  0.00    -0.267 OA
ATOM      9  N   MOL d          18.713   7.538  13.546  0.00  0.00    -0.313 N 
ATOM     10  C5  MOL d          19.488   8.746  13.607  0.00  0.00     0.043 A 
ATOM     11  C6  MOL d          19.561   6.417  13.584  0.00  0.00     0.133 C 
ATOM     12  C2  MOL d          19.152   9.713  14.532  0.00  0.00     0.030 A 
ATOM     13  C4  MOL d          20.586   8.859  12.751  0.00  0.00    -0.031 A 
ATOM     14  C1  MOL d          19.971  10.828  14.536  0.00  0.00     0.002 A 
ATOM     15  C   MOL d          21.046  10.959  13.714  0.00  0.00     0.001 A 
ATOM     16  C3  MOL d          21.408  10.020  12.793  0.00  0.00     0.009 A 
ATOM     17  C8  MOL d          20.903   7.721  11.812  0.00  0.00     0.042 C 
ATOM     18  C7  MOL d          20.705   6.445  12.586  0.00  0.00     0.025 C 
ENDBRANCH   1   7
BRANCH   2  19
ATOM     19  S   MOL d          15.061   2.665  16.792  0.00  0.00     0.256 S 
ATOM     20  O2  MOL d          13.614   2.702  16.684  0.00  0.00    -0.201 OA
ATOM     21  O1  MOL d          15.633   2.773  18.109  0.00  0.00    -0.201 OA
BRANCH  19  22
ATOM     22  N1  MOL d          15.590   1.332  16.157  0.00  0.00    -0.324 N 
ATOM     23  H10 MOL d          15.306   1.071  15.235  0.00  0.00     0.169 HD
ATOM     24  H11 MOL d          16.211   0.744  16.675  0.00  0.00     0.169 HD
ENDBRANCH  19  22
ENDBRANCH   2  19
TORSDOF 3
