REMARK  8 active torsions:
REMARK  status: ('A' for Active; 'I' for Inactive)
REMARK    1  A    between atoms: C4_4  and  NA1_7 
REMARK    2  A    between atoms: NA1_7  and  CA2_8 
REMARK    3  A    between atoms: CA2_8  and  CA3_9 
REMARK    4  A    between atoms: CA3_9  and  OA4_10 
REMARK    5  A    between atoms: OA4_10  and  C21_11 
REMARK    6  A    between atoms: C23_13  and  NB1_18 
REMARK    7  A    between atoms: NB1_18  and  SB2_19 
REMARK    8  A    between atoms: SB2_19  and  C31_22 
ROOT
ATOM      1  C21 I48 d          51.686  59.241  43.766  0.00  0.00     0.071 C 
ATOM      2  C22 I48 d          51.638  58.500  44.971  0.00  0.00     0.066 C 
ATOM      3  C23 I48 d          52.214  59.025  46.145  0.00  0.00     0.045 C 
ATOM      4  C24 I48 d          53.018  60.184  46.071  0.00  0.00     0.037 C 
ATOM      5  C25 I48 d          53.142  60.871  44.859  0.00  0.00    -0.057 C 
ATOM      6  C26 I48 d          52.557  60.353  43.696  0.00  0.00     0.043 C 
ATOM      7  C27 I48 d          54.178  61.957  44.704  0.00  0.00     0.048 C 
ENDROOT
BRANCH   1   8
ATOM      8  OA4 I48 d          50.767  59.003  42.720  0.00  0.00    -0.349 OA
BRANCH   8   9
ATOM      9  CA3 I48 d          51.309  58.971  41.391  0.00  0.00     0.195 C 
BRANCH   9  10
ATOM     10  CA2 I48 d          50.357  58.242  40.426  0.00  0.00     0.146 C 
BRANCH  10  11
ATOM     11  NA1 I48 d          49.012  58.793  40.482  0.00  0.00    -0.388 N 
ATOM     12  H5  I48 d          48.862  59.812  40.516  0.00  0.00     0.159 HD
BRANCH  11  13
ATOM     13  C4  I48 d          47.900  57.889  40.489  0.00  0.00     0.030 A 
ATOM     14  C3  I48 d          48.091  56.496  40.499  0.00  0.00     0.048 A 
ATOM     15  C2  I48 d          47.004  55.612  40.520  0.00  0.00     0.118 A 
ATOM     16  N1  I48 d          45.689  56.138  40.451  0.00  0.00    -0.273 NA
ATOM     17  C6  I48 d          45.502  57.548  40.458  0.00  0.00     0.118 A 
ATOM     18  C5  I48 d          46.605  58.401  40.398  0.00  0.00     0.048 A 
ENDBRANCH  11  13
ENDBRANCH  10  11
ENDBRANCH   9  10
ENDBRANCH   8   9
ENDBRANCH   1   8
BRANCH   3  19
ATOM     19  NB1 I48 d          52.266  58.231  47.318  0.00  0.00    -0.281 N 
ATOM     20  H16 I48 d          53.047  57.650  47.548  0.00  0.00     0.179 HD
BRANCH  19  21
ATOM     21  SB2 I48 d          50.934  58.349  48.264  0.00  0.00     0.263 S 
ATOM     22  OBB I48 d          49.705  58.015  47.585  0.00  0.00    -0.200 OA
ATOM     23  OBA I48 d          51.140  57.435  49.360  0.00  0.00    -0.200 OA
BRANCH  21  24
ATOM     24  C31 I48 d          50.725  59.953  48.910  0.00  0.00     0.079 C 
ATOM     25  C36 I48 d          51.798  60.599  49.538  0.00  0.00     0.025 C 
ATOM     26  C35 I48 d          51.642  61.950  49.929  0.00  0.00     0.002 C 
ATOM     27  C34 I48 d          50.390  62.589  49.768  0.00  0.00     0.000 C 
ATOM     28  C33 I48 d          49.327  61.892  49.157  0.00  0.00     0.002 C 
ATOM     29  C32 I48 d          49.441  60.504  48.953  0.00  0.00     0.025 C 
ENDBRANCH  21  24
ENDBRANCH  19  21
ENDBRANCH   3  19
TORSDOF 8
