1i9l_ligand

Created by X-TOOL on Fri Sep 26 17:34:19 2014
 34 35  0  0  0  0  0  0  0  0999 V2000
   -3.7880    2.9570   14.9130  C 0  0  0  2  0  3
   -4.2250    1.8450   15.6210  C 0  0  0  2  0  3
   -5.6130    1.7560   16.0180  C 0  0  0  1  0  3
   -6.4770    2.8040   15.6800  C 0  0  0  2  0  3
   -5.9990    3.9120   14.9680  C 0  0  0  2  0  3
   -4.6600    4.0010   14.5770  C 0  0  0  1  0  3
   -4.1000    5.1980   13.7860  C 0  0  0  1  0  3
   -4.9140    6.1180   13.5010  O 0  0  0  1  0  1
   -2.7120    5.2960   13.3690  N 0  0  0  2  0  3
   -2.2780    6.5590   12.8220  C 0  0  0  3  0  4
   -6.0830    0.2740   16.9310  S 0  0  0  1  0  4
   -5.6210   -1.1680   16.1600  N 0  0  0  3  0  3
   -7.5130    0.4880   17.1220  O 0  0  0  1  0  1
   -5.3780    0.5550   18.2120  O 0  0  0  1  0  1
   -1.5640    7.4610   13.6090  C 0  0  0  1  0  3
   -2.0640    7.7550   14.9390  C 0  0  0  2  0  3
   -1.3290    8.7030   15.7590  C 0  0  0  2  0  3
   -0.1090    9.3430   15.2530  C 0  0  0  1  0  3
    0.3780    9.0300   13.9210  C 0  0  0  2  0  3
   -0.3360    8.0950   13.0890  C 0  0  0  2  0  3
    0.5740   10.2350   16.0390  F 0  0  0  1  0  1
   -2.7481    3.0187   14.6134  H 0  0  0  1  0  1
   -3.5320    1.0508   15.8739  H 0  0  0  1  0  1
   -7.5204    2.7582   15.9703  H 0  0  0  1  0  1
   -6.6809    4.7159   14.7154  H 0  0  0  1  0  1
   -2.0847    4.5222   13.4571  H 0  0  0  1  0  1
   -3.1833    7.0839   12.4831  H 0  0  0  1  0  1
   -1.6430    6.3257   11.9546  H 0  0  0  1  0  1
   -5.8328   -2.0501   16.5808  H 0  0  0  1  0  1
   -5.1373   -1.1346   15.2854  H 0  0  0  1  0  1
   -2.9638    7.2791   15.3117  H 0  0  0  1  0  1
   -1.6855    8.9400   16.7549  H 0  0  0  1  0  1
    1.2816    9.5013   13.5515  H 0  0  0  1  0  1
    0.0238    7.8600   12.0938  H 0  0  0  1  0  1
  1  2  4  0  0  1
  1  6  4  0  0  1
  2  3  4  0  0  1
  3  4  4  0  0  1
  3 11  1  0  0  2
  4  5  4  0  0  1
  5  6  4  0  0  1
  6  7  1  0  0  2
  7  8  2  0  0  2
  7  9  1  0  0  2
  9 10  1  0  0  2
 10 15  1  0  0  2
 11 12  1  0  0  2
 11 13  2  0  0  2
 11 14  2  0  0  2
 15 16  4  0  0  1
 15 20  4  0  0  1
 16 17  4  0  0  1
 17 18  4  0  0  1
 18 19  4  0  0  1
 18 21  1  0  0  2
 19 20  4  0  0  1
  1 22  1  0  0  2
  2 23  1  0  0  2
  4 24  1  0  0  2
  5 25  1  0  0  2
  9 26  1  0  0  2
 10 27  1  0  0  2
 10 28  1  0  0  2
 12 29  1  0  0  2
 12 30  1  0  0  2
 16 31  1  0  0  2
 17 32  1  0  0  2
 19 33  1  0  0  2
 20 34  1  0  0  2
M  END
> <MOLECULAR_FORMULA>
C14H13N2O3SF

> <MOLECULAR_WEIGHT>
308.2

> <NUM_HB_ATOMS>
5  

> <NUM_ROTOR>
3  

> <XLOGP2>
1.84 

$$$$
