REMARK  11 active torsions:
REMARK  status: ('A' for Active; 'I' for Inactive)
REMARK    1  A    between atoms: N_1  and  CA_2 
REMARK    2  A    between atoms: CA_2  and  CB_3 
REMARK    3  A    between atoms: CA_2  and  C_6 
REMARK    4  A    between atoms: CB_3  and  CG_4 
REMARK    5  A    between atoms: CG_4  and  SD_5 
REMARK    6  A    between atoms: SD_5  and  C5'_9 
REMARK    7  A    between atoms: C5'_9  and  C4'_10 
REMARK    8  A    between atoms: C3'_12  and  O3'_13 
REMARK    9  A    between atoms: C2'_14  and  O2'_15 
REMARK   10  A    between atoms: C1'_16  and  N9_17 
REMARK   11  A    between atoms: C6_21  and  N6_22 
ROOT
ATOM      1  C4' SAH d          28.779  22.553  -3.324  0.00  0.00     0.165 C 
ATOM      2  O4' SAH d          28.178  23.875  -3.270  0.00  0.00    -0.355 OA
ATOM      3  C3' SAH d          29.282  22.355  -4.760  0.00  0.00     0.180 C 
ATOM      4  C2' SAH d          29.171  23.727  -5.402  0.00  0.00     0.198 C 
ATOM      5  C1' SAH d          28.044  24.386  -4.622  0.00  0.00     0.262 C 
ENDROOT
BRANCH   1   6
ATOM      6  C5' SAH d          29.913  22.491  -2.294  0.00  0.00     0.108 C 
BRANCH   6   7
ATOM      7  SD  SAH d          30.618  20.815  -2.101  0.00  0.00    -0.166 SA
BRANCH   7   8
ATOM      8  CG  SAH d          31.650  21.098  -0.609  0.00  0.00     0.076 C 
BRANCH   8   9
ATOM      9  CB  SAH d          31.958  19.810   0.171  0.00  0.00     0.054 C 
BRANCH   9  10
ATOM     10  CA  SAH d          32.785  20.074   1.448  0.00  0.00     0.284 C 
BRANCH  10  11
ATOM     11  N   SAH d          32.105  21.083   2.281  0.00  0.00    -0.065 N 
ATOM     12  H1  SAH d          31.178  20.760   2.510  0.00  0.00     0.275 HD
ATOM     13  H2  SAH d          32.042  21.951   1.773  0.00  0.00     0.275 HD
ATOM     14  H3  SAH d          32.630  21.227   3.130  0.00  0.00     0.275 HD
ENDBRANCH  10  11
BRANCH  10  15
ATOM     15  C   SAH d          34.200  20.566   1.098  0.00  0.00     0.204 C 
ATOM     16  O   SAH d          34.494  21.735   1.427  0.00  0.00    -0.646 OA
ATOM     17  OXT SAH d          34.956  19.757   0.516  0.00  0.00    -0.646 OA
ENDBRANCH  10  15
ENDBRANCH   9  10
ENDBRANCH   8   9
ENDBRANCH   7   8
ENDBRANCH   6   7
ENDBRANCH   1   6
BRANCH   3  18
ATOM     18  O3' SAH d          28.432  21.419  -5.434  0.00  0.00    -0.390 OA
ATOM     19  H13 SAH d          28.742  21.295  -6.323  0.00  0.00     0.210 HD
ENDBRANCH   3  18
BRANCH   5  20
ATOM     20  N9  SAH d          28.085  25.885  -4.617  0.00  0.00    -0.294 N 
ATOM     21  C8  SAH d          29.184  26.659  -4.541  0.00  0.00     0.214 A 
ATOM     22  N7  SAH d          28.816  27.942  -4.465  0.00  0.00    -0.236 NA
ATOM     23  C5  SAH d          27.486  27.984  -4.498  0.00  0.00     0.149 A 
ATOM     24  C6  SAH d          26.548  29.020  -4.449  0.00  0.00     0.155 A 
ATOM     25  C4  SAH d          27.023  26.682  -4.599  0.00  0.00     0.167 A 
ATOM     26  N1  SAH d          25.224  28.719  -4.501  0.00  0.00    -0.222 NA
ATOM     27  C2  SAH d          24.808  27.447  -4.601  0.00  0.00     0.237 A 
ATOM     28  N3  SAH d          25.689  26.441  -4.650  0.00  0.00    -0.222 NA
BRANCH  24  29
ATOM     29  N6  SAH d          26.947  30.294  -4.368  0.00  0.00    -0.382 N 
ATOM     30  H18 SAH d          26.249  31.051  -4.332  0.00  0.00     0.157 HD
ATOM     31  H19 SAH d          27.952  30.518  -4.341  0.00  0.00     0.157 HD
ENDBRANCH  24  29
ENDBRANCH   5  20
BRANCH   4  32
ATOM     32  O2' SAH d          28.769  23.590  -6.771  0.00  0.00    -0.388 OA
ATOM     33  H15 SAH d          27.925  23.155  -6.810  0.00  0.00     0.210 HD
ENDBRANCH   4  32
TORSDOF 11
