REMARK  4 active torsions:
REMARK  status: ('A' for Active; 'I' for Inactive)
REMARK    1  A    between atoms: C1_1  and  C2_2 
REMARK    2  A    between atoms: C2_2  and  O1P_6 
REMARK    3  A    between atoms: N2_3  and  O2_4 
REMARK    4  A    between atoms: O1P_6  and  P_10 
ROOT
ATOM      1  C1  PGH d           8.711  41.350  22.335  0.00  0.00     0.199 C 
ATOM      2  N2  PGH d           9.029  42.360  23.114  0.00  0.00    -0.247 N 
ATOM      3  O1  PGH d           9.265  40.101  22.508  0.00  0.00    -0.173 OA
ATOM      4  H3  PGH d           8.627  43.264  22.967  0.00  0.00     0.196 HD
ENDROOT
BRANCH   1   5
ATOM      5  C2  PGH d           7.724  41.543  21.230  0.00  0.00     0.271 C 
BRANCH   5   6
ATOM      6  O1P PGH d           8.223  40.949  20.044  0.00  0.00    -0.275 OA
BRANCH   6   7
ATOM      7  P   PGH d           7.460  41.311  18.662  0.00  0.00     0.422 P 
ATOM      8  O2P PGH d           7.949  40.391  17.573  0.00  0.00    -0.617 OA
ATOM      9  O3P PGH d           5.991  41.072  18.918  0.00  0.00    -0.617 OA
ATOM     10  O4P PGH d           7.751  42.772  18.354  0.00  0.00    -0.617 OA
ENDBRANCH   6   7
ENDBRANCH   5   6
ENDBRANCH   1   5
BRANCH   2  11
ATOM     11  O2  PGH d           9.923  42.149  24.133  0.00  0.00    -0.288 OA
ATOM     12  H4  PGH d          10.056  42.960  24.609  0.00  0.00     0.244 HD
ENDBRANCH   2  11
TORSDOF 4
