REMARK  5 active torsions:
REMARK  status: ('A' for Active; 'I' for Inactive)
REMARK    1  A    between atoms: N_1  and  CA_2 
REMARK    2  A    between atoms: CA_2  and  CB_3 
REMARK    3  A    between atoms: CA_2  and  C_6 
REMARK    4  A    between atoms: CB_3  and  CG_4 
REMARK    5  A    between atoms: CG_4  and  SD_5 
ROOT
ATOM      1  CA  HCS d          79.144   5.440 -37.867  0.00  0.00     0.284 C 
ENDROOT
BRANCH   1   2
ATOM      2  N   HCS d          79.790   6.517 -38.611  0.00  0.00    -0.065 N 
ATOM      3  H   HCS d          80.791   6.416 -38.547  0.00  0.00     0.275 HD
ATOM      4  H   HCS d          79.516   7.406 -38.222  0.00  0.00     0.275 HD
ATOM      5  H   HCS d          79.509   6.473 -39.578  0.00  0.00     0.275 HD
ENDBRANCH   1   2
BRANCH   1   6
ATOM      6  CB  HCS d          79.671   5.479 -36.360  0.00  0.00     0.054 C 
BRANCH   6   7
ATOM      7  CG  HCS d          78.971   4.414 -35.511  0.00  0.00     0.073 C 
BRANCH   7   8
ATOM      8  SD  HCS d          80.004   4.056 -33.997  0.00  0.00    -0.182 SA
ATOM      9  H   HCS d          79.545   3.355 -33.437  0.00  0.00     0.101 HD
ENDBRANCH   7   8
ENDBRANCH   6   7
ENDBRANCH   1   6
BRANCH   1  10
ATOM     10  C   HCS d          77.541   5.588 -37.961  0.00  0.00     0.204 C 
ATOM     11  OXT HCS d          76.848   4.616 -37.631  0.00  0.00    -0.646 OA
ATOM     12  O   HCS d          77.129   6.690 -38.414  0.00  0.00    -0.646 OA
ENDBRANCH   1  10
TORSDOF 5
