REMARK  4 active torsions:
REMARK  status: ('A' for Active; 'I' for Inactive)
REMARK    1  A    between atoms: C11_2  and  O2_4 
REMARK    2  A    between atoms: O2_4  and  C12_12 
REMARK    3  A    between atoms: C12_12  and  C9_16 
REMARK    4  A    between atoms: C8_17  and  O4_13 
ROOT
ATOM      1  C6  YZ9 d          61.058  29.488  19.114  0.00  0.00     0.017 A 
ATOM      2  C5  YZ9 d          61.196  26.988  19.416  0.00  0.00     0.038 A 
ATOM      3  C4  YZ9 d          60.196  29.070  16.337  0.00  0.00     0.074 A 
ATOM      4  O3  YZ9 d          60.360  26.703  16.736  0.00  0.00    -0.274 OA
ATOM      5  C2  YZ9 d          60.907  28.189  18.573  0.00  0.00    -0.001 A 
ATOM      6  C1  YZ9 d          60.486  28.006  17.220  0.00  0.00     0.092 A 
ATOM      7  C7  YZ9 d          60.676  25.636  17.434  0.00  0.00     0.304 A 
ATOM      8  O5  YZ9 d          60.584  24.591  16.926  0.00  0.00    -0.259 OA
ATOM      9  C10 YZ9 d          60.780  30.597  18.263  0.00  0.00     0.037 A 
ATOM     10  C9  YZ9 d          61.138  25.756  18.823  0.00  0.00     0.115 A 
ATOM     11  C8  YZ9 d          60.367  30.362  16.932  0.00  0.00     0.068 A 
ENDROOT
BRANCH  10  12
ATOM     12  C12 YZ9 d          61.529  24.501  19.544  0.00  0.00     0.299 C 
ATOM     13  O1  YZ9 d          61.351  24.501  20.724  0.00  0.00    -0.259 OA
BRANCH  12  14
ATOM     14  O2  YZ9 d          62.057  23.436  18.869  0.00  0.00    -0.318 OA
BRANCH  14  15
ATOM     15  C11 YZ9 d          63.386  23.381  18.212  0.00  0.00     0.174 C 
ATOM     16  C3  YZ9 d          64.422  22.956  19.213  0.00  0.00     0.034 C 
ENDBRANCH  14  15
ENDBRANCH  12  14
ENDBRANCH  10  12
BRANCH  11  17
ATOM     17  O4  YZ9 d          60.124  31.452  16.184  0.00  0.00    -0.361 OA
ATOM     18  H9  YZ9 d          60.277  32.232  16.704  0.00  0.00     0.217 HD
ENDBRANCH  11  17
TORSDOF 4
