1gcz_ligand

Created by X-TOOL on Fri Sep 26 17:34:18 2014
 27 28  0  0  0  0  0  0  0  0999 V2000
   64.4220   22.9560   19.2130  C 0  0  0  4  0  4
   63.3860   23.3810   18.2120  C 0  0  0  3  0  4
   61.3510   24.5010   20.7240  O 0  0  0  1  0  1
   62.0570   23.4360   18.8690  O 0  0  0  1  0  2
   61.0580   29.4880   19.1140  C 0  0  0  2  0  3
   61.1960   26.9880   19.4160  C 0  0  0  2  0  3
   60.1960   29.0700   16.3370  C 0  0  0  2  0  3
   60.3600   26.7030   16.7360  O 0  0  0  1  0  2
   60.9070   28.1890   18.5730  C 0  0  0  1  0  3
   60.4860   28.0060   17.2200  C 0  0  0  1  0  3
   60.6760   25.6360   17.4340  C 0  0  0  1  0  3
   61.5290   24.5010   19.5440  C 0  0  0  1  0  3
   60.1240   31.4520   16.1840  O 0  0  0  2  0  2
   60.5840   24.5910   16.9260  O 0  0  0  1  0  1
   60.7800   30.5970   18.2630  C 0  0  0  2  0  3
   61.1380   25.7560   18.8230  C 0  0  0  1  0  3
   60.3670   30.3620   16.9320  C 0  0  0  1  0  3
   65.4074   22.9152   18.7259  H 0  0  0  1  0  1
   64.1658   21.9611   19.6060  H 0  0  0  1  0  1
   64.4516   23.6805   20.0402  H 0  0  0  1  0  1
   63.3564   22.6565   17.3848  H 0  0  0  1  0  1
   63.6422   24.3760   17.8190  H 0  0  0  1  0  1
   61.3743   29.6345   20.1404  H 0  0  0  1  0  1
   61.4454   27.0908   20.4711  H 0  0  0  1  0  1
   59.8761   28.9235   15.3117  H 0  0  0  1  0  1
   60.2771   32.2322   16.7041  H 0  0  0  1  0  1
   60.8843   31.6106   18.6330  H 0  0  0  1  0  1
  2  1  1  0  0  2
  2  4  1  0  0  2
  4 12  1  0  0  2
 12  3  2  0  0  2
 12 16  1  0  0  2
 16  6  2  0  0  1
 16 11  1  0  0  1
 11  8  1  0  0  1
 11 14  2  0  0  2
  8 10  1  0  0  1
 10  7  4  0  0  1
 10  9  4  0  0  1
  9  6  1  0  0  1
  9  5  4  0  0  1
  5 15  4  0  0  1
 15 17  4  0  0  1
 17  7  4  0  0  1
 17 13  1  0  0  2
  1 18  1  0  0  2
  1 19  1  0  0  2
  1 20  1  0  0  2
  2 21  1  0  0  2
  2 22  1  0  0  2
  5 23  1  0  0  2
  6 24  1  0  0  2
  7 25  1  0  0  2
 13 26  1  0  0  2
 15 27  1  0  0  2
M  END
> <MOLECULAR_FORMULA>
C12H10O5

> <MOLECULAR_WEIGHT>
234.1

> <NUM_HB_ATOMS>
5  

> <NUM_ROTOR>
2  

> <XLOGP2>
1.61 

$$$$
