REMARK  8 active torsions:
REMARK  status: ('A' for Active; 'I' for Inactive)
REMARK    1  A    between atoms: C44_3  and  C21_6 
REMARK    2  A    between atoms: C21_6  and  C5_7 
REMARK    3  A    between atoms: C5_7  and  C14_8 
REMARK       I    between atoms: C14_8  and  N1_10 
REMARK    4  A    between atoms: C1_11  and  C7_12 
REMARK       I    between atoms: C7_12  and  N23_17 
REMARK    5  A    between atoms: N23_17  and  C24_18 
REMARK    6  A    between atoms: C24_18  and  C25_19 
REMARK    7  A    between atoms: C28_22  and  C9_23 
REMARK    8  A    between atoms: C9_23  and  N46_24 
ROOT
ATOM      1  C7  MOL d         -26.218   1.649  14.279  0.00  0.00     0.240 C 
ATOM      2  O22 MOL d         -26.263   2.855  14.452  0.00  0.00    -0.271 OA
ATOM      3  N23 MOL d         -25.084   1.145  13.896  0.00  0.00    -0.355 N 
ATOM      4  H21 MOL d         -25.052   0.149  13.809  0.00  0.00     0.162 HD
ENDROOT
BRANCH   1   5
ATOM      5  C1  MOL d         -27.416   0.793  14.537  0.00  0.00     0.179 C 
ATOM      6  N1  MOL d         -28.190   1.202  15.702  0.00  0.00    -0.339 N 
ATOM      7  C14 MOL d         -27.626   1.341  16.897  0.00  0.00     0.220 C 
ATOM      8  C4  MOL d         -29.615   1.453  15.415  0.00  0.00     0.127 C 
ATOM      9  O32 MOL d         -26.413   1.222  17.033  0.00  0.00    -0.273 OA
ATOM     10  C3  MOL d         -29.848   0.925  14.015  0.00  0.00     0.022 C 
ATOM     11  C2  MOL d         -28.451   0.952  13.443  0.00  0.00     0.037 C 
BRANCH   7  12
ATOM     12  C5  MOL d         -28.549   1.647  18.020  0.00  0.00     0.103 C 
BRANCH  12  13
ATOM     13  C21 MOL d         -28.474   0.634  19.118  0.00  0.00     0.014 C 
BRANCH  13  14
ATOM     14  C44 MOL d         -29.164  -0.634  18.610  0.00  0.00    -0.014 C 
ATOM     15  C45 MOL d         -30.681  -0.541  18.260  0.00  0.00     0.004 C 
ATOM     16  C47 MOL d         -31.294  -1.902  18.711  0.00  0.00     0.000 C 
ATOM     17  C48 MOL d         -30.229  -2.677  19.483  0.00  0.00     0.000 C 
ATOM     18  C49 MOL d         -29.117  -1.655  19.775  0.00  0.00     0.004 C 
ENDBRANCH  13  14
ENDBRANCH  12  13
ENDBRANCH   7  12
ENDBRANCH   1   5
BRANCH   3  19
ATOM     19  C24 MOL d         -23.887   1.835  13.587  0.00  0.00     0.161 C 
BRANCH  19  20
ATOM     20  C25 MOL d         -22.833   1.687  14.612  0.00  0.00    -0.040 A 
ATOM     21  C30 MOL d         -23.026   1.973  15.929  0.00  0.00     0.010 A 
ATOM     22  C29 MOL d         -21.987   1.810  16.838  0.00  0.00     0.016 A 
ATOM     23  C28 MOL d         -20.741   1.360  16.456  0.00  0.00     0.007 A 
ATOM     24  C27 MOL d         -20.560   1.073  15.109  0.00  0.00     0.016 A 
ATOM     25  C26 MOL d         -21.591   1.231  14.180  0.00  0.00     0.010 A 
BRANCH  23  26
ATOM     26  C9  MOL d         -19.616   1.183  17.436  0.00  0.00     0.102 C 
ATOM     27  N47 MOL d         -18.765   0.181  17.291  0.00  0.00    -0.385 N 
ATOM     28  H28 MOL d         -18.874  -0.478  16.507  0.00  0.00     0.157 HD
ATOM     29  H29 MOL d         -17.993   0.060  17.962  0.00  0.00     0.157 HD
BRANCH  26  30
ATOM     30  N46 MOL d         -19.474   2.030  18.445  0.00  0.00    -0.385 N 
ATOM     31  H26 MOL d         -18.702   1.907  19.116  0.00  0.00     0.157 HD
ATOM     32  H27 MOL d         -20.136   2.811  18.558  0.00  0.00     0.157 HD
ENDBRANCH  26  30
ENDBRANCH  23  26
ENDBRANCH  19  20
ENDBRANCH   3  19
TORSDOF 8
