REMARK  7 active torsions:
REMARK  status: ('A' for Active; 'I' for Inactive)
REMARK    1  A    between atoms: N1_1  and  C1_3 
REMARK    2  A    between atoms: C1_3  and  C2_4 
REMARK    3  A    between atoms: C5_7  and  N_10 
REMARK    4  A    between atoms: N_10  and  C_11 
REMARK    5  A    between atoms: C_11  and  C8_13 
REMARK    6  A    between atoms: C12_19  and  C9_22 
REMARK    7  A    between atoms: C9_22  and  N4_23 
ROOT
ATOM      1  N3  R11 d          16.771 -13.340  21.538  0.00  0.00    -0.231 NA
ATOM      2  C8  R11 d          17.455 -12.518  20.653  0.00  0.00     0.124 A 
ATOM      3  N9  R11 d          18.874 -12.548  20.597  0.00  0.00    -0.336 N 
ATOM      4  C3A R11 d          19.079 -13.513  21.577  0.00  0.00     0.064 A 
ATOM      5  C7A R11 d          17.825 -13.974  22.130  0.00  0.00     0.086 A 
ATOM      6  C10 R11 d          20.310 -14.049  22.062  0.00  0.00     0.033 A 
ATOM      7  C11 R11 d          20.271 -15.018  23.073  0.00  0.00     0.011 A 
ATOM      8  C12 R11 d          19.036 -15.479  23.624  0.00  0.00    -0.037 A 
ATOM      9  C13 R11 d          17.804 -14.966  23.158  0.00  0.00     0.043 A 
ATOM     10  C14 R11 d          19.859 -11.795  19.759  0.00  0.00     0.158 C 
ENDROOT
BRANCH   2  11
ATOM     11  C   R11 d          16.607 -11.593  19.759  0.00  0.00     0.198 C 
BRANCH  11  12
ATOM     12  N   R11 d          15.159 -11.914  19.615  0.00  0.00    -0.383 N 
ATOM     13  H9  R11 d          14.857 -12.177  18.666  0.00  0.00     0.160 HD
BRANCH  12  14
ATOM     14  C5  R11 d          14.119 -11.908  20.618  0.00  0.00     0.028 A 
ATOM     15  C4  R11 d          13.220 -12.987  20.771  0.00  0.00     0.030 A 
ATOM     16  C3  R11 d          12.217 -12.939  21.762  0.00  0.00     0.017 A 
ATOM     17  C2  R11 d          12.076 -11.806  22.642  0.00  0.00     0.007 A 
ATOM     18  C7  R11 d          13.013 -10.728  22.453  0.00  0.00     0.017 A 
ATOM     19  C6  R11 d          14.013 -10.782  21.460  0.00  0.00     0.030 A 
BRANCH  17  20
ATOM     20  C1  R11 d          11.071 -11.756  23.637  0.00  0.00     0.102 C 
ATOM     21  N2  R11 d          10.823 -10.709  24.412  0.00  0.00    -0.385 N 
ATOM     22  H3  R11 d          11.441  -9.885  24.378  0.00  0.00     0.157 HD
ATOM     23  H4  R11 d          10.013 -10.719  25.048  0.00  0.00     0.157 HD
BRANCH  20  24
ATOM     24  N1  R11 d          10.166 -12.697  23.834  0.00  0.00    -0.385 N 
ATOM     25  H1  R11 d           9.465 -12.589  24.580  0.00  0.00     0.157 HD
ATOM     26  H2  R11 d          10.161 -13.539  23.241  0.00  0.00     0.157 HD
ENDBRANCH  20  24
ENDBRANCH  17  20
ENDBRANCH  12  14
ENDBRANCH  11  12
ENDBRANCH   2  11
BRANCH   8  27
ATOM     27  C9  R11 d          19.064 -16.529  24.746  0.00  0.00     0.169 C 
BRANCH  27  28
ATOM     28  N4  R11 d          20.338 -16.464  25.541  0.00  0.00    -0.329 N 
ATOM     29  C15 R11 d          21.353 -17.409  25.804  0.00  0.00     0.103 A 
ATOM     30  N16 R11 d          22.475 -17.094  26.584  0.00  0.00    -0.234 NA
ATOM     31  C23 R11 d          21.274 -18.819  25.242  0.00  0.00     0.091 C 
ATOM     32  C17 R11 d          22.143 -15.781  26.858  0.00  0.00     0.085 A 
ATOM     33  C18 R11 d          20.888 -15.406  26.245  0.00  0.00     0.065 A 
ATOM     34  C19 R11 d          22.868 -14.826  27.637  0.00  0.00     0.034 A 
ATOM     35  C22 R11 d          20.373 -14.079  26.425  0.00  0.00     0.032 A 
ATOM     36  C21 R11 d          21.107 -13.153  27.188  0.00  0.00     0.002 A 
ATOM     37  C20 R11 d          22.325 -13.525  27.786  0.00  0.00     0.002 A 
ENDBRANCH  27  28
ENDBRANCH   8  27
TORSDOF 7
