REMARK  7 active torsions:
REMARK  status: ('A' for Active; 'I' for Inactive)
REMARK    1  A    between atoms: CAQ_2  and  CAS_4 
REMARK    2  A    between atoms: CAS_4  and  CAK_6 
REMARK    3  A    between atoms: CAI_7  and  CAJ_8 
REMARK    4  A    between atoms: CAP_9  and  CAT_11 
REMARK    5  A    between atoms: CA_14  and  C_15 
REMARK    6  A    between atoms: CB_18  and  CG_19 
REMARK    7  A    between atoms: CG_19  and  CD_20 
ROOT
ATOM      1  CAT DOQ d          -2.567 -34.274  77.568  0.00  0.00     0.047 C 
ATOM      2  CAL DOQ d          -1.560 -34.161  76.425  0.00  0.00     0.242 C 
ATOM      3  N   DOQ d          -2.407 -34.011  75.230  0.00  0.00    -0.060 N 
ATOM      4  CA  DOQ d          -3.738 -34.546  75.563  0.00  0.00     0.291 C 
ATOM      5  CB  DOQ d          -3.603 -35.205  76.937  0.00  0.00     0.046 C 
ATOM      6  H14 DOQ d          -2.011 -34.527  74.460  0.00  0.00     0.278 HD
ATOM      7  H15 DOQ d          -2.480 -33.037  74.980  0.00  0.00     0.278 HD
ENDROOT
BRANCH   1   8
ATOM      8  CAP DOQ d          -1.950 -34.890  78.826  0.00  0.00    -0.078 C 
ATOM      9  CAJ DOQ d          -2.611 -34.810  80.047  0.00  0.00     0.003 C 
ATOM     10  CAA DOQ d          -0.581 -35.567  78.753  0.00  0.00     0.044 C 
BRANCH   9  11
ATOM     11  CAI DOQ d          -3.836 -34.158  80.135  0.00  0.00    -0.003 C 
ATOM     12  CAK DOQ d          -4.503 -34.076  81.350  0.00  0.00    -0.012 C 
BRANCH  12  13
ATOM     13  CAS DOQ d          -5.840 -33.336  81.420  0.00  0.00     0.105 C 
ATOM     14  CAB DOQ d          -6.915 -34.248  82.014  0.00  0.00     0.025 C 
BRANCH  13  15
ATOM     15  CAQ DOQ d          -5.664 -32.094  82.296  0.00  0.00     0.180 C 
ATOM     16  OAD DOQ d          -6.174 -31.029  81.885  0.00  0.00    -0.647 OA
ATOM     17  OAG DOQ d          -5.005 -32.233  83.350  0.00  0.00    -0.647 OA
ENDBRANCH  13  15
ENDBRANCH  12  13
ENDBRANCH   9  11
ENDBRANCH   1   8
BRANCH   5  18
ATOM     18  CG  DOQ d          -3.016 -36.614  76.817  0.00  0.00     0.121 C 
BRANCH  18  19
ATOM     19  CD  DOQ d          -4.054 -37.613  76.301  0.00  0.00     0.172 C 
ATOM     20  OE2 DOQ d          -5.258 -37.314  76.455  0.00  0.00    -0.648 OA
ATOM     21  OE1 DOQ d          -3.620 -38.661  75.774  0.00  0.00    -0.648 OA
ENDBRANCH  18  19
ENDBRANCH   5  18
BRANCH   4  22
ATOM     22  C   DOQ d          -4.762 -33.408  75.599  0.00  0.00     0.205 C 
ATOM     23  OXT DOQ d          -4.404 -32.307  75.130  0.00  0.00    -0.646 OA
ATOM     24  O   DOQ d          -5.885 -33.665  76.081  0.00  0.00    -0.646 OA
ENDBRANCH   4  22
TORSDOF 7
