REMARK  31 active torsions:
REMARK  status: ('A' for Active; 'I' for Inactive)
REMARK    1  A    between atoms: N_1  and  CA_2 
REMARK    2  A    between atoms: CA_2  and  C_3 
REMARK    3  A    between atoms: CA_2  and  CB_5 
REMARK       I    between atoms: C_3  and  N_8 
REMARK    4  A    between atoms: N_8  and  CA_9 
REMARK    5  A    between atoms: CA_9  and  C_10 
REMARK    6  A    between atoms: CA_9  and  CB_12 
REMARK       I    between atoms: C_10  and  N_16 
REMARK    7  A    between atoms: CB_12  and  CG_13 
REMARK    8  A    between atoms: CG_13  and  SD_14 
REMARK    9  A    between atoms: N_16  and  CA_17 
REMARK   10  A    between atoms: CA_17  and  C_18 
REMARK       I    between atoms: C_18  and  N_21 
REMARK   11  A    between atoms: CA_22  and  C_23 
REMARK       I    between atoms: C_23  and  N_28 
REMARK   12  A    between atoms: N_28  and  CA_29 
REMARK   13  A    between atoms: CA_29  and  C_30 
REMARK   14  A    between atoms: CA_29  and  CB_32 
REMARK       I    between atoms: C_30  and  N_39 
REMARK   15  A    between atoms: CB_32  and  CG_33 
REMARK   16  A    between atoms: CG_33  and  CD_34 
REMARK   17  A    between atoms: CD_34  and  NE_35 
REMARK       I    between atoms: NE_35  and  CZ_36 
REMARK       I    between atoms: CZ_36  and  NH1_37 
REMARK   18  A    between atoms: N_39  and  CA_40 
REMARK   19  A    between atoms: CA_40  and  C_41 
REMARK       I    between atoms: C_41  and  N_44 
REMARK   20  A    between atoms: N_44  and  CA_45 
REMARK   21  A    between atoms: CA_45  and  C_46 
REMARK   22  A    between atoms: CA_45  and  CB_48 
REMARK       I    between atoms: C_46  and  N_52 
REMARK   23  A    between atoms: CB_48  and  CG_49 
REMARK   24  A    between atoms: N_52  and  CA_53 
REMARK   25  A    between atoms: CA_53  and  C_54 
REMARK   26  A    between atoms: CA_53  and  CB_56 
REMARK       I    between atoms: C_54  and  N_60 
REMARK   27  A    between atoms: CB_56  and  CG_57 
REMARK   28  A    between atoms: N_60  and  CA_61 
REMARK   29  A    between atoms: CA_61  and  C_62 
REMARK   30  A    between atoms: CA_61  and  CB_64 
REMARK   31  A    between atoms: CB_64  and  CG_65 
ROOT
ATOM      1  CA  VAL d          18.632 -15.339  18.814  0.00  0.00     0.176 C 
ENDROOT
BRANCH   1   2
ATOM      2  N   VAL d          19.790 -14.931  18.144  0.00  0.00    -0.346 N 
ATOM      3  C   VAL d          20.601 -15.799  17.575  0.00  0.00     0.241 C 
ATOM      4  O   VAL d          20.427 -17.011  17.570  0.00  0.00    -0.271 OA
ATOM      5  H33 VAL d          20.008 -13.956  18.096  0.00  0.00     0.163 HD
BRANCH   3   6
ATOM      6  CA  VAL d          21.870 -15.253  16.863  0.00  0.00     0.179 C 
ATOM      7  N   VAL d          21.987 -13.780  16.574  0.00  0.00    -0.337 N 
ATOM      8  C   VAL d          21.311 -13.108  15.646  0.00  0.00     0.243 C 
ATOM      9  CD  VAL d          23.068 -13.176  17.366  0.00  0.00     0.127 C 
ATOM     10  O   VAL d          20.525 -13.646  14.966  0.00  0.00    -0.271 OA
ATOM     11  CG  VAL d          23.999 -14.323  17.570  0.00  0.00     0.022 C 
ATOM     12  CB  VAL d          23.077 -15.521  17.819  0.00  0.00     0.037 C 
BRANCH   8  13
ATOM     13  CA  VAL d          21.569 -11.611  15.457  0.00  0.00     0.172 C 
ATOM     14  CB  VAL d          20.396 -10.789  15.917  0.00  0.00     0.042 C 
BRANCH  13  15
ATOM     15  N   VAL d          21.890 -11.293  14.100  0.00  0.00    -0.346 N 
ATOM     16  C   VAL d          22.834 -11.955  13.475  0.00  0.00     0.241 C 
ATOM     17  O   VAL d          23.478 -12.850  14.008  0.00  0.00    -0.271 OA
ATOM     18  H21 VAL d          21.394 -10.565  13.627  0.00  0.00     0.163 HD
BRANCH  16  19
ATOM     19  CA  VAL d          23.047 -11.582  12.039  0.00  0.00     0.177 C 
BRANCH  19  20
ATOM     20  N   VAL d          24.329 -12.059  11.513  0.00  0.00    -0.346 N 
ATOM     21  C   VAL d          25.436 -11.317  11.614  0.00  0.00     0.249 C 
ATOM     22  O   VAL d          25.494 -10.206  12.201  0.00  0.00    -0.271 OA
ATOM     23  H12 VAL d          24.376 -12.955  11.071  0.00  0.00     0.163 HD
BRANCH  21  24
ATOM     24  CA  VAL d          26.707 -11.970  11.056  0.00  0.00     0.278 C 
BRANCH  24  25
ATOM     25  N   VAL d          27.837 -11.013  10.939  0.00  0.00    -0.066 N 
ATOM     26  H1  VAL d          27.571 -10.252  10.334  0.00  0.00     0.275 HD
ATOM     27  H2  VAL d          28.639 -11.486  10.552  0.00  0.00     0.275 HD
ATOM     28  H3  VAL d          28.068 -10.652  11.852  0.00  0.00     0.275 HD
ENDBRANCH  24  25
BRANCH  24  29
ATOM     29  CB  VAL d          27.079 -13.221  12.021  0.00  0.00     0.017 C 
ATOM     30  CG1 VAL d          28.379 -13.868  11.618  0.00  0.00     0.012 C 
ATOM     31  CG2 VAL d          27.287 -12.717  13.466  0.00  0.00     0.012 C 
ENDBRANCH  24  29
ENDBRANCH  21  24
ENDBRANCH  19  20
BRANCH  19  32
ATOM     32  CB  VAL d          21.891 -12.133  11.191  0.00  0.00     0.045 C 
BRANCH  32  33
ATOM     33  CG  VAL d          21.765 -13.604  11.171  0.00  0.00     0.076 C 
BRANCH  33  34
ATOM     34  SD  VAL d          20.190 -14.352  10.636  0.00  0.00    -0.173 SA
ATOM     35  CE  VAL d          20.475 -14.443   9.015  0.00  0.00     0.089 C 
ENDBRANCH  33  34
ENDBRANCH  32  33
ENDBRANCH  19  32
ENDBRANCH  16  19
ENDBRANCH  13  15
ENDBRANCH   8  13
ENDBRANCH   3   6
ENDBRANCH   1   2
BRANCH   1  36
ATOM     36  C   VAL d          17.428 -14.398  18.489  0.00  0.00     0.241 C 
ATOM     37  O   VAL d          17.434 -13.264  18.808  0.00  0.00    -0.271 OA
ATOM     38  N   VAL d          16.379 -14.964  17.915  0.00  0.00    -0.346 N 
ATOM     39  H46 VAL d          16.430 -15.941  17.706  0.00  0.00     0.163 HD
BRANCH  38  40
ATOM     40  CA  VAL d          15.177 -14.267  17.575  0.00  0.00     0.172 C 
ATOM     41  CB  VAL d          14.738 -14.605  16.191  0.00  0.00     0.042 C 
BRANCH  40  42
ATOM     42  C   VAL d          14.048 -14.569  18.594  0.00  0.00     0.240 C 
ATOM     43  O   VAL d          13.593 -15.660  18.688  0.00  0.00    -0.271 OA
ATOM     44  N   VAL d          13.573 -13.553  19.293  0.00  0.00    -0.346 N 
ATOM     45  H51 VAL d          14.020 -12.664  19.193  0.00  0.00     0.163 HD
BRANCH  44  46
ATOM     46  CA  VAL d          12.454 -13.649  20.187  0.00  0.00     0.177 C 
BRANCH  46  47
ATOM     47  C   VAL d          11.300 -14.399  19.692  0.00  0.00     0.241 C 
ATOM     48  O   VAL d          10.967 -14.308  18.556  0.00  0.00    -0.271 OA
ATOM     49  N   VAL d          10.682 -15.116  20.604  0.00  0.00    -0.346 N 
ATOM     50  H62 VAL d          11.122 -15.214  21.496  0.00  0.00     0.163 HD
BRANCH  49  51
ATOM     51  CA  VAL d           9.382 -15.786  20.401  0.00  0.00     0.177 C 
BRANCH  51  52
ATOM     52  C   VAL d           8.381 -14.769  21.000  0.00  0.00     0.241 C 
ATOM     53  O   VAL d           8.456 -14.407  22.158  0.00  0.00    -0.271 OA
ATOM     54  N   VAL d           7.473 -14.279  20.199  0.00  0.00    -0.345 N 
ATOM     55  H73 VAL d           7.419 -14.610  19.257  0.00  0.00     0.163 HD
BRANCH  54  56
ATOM     56  CA  VAL d           6.573 -13.298  20.637  0.00  0.00     0.185 C 
BRANCH  56  57
ATOM     57  C   VAL d           5.370 -13.966  21.385  0.00  0.00     0.196 C 
ATOM     58  O   VAL d           4.536 -13.193  21.848  0.00  0.00    -0.646 OA
ATOM     59  OXT VAL d           5.256 -15.234  21.445  0.00  0.00    -0.646 OA
ENDBRANCH  56  57
BRANCH  56  60
ATOM     60  CB  VAL d           6.111 -12.514  19.438  0.00  0.00     0.040 C 
BRANCH  60  61
ATOM     61  CG  VAL d           7.176 -11.790  18.700  0.00  0.00    -0.020 C 
ATOM     62  CD1 VAL d           6.554 -11.276  17.394  0.00  0.00     0.009 C 
ATOM     63  CD2 VAL d           7.897 -10.723  19.625  0.00  0.00     0.009 C 
ENDBRANCH  60  61
ENDBRANCH  56  60
ENDBRANCH  54  56
ENDBRANCH  51  52
BRANCH  51  64
ATOM     64  CB  VAL d           9.328 -17.069  21.209  0.00  0.00     0.038 C 
BRANCH  64  65
ATOM     65  CG  VAL d          10.020 -18.325  20.644  0.00  0.00    -0.020 C 
ATOM     66  CD1 VAL d          10.321 -19.464  21.669  0.00  0.00     0.009 C 
ATOM     67  CD2 VAL d           9.153 -18.812  19.515  0.00  0.00     0.009 C 
ENDBRANCH  64  65
ENDBRANCH  51  64
ENDBRANCH  49  51
ENDBRANCH  46  47
BRANCH  46  68
ATOM     68  CB  VAL d          11.888 -12.265  20.557  0.00  0.00     0.038 C 
BRANCH  68  69
ATOM     69  CG  VAL d          12.776 -11.354  21.350  0.00  0.00    -0.020 C 
ATOM     70  CD1 VAL d          11.921 -10.200  21.880  0.00  0.00     0.009 C 
ATOM     71  CD2 VAL d          13.412 -12.020  22.456  0.00  0.00     0.009 C 
ENDBRANCH  68  69
ENDBRANCH  46  68
ENDBRANCH  44  46
ENDBRANCH  40  42
ENDBRANCH  38  40
ENDBRANCH   1  36
BRANCH   1  72
ATOM     72  CB  VAL d          18.881 -15.482  20.348  0.00  0.00     0.036 C 
BRANCH  72  73
ATOM     73  CG  VAL d          17.649 -15.418  21.173  0.00  0.00     0.023 C 
BRANCH  73  74
ATOM     74  CD  VAL d          17.705 -15.616  22.741  0.00  0.00     0.138 C 
BRANCH  74  75
ATOM     75  NE  VAL d          17.565 -17.049  23.006  0.00  0.00    -0.227 N 
ATOM     76  CZ  VAL d          16.584 -17.667  23.635  0.00  0.00     0.665 C 
ATOM     77  NH1 VAL d          15.630 -16.992  24.162  0.00  0.00    -0.235 N 
ATOM     78  NH2 VAL d          16.637 -18.989  23.849  0.00  0.00    -0.235 N 
ATOM     79  H42 VAL d          14.865 -17.477  24.652  0.00  0.00     0.174 HD
ATOM     80  H43 VAL d          15.628 -15.964  24.095  0.00  0.00     0.174 HD
ATOM     81  H44 VAL d          17.396 -19.548  23.434  0.00  0.00     0.174 HD
ATOM     82  H45 VAL d          15.919 -19.446  24.429  0.00  0.00     0.174 HD
ATOM     83  H41 VAL d          18.327 -17.649  22.658  0.00  0.00     0.177 HD
ENDBRANCH  74  75
ENDBRANCH  73  74
ENDBRANCH  72  73
ENDBRANCH   1  72
TORSDOF 31
