REMARK  18 active torsions:
REMARK  status: ('A' for Active; 'I' for Inactive)
REMARK    1  A    between atoms: C12_6  and  C11_7 
REMARK    2  A    between atoms: C11_7  and  N8_8 
REMARK    3  A    between atoms: C6_14  and  S5_15 
REMARK    4  A    between atoms: S5_15  and  C4_16 
REMARK    5  A    between atoms: C4_16  and  C3_17 
REMARK    6  A    between atoms: C3_17  and  C2_18 
REMARK    7  A    between atoms: C2_18  and  C1_19 
REMARK    8  A    between atoms: C1_19  and  N2_20 
REMARK    9  A    between atoms: N1_21  and  C1'_22 
REMARK   10  A    between atoms: C2'_24  and  O2'_25 
REMARK   11  A    between atoms: C3'_26  and  O3'_27 
REMARK   12  A    between atoms: C4'_28  and  O4'_29 
REMARK   13  A    between atoms: C5'_30  and  C6'_31 
REMARK   14  A    between atoms: C6'_31  and  O6'_32 
REMARK   15  A    between atoms: O6'_32  and  C1A_33 
REMARK   16  A    between atoms: C4A_36  and  O4A_37 
REMARK   17  A    between atoms: C3A_38  and  O3A_39 
REMARK   18  A    between atoms: C2A_40  and  O2A_41 
ROOT
ATOM      1  C1' ZPA d           1.150  32.548  23.514  0.00  0.00     0.254 C 
ATOM      2  O5' ZPA d          -0.216  32.266  23.850  0.00  0.00    -0.354 OA
ATOM      3  C2' ZPA d           1.907  33.625  24.338  0.00  0.00     0.198 C 
ATOM      4  C3' ZPA d           1.328  33.822  25.740  0.00  0.00     0.182 C 
ATOM      5  C4' ZPA d          -0.192  33.849  25.633  0.00  0.00     0.180 C 
ATOM      6  C5' ZPA d          -0.637  32.454  25.215  0.00  0.00     0.179 C 
ENDROOT
BRANCH   1   7
ATOM      7  N1  ZPA d           1.197  32.928  22.114  0.00  0.00    -0.352 N 
ATOM      8  C1  ZPA d           0.332  33.720  21.508  0.00  0.00     0.072 C 
ATOM      9  H19 ZPA d           1.968  32.549  21.547  0.00  0.00     0.163 HD
BRANCH   8  10
ATOM     10  C2  ZPA d           0.563  33.995  20.014  0.00  0.00     0.076 C 
BRANCH  10  11
ATOM     11  C3  ZPA d           0.054  35.342  19.489  0.00  0.00     0.018 C 
BRANCH  11  12
ATOM     12  C4  ZPA d           0.119  35.290  17.951  0.00  0.00     0.075 C 
BRANCH  12  13
ATOM     13  S5  ZPA d          -0.556  36.742  17.063  0.00  0.00    -0.154 SA
BRANCH  13  14
ATOM     14  C6  ZPA d          -2.350  36.326  17.011  0.00  0.00     0.148 C 
ATOM     15  C7  ZPA d          -2.603  34.826  16.735  0.00  0.00     0.241 C 
ATOM     16  N8  ZPA d          -3.435  34.308  17.756  0.00  0.00    -0.283 N 
ATOM     17  O7  ZPA d          -2.205  34.196  15.757  0.00  0.00    -0.272 OA
ATOM     18  C9  ZPA d          -3.322  35.143  18.886  0.00  0.00     0.228 C 
ATOM     19  O9  ZPA d          -3.426  34.810  20.067  0.00  0.00    -0.273 OA
ATOM     20  C10 ZPA d          -3.022  36.560  18.381  0.00  0.00     0.128 C 
BRANCH  16  21
ATOM     21  C11 ZPA d          -3.521  32.838  17.920  0.00  0.00     0.173 C 
BRANCH  21  22
ATOM     22  C12 ZPA d          -2.416  32.093  18.692  0.00  0.00    -0.040 A 
ATOM     23  C13 ZPA d          -1.323  31.563  18.016  0.00  0.00     0.009 A 
ATOM     24  C14 ZPA d          -0.340  30.864  18.711  0.00  0.00     0.001 A 
ATOM     25  C15 ZPA d          -0.452  30.675  20.084  0.00  0.00     0.000 A 
ATOM     26  C16 ZPA d          -1.554  31.184  20.764  0.00  0.00     0.001 A 
ATOM     27  C17 ZPA d          -2.529  31.890  20.066  0.00  0.00     0.009 A 
ENDBRANCH  21  22
ENDBRANCH  16  21
ENDBRANCH  13  14
ENDBRANCH  12  13
ENDBRANCH  11  12
ENDBRANCH  10  11
ENDBRANCH   8  10
BRANCH   8  28
ATOM     28  N2  ZPA d          -0.715  34.224  22.123  0.00  0.00    -0.389 N 
ATOM     29  H17 ZPA d          -0.864  34.036  23.125  0.00  0.00     0.157 HD
ATOM     30  H18 ZPA d          -1.386  34.807  21.603  0.00  0.00     0.157 HD
ENDBRANCH   8  28
ENDBRANCH   1   7
BRANCH   3  31
ATOM     31  O2' ZPA d           3.292  33.270  24.453  0.00  0.00    -0.389 OA
ATOM     32  H22 ZPA d           3.367  32.430  24.891  0.00  0.00     0.210 HD
ENDBRANCH   3  31
BRANCH   6  33
ATOM     33  C6' ZPA d          -2.144  32.374  25.211  0.00  0.00     0.205 C 
BRANCH  33  34
ATOM     34  O6' ZPA d          -2.487  33.330  24.207  0.00  0.00    -0.356 OA
BRANCH  34  35
ATOM     35  C1A ZPA d          -3.891  33.484  24.062  0.00  0.00     0.290 C 
ATOM     36  O5A ZPA d          -4.357  32.570  23.047  0.00  0.00    -0.356 OA
ATOM     37  C5A ZPA d          -5.752  32.776  22.701  0.00  0.00     0.205 C 
ATOM     38  C4A ZPA d          -5.998  34.217  22.232  0.00  0.00     0.173 C 
ATOM     39  C3A ZPA d          -5.551  35.191  23.322  0.00  0.00     0.182 C 
ATOM     40  C2A ZPA d          -4.078  34.929  23.605  0.00  0.00     0.204 C 
BRANCH  38  41
ATOM     41  O4A ZPA d          -7.387  34.390  21.912  0.00  0.00    -0.391 OA
ATOM     42  H34 ZPA d          -7.913  34.215  22.684  0.00  0.00     0.210 HD
ENDBRANCH  38  41
BRANCH  39  43
ATOM     43  O3A ZPA d          -5.709  36.551  22.911  0.00  0.00    -0.390 OA
ATOM     44  H36 ZPA d          -6.624  36.718  22.716  0.00  0.00     0.210 HD
ENDBRANCH  39  43
BRANCH  40  45
ATOM     45  O2A ZPA d          -3.583  35.835  24.597  0.00  0.00    -0.388 OA
ATOM     46  H38 ZPA d          -4.075  35.722  25.402  0.00  0.00     0.210 HD
ENDBRANCH  40  45
ENDBRANCH  34  35
ENDBRANCH  33  34
ENDBRANCH   6  33
BRANCH   4  47
ATOM     47  O3' ZPA d           1.823  35.047  26.288  0.00  0.00    -0.390 OA
ATOM     48  H24 ZPA d           1.464  35.171  27.159  0.00  0.00     0.210 HD
ENDBRANCH   4  47
BRANCH   5  49
ATOM     49  O4' ZPA d          -0.788  34.219  26.877  0.00  0.00    -0.390 OA
ATOM     50  H26 ZPA d          -1.733  34.228  26.784  0.00  0.00     0.210 HD
ENDBRANCH   5  49
TORSDOF 18
