REMARK  3 active torsions:
REMARK  status: ('A' for Active; 'I' for Inactive)
REMARK    1  A    between atoms: C2_3  and  C5_9 
REMARK    2  A    between atoms: C2_3  and  C11_15 
REMARK    3  A    between atoms: C3_5  and  N3_7 
ROOT
ATOM      1  O1  MOL d          21.823  13.194  22.651  0.00  0.00    -0.269 OA
ATOM      2  C1  MOL d          21.986  12.003  22.838  0.00  0.00     0.276 A 
ATOM      3  C2  MOL d          21.741  10.848  21.825  0.00  0.00     0.183 A 
ATOM      4  N1  MOL d          22.095   9.627  22.595  0.00  0.00    -0.199 N 
ATOM      5  C3  MOL d          22.458  10.015  23.838  0.00  0.00     0.677 A 
ATOM      6  N2  MOL d          22.418  11.431  24.013  0.00  0.00    -0.153 N 
ATOM      7  C4  MOL d          22.743  12.206  25.216  0.00  0.00     0.178 C 
ATOM      8  H1  MOL d          22.069   8.659  22.244  0.00  0.00     0.179 HD
ENDROOT
BRANCH   3   9
ATOM      9  C5  MOL d          20.262  10.692  21.423  0.00  0.00    -0.015 A 
ATOM     10  C6  MOL d          19.877   9.765  20.459  0.00  0.00     0.010 A 
ATOM     11  C7  MOL d          18.543   9.632  20.090  0.00  0.00     0.001 A 
ATOM     12  C8  MOL d          17.576  10.423  20.679  0.00  0.00     0.000 A 
ATOM     13  C9  MOL d          17.939  11.336  21.645  0.00  0.00     0.001 A 
ATOM     14  C10 MOL d          19.272  11.469  22.018  0.00  0.00     0.010 A 
ENDBRANCH   3   9
BRANCH   3  15
ATOM     15  C11 MOL d          22.627  11.091  20.590  0.00  0.00    -0.015 A 
ATOM     16  C12 MOL d          22.447  12.211  19.779  0.00  0.00     0.010 A 
ATOM     17  C13 MOL d          23.272  12.436  18.679  0.00  0.00     0.001 A 
ATOM     18  C14 MOL d          24.290  11.552  18.380  0.00  0.00     0.000 A 
ATOM     19  C15 MOL d          24.481  10.437  19.173  0.00  0.00     0.001 A 
ATOM     20  C16 MOL d          23.652  10.204  20.269  0.00  0.00     0.010 A 
ENDBRANCH   3  15
BRANCH   5  21
ATOM     21  N3  MOL d          22.827   9.196  24.821  0.00  0.00    -0.234 N 
ATOM     22  H2  MOL d          22.846   8.178  24.664  0.00  0.00     0.174 HD
ATOM     23  H3  MOL d          23.094   9.580  25.739  0.00  0.00     0.174 HD
ENDBRANCH   5  21
TORSDOF 3
