REMARK  6 active torsions:
REMARK  status: ('A' for Active; 'I' for Inactive)
REMARK    1  A    between atoms: CAV_10  and  CAR_11 
REMARK    2  A    between atoms: CAR_11  and  CBC_12 
REMARK    3  A    between atoms: CBC_12  and  CAQ_13 
REMARK    4  A    between atoms: CBC_12  and  N1_17 
REMARK    5  A    between atoms: CAQ_13  and  CAS_14 
REMARK    6  A    between atoms: CAU_22  and  CAT_23 
ROOT
ATOM      1  CBC WH6 d          23.692   7.237  15.916  0.00  0.00     0.110 C 
ENDROOT
BRANCH   1   2
ATOM      2  CAR WH6 d          24.166   8.625  15.381  0.00  0.00     0.065 C 
BRANCH   2   3
ATOM      3  CAV WH6 d          23.056   9.264  14.553  0.00  0.00    -0.045 A 
ATOM      4  CAZ WH6 d          21.959   9.913  15.124  0.00  0.00    -0.020 A 
ATOM      5  CAN WH6 d          21.853  10.030  16.510  0.00  0.00     0.013 A 
ATOM      6  CAY WH6 d          20.959  10.460  14.309  0.00  0.00    -0.025 A 
ATOM      7  CAH WH6 d          20.771  10.681  17.084  0.00  0.00     0.001 A 
ATOM      8  CAG WH6 d          19.780  11.226  16.269  0.00  0.00     0.001 A 
ATOM      9  CAL WH6 d          19.869  11.120  14.883  0.00  0.00     0.012 A 
ATOM     10  CAM WH6 d          21.047  10.351  12.924  0.00  0.00     0.012 A 
ATOM     11  CAI WH6 d          22.138   9.691  12.353  0.00  0.00     0.001 A 
ATOM     12  CAJ WH6 d          23.135   9.157  13.159  0.00  0.00     0.008 A 
ENDBRANCH   2   3
ENDBRANCH   1   2
BRANCH   1  13
ATOM     13  CAQ WH6 d          24.877   6.618  16.640  0.00  0.00     0.139 C 
BRANCH  13  14
ATOM     14  CAS WH6 d          24.457   5.410  17.451  0.00  0.00     0.174 C 
ATOM     15  OAE WH6 d          24.951   4.319  17.105  0.00  0.00    -0.648 OA
ATOM     16  OAA WH6 d          23.644   5.609  18.379  0.00  0.00    -0.648 OA
ENDBRANCH  13  14
ENDBRANCH   1  13
BRANCH   1  17
ATOM     17  N1  WH6 d          23.226   6.505  14.721  0.00  0.00    -0.274 N 
ATOM     18  CAX WH6 d          21.934   6.291  14.393  0.00  0.00     0.262 A 
ATOM     19  OAD WH6 d          20.960   6.608  15.084  0.00  0.00    -0.267 OA
ATOM     20  CBB WH6 d          21.870   5.649  13.147  0.00  0.00     0.049 A 
ATOM     21  CAP WH6 d          20.827   5.178  12.340  0.00  0.00     0.036 A 
ATOM     22  CBA WH6 d          23.199   5.484  12.734  0.00  0.00     0.048 A 
ATOM     23  CAU WH6 d          21.121   4.550  11.124  0.00  0.00     0.041 A 
ATOM     24  CAK WH6 d          22.439   4.395  10.720  0.00  0.00     0.019 A 
ATOM     25  CAO WH6 d          23.477   4.855  11.524  0.00  0.00     0.019 A 
ATOM     26  CAW WH6 d          24.005   6.048  13.730  0.00  0.00     0.262 A 
ATOM     27  OAC WH6 d          25.241   6.090  13.719  0.00  0.00    -0.267 OA
BRANCH  23  28
ATOM     28  CAT WH6 d          20.018   4.009  10.199  0.00  0.00     0.209 C 
ATOM     29  OAF WH6 d          20.174   4.122   8.960  0.00  0.00    -0.644 OA
ATOM     30  OAB WH6 d          19.040   3.455  10.725  0.00  0.00    -0.644 OA
ENDBRANCH  23  28
ENDBRANCH   1  17
TORSDOF 6
