REMARK  5 active torsions:
REMARK  status: ('A' for Active; 'I' for Inactive)
REMARK    1  A    between atoms: O1_1  and  C10_2 
REMARK    2  A    between atoms: C10_2  and  C11_3 
REMARK    3  A    between atoms: C10_2  and  C4_13 
REMARK    4  A    between atoms: C17_8  and  C18_9 
REMARK    5  A    between atoms: C1_22  and  O_23 
ROOT
ATOM      1  C10 QI9 d           4.446  -7.375 -56.049  0.00  0.00     0.183 C 
ENDROOT
BRANCH   1   2
ATOM      2  O1  QI9 d           4.718  -7.683 -57.395  0.00  0.00    -0.389 OA
ATOM      3  H1  QI9 d           3.977  -7.429 -57.933  0.00  0.00     0.210 HD
ENDBRANCH   1   2
BRANCH   1   4
ATOM      4  C11 QI9 d           5.657  -7.789 -55.160  0.00  0.00     0.221 C 
ATOM      5  N1  QI9 d           5.770  -9.315 -54.968  0.00  0.00    -0.063 N 
ATOM      6  C15 QI9 d           6.379 -10.013 -56.195  0.00  0.00     0.236 C 
ATOM      7  C16 QI9 d           6.750  -9.569 -53.702  0.00  0.00     0.244 C 
ATOM      8  H4  QI9 d           4.856  -9.700 -54.786  0.00  0.00     0.280 HD
ATOM      9  C14 QI9 d           7.779  -9.453 -56.446  0.00  0.00     0.033 C 
ATOM     10  C13 QI9 d           8.094  -8.344 -55.439  0.00  0.00    -0.002 C 
ATOM     11  C17 QI9 d           8.111  -8.930 -54.008  0.00  0.00     0.037 C 
ATOM     12  C12 QI9 d           7.022  -7.266 -55.622  0.00  0.00     0.041 C 
BRANCH  11  13
ATOM     13  C18 QI9 d           8.589  -7.867 -53.045  0.00  0.00    -0.030 C 
ATOM     14  C19 QI9 d           7.986  -7.389 -51.952  0.00  0.00     0.007 C 
ENDBRANCH  11  13
ENDBRANCH   1   4
BRANCH   1  15
ATOM     15  C4  QI9 d           4.113  -5.930 -55.822  0.00  0.00    -0.014 A 
ATOM     16  C5  QI9 d           4.568  -4.956 -56.742  0.00  0.00     0.030 A 
ATOM     17  C6  QI9 d           4.265  -3.621 -56.535  0.00  0.00     0.118 A 
ATOM     18  N   QI9 d           3.543  -3.153 -55.483  0.00  0.00    -0.260 NA
ATOM     19  C7  QI9 d           3.092  -4.095 -54.567  0.00  0.00     0.067 A 
ATOM     20  C3  QI9 d           3.356  -5.512 -54.693  0.00  0.00     0.004 A 
ATOM     21  C8  QI9 d           2.341  -3.619 -53.469  0.00  0.00     0.035 A 
ATOM     22  C2  QI9 d           2.855  -6.392 -53.707  0.00  0.00     0.051 A 
ATOM     23  C1  QI9 d           2.111  -5.877 -52.641  0.00  0.00     0.069 A 
ATOM     24  C9  QI9 d           1.861  -4.517 -52.519  0.00  0.00     0.039 A 
BRANCH  23  25
ATOM     25  O   QI9 d           1.626  -6.763 -51.673  0.00  0.00    -0.356 OA
ATOM     26  C   QI9 d           1.473  -8.156 -51.877  0.00  0.00     0.210 C 
ENDBRANCH  23  25
ENDBRANCH   1  15
TORSDOF 5
