REMARK  12 active torsions:
REMARK  status: ('A' for Active; 'I' for Inactive)
REMARK    1  A    between atoms: O1_7  and  C1_1 
REMARK    2  A    between atoms: C2_2  and  O2_8 
REMARK    3  A    between atoms: C3_3  and  O3_9 
REMARK    4  A    between atoms: C4_4  and  O4_10 
REMARK    5  A    between atoms: C5_5  and  C6_6 
REMARK    6  A    between atoms: C6_6  and  O6_12 
REMARK    7  A    between atoms: C4'_16  and  O1_7 
REMARK    8  A    between atoms: C1'_13  and  O1'_19 
REMARK    9  A    between atoms: C2'_14  and  O2'_20 
REMARK   10  A    between atoms: C3'_15  and  O3'_21 
REMARK   11  A    between atoms: C5'_17  and  C6'_18 
REMARK   12  A    between atoms: C6'_18  and  O6'_23 
ROOT
ATOM      1  O1  LBT d          -1.281   4.703  -0.497  0.00  0.00    -0.348 OA
ENDROOT
BRANCH   1   2
ATOM      2  C1  LBT d          -0.455   4.345  -1.586  0.00  0.00     0.292 C 
ATOM      3  C2  LBT d          -1.168   4.816  -2.859  0.00  0.00     0.204 C 
ATOM      4  C3  LBT d          -0.208   4.770  -4.044  0.00  0.00     0.183 C 
ATOM      5  C4  LBT d           1.046   5.568  -3.666  0.00  0.00     0.180 C 
ATOM      6  C5  LBT d           1.685   4.925  -2.388  0.00  0.00     0.179 C 
ATOM      7  O5  LBT d           0.691   5.161  -1.366  0.00  0.00    -0.348 OA
BRANCH   3   8
ATOM      8  O2  LBT d          -2.348   4.032  -3.173  0.00  0.00    -0.388 OA
ATOM      9  H8  LBT d          -2.772   4.394  -3.942  0.00  0.00     0.210 HD
ENDBRANCH   3   8
BRANCH   4  10
ATOM     10  O3  LBT d          -0.883   5.403  -5.190  0.00  0.00    -0.390 OA
ATOM     11  H9  LBT d          -1.658   4.902  -5.416  0.00  0.00     0.210 HD
ENDBRANCH   4  10
BRANCH   5  12
ATOM     12  O4  LBT d           0.699   6.980  -3.323  0.00  0.00    -0.390 OA
ATOM     13  H10 LBT d           0.082   6.987  -2.601  0.00  0.00     0.210 HD
ENDBRANCH   5  12
BRANCH   6  14
ATOM     14  C6  LBT d           2.990   5.641  -1.934  0.00  0.00     0.198 C 
BRANCH  14  15
ATOM     15  O6  LBT d           4.062   5.514  -2.938  0.00  0.00    -0.398 OA
ATOM     16  H11 LBT d           4.840   5.962  -2.627  0.00  0.00     0.209 HD
ENDBRANCH  14  15
ENDBRANCH   6  14
ENDBRANCH   1   2
BRANCH   1  17
ATOM     17  C4' LBT d          -1.087   3.977   0.732  0.00  0.00     0.187 C 
ATOM     18  C3' LBT d          -0.988   4.987   1.891  0.00  0.00     0.183 C 
ATOM     19  C2' LBT d          -1.002   4.356   3.263  0.00  0.00     0.204 C 
ATOM     20  C1' LBT d          -2.177   3.366   3.354  0.00  0.00     0.288 C 
ATOM     21  O5' LBT d          -2.220   2.443   2.304  0.00  0.00    -0.349 OA
ATOM     22  C5' LBT d          -2.303   3.041   0.947  0.00  0.00     0.180 C 
BRANCH  18  23
ATOM     23  O3' LBT d           0.148   5.869   1.823  0.00  0.00    -0.390 OA
ATOM     24  H21 LBT d           0.136   6.457   2.569  0.00  0.00     0.210 HD
ENDBRANCH  18  23
BRANCH  19  25
ATOM     25  O2' LBT d          -1.171   5.389   4.279  0.00  0.00    -0.388 OA
ATOM     26  H20 LBT d          -1.992   5.844   4.133  0.00  0.00     0.210 HD
ENDBRANCH  19  25
BRANCH  20  27
ATOM     27  O1' LBT d          -3.424   4.013   3.431  0.00  0.00    -0.369 OA
ATOM     28  H19 LBT d          -3.409   4.644   4.141  0.00  0.00     0.212 HD
ENDBRANCH  20  27
BRANCH  22  29
ATOM     29  C6' LBT d          -2.333   1.841   0.026  0.00  0.00     0.198 C 
BRANCH  29  30
ATOM     30  O6' LBT d          -1.010   1.218  -0.060  0.00  0.00    -0.398 OA
ATOM     31  H22 LBT d          -0.738   0.934   0.805  0.00  0.00     0.209 HD
ENDBRANCH  29  30
ENDBRANCH  22  29
ENDBRANCH   1  17
TORSDOF 12
