2y9g_ligand

Created by X-TOOL on Fri Sep 26 17:34:50 2014
 45 46  0  0  0  0  0  0  0  0999 V2000
   -0.4550    4.3450   -1.5860  C 0  0  0  2  0  4
   -1.1680    4.8160   -2.8590  C 0  0  0  2  0  4
   -0.2080    4.7700   -4.0440  C 0  0  0  2  0  4
    1.0460    5.5680   -3.6660  C 0  0  0  2  0  4
    1.6850    4.9250   -2.3880  C 0  0  0  2  0  4
    2.9900    5.6410   -1.9340  C 0  0  0  3  0  4
   -1.2810    4.7030   -0.4970  O 0  0  0  1  0  2
   -2.3480    4.0320   -3.1730  O 0  0  0  2  0  2
   -0.8830    5.4030   -5.1900  O 0  0  0  2  0  2
    0.6990    6.9800   -3.3230  O 0  0  0  2  0  2
    0.6910    5.1610   -1.3660  O 0  0  0  1  0  2
    4.0620    5.5140   -2.9380  O 0  0  0  2  0  2
   -2.1770    3.3660    3.3540  C 0  0  0  2  0  4
   -1.0020    4.3560    3.2630  C 0  0  0  2  0  4
   -0.9880    4.9870    1.8910  C 0  0  0  2  0  4
   -1.0870    3.9770    0.7320  C 0  0  0  2  0  4
   -2.3030    3.0410    0.9470  C 0  0  0  2  0  4
   -2.3330    1.8410    0.0260  C 0  0  0  3  0  4
   -3.4240    4.0130    3.4310  O 0  0  0  2  0  2
   -1.1710    5.3890    4.2790  O 0  0  0  2  0  2
    0.1480    5.8690    1.8230  O 0  0  0  2  0  2
   -2.2200    2.4430    2.3040  O 0  0  0  1  0  2
   -1.0100    1.2180   -0.0600  O 0  0  0  2  0  2
   -0.2174    3.2715   -1.6205  H 0  0  0  1  0  1
   -1.4835    5.8581   -2.7026  H 0  0  0  1  0  1
    0.0611    3.7314   -4.2865  H 0  0  0  1  0  1
    1.7608    5.5503   -4.5019  H 0  0  0  1  0  1
    1.8751    3.8525   -2.5414  H 0  0  0  1  0  1
    3.3319    5.1927   -0.9895  H 0  0  0  1  0  1
    2.7743    6.7081   -1.7765  H 0  0  0  1  0  1
   -2.7717    4.3938   -3.9424  H 0  0  0  1  0  1
   -1.6577    4.9018   -5.4162  H 0  0  0  1  0  1
    0.0821    6.9868   -2.6006  H 0  0  0  1  0  1
    4.8400    5.9617   -2.6272  H 0  0  0  1  0  1
   -2.0380    2.7980    4.2857  H 0  0  0  1  0  1
   -0.0546    3.8234    3.4327  H 0  0  0  1  0  1
   -1.8873    5.6160    1.8161  H 0  0  0  1  0  1
   -0.1636    3.3818    0.6772  H 0  0  0  1  0  1
   -3.2274    3.6257    0.8303  H 0  0  0  1  0  1
   -2.6451    2.1646   -0.9779  H 0  0  0  1  0  1
   -3.0531    1.1059    0.4147  H 0  0  0  1  0  1
   -3.4089    4.6438    4.1412  H 0  0  0  1  0  1
   -1.9922    5.8438    4.1330  H 0  0  0  1  0  1
    0.1362    6.4569    2.5692  H 0  0  0  1  0  1
   -0.7380    0.9342    0.8049  H 0  0  0  1  0  1
  1  2  1  0  0  1
  7  1  1  0  0  2
  1 11  1  0  0  1
  2  3  1  0  0  1
  2  8  1  0  0  2
  3  4  1  0  0  1
  3  9  1  0  0  2
  5  4  1  0  0  1
  4 10  1  0  0  2
  5  6  1  0  0  2
 11  5  1  0  0  1
  6 12  1  0  0  2
 16  7  1  0  0  2
 14 13  1  0  0  1
 13 19  1  0  0  2
 13 22  1  0  0  1
 15 14  1  0  0  1
 14 20  1  0  0  2
 15 16  1  0  0  1
 15 21  1  0  0  2
 16 17  1  0  0  1
 17 18  1  0  0  2
 17 22  1  0  0  1
 18 23  1  0  0  2
  1 24  1  0  0  2
  2 25  1  0  0  2
  3 26  1  0  0  2
  4 27  1  0  0  2
  5 28  1  0  0  2
  6 29  1  0  0  2
  6 30  1  0  0  2
  8 31  1  0  0  2
  9 32  1  0  0  2
 10 33  1  0  0  2
 12 34  1  0  0  2
 13 35  1  0  0  2
 14 36  1  0  0  2
 15 37  1  0  0  2
 16 38  1  0  0  2
 17 39  1  0  0  2
 18 40  1  0  0  2
 18 41  1  0  0  2
 19 42  1  0  0  2
 20 43  1  0  0  2
 21 44  1  0  0  2
 23 45  1  0  0  2
M  END
> <MOLECULAR_FORMULA>
C12H22O11

> <MOLECULAR_WEIGHT>
342.1

> <NUM_HB_ATOMS>
11 

> <NUM_ROTOR>
4  

> <XLOGP2>
-4.56

$$$$
