REMARK  6 active torsions:
REMARK  status: ('A' for Active; 'I' for Inactive)
REMARK       I    between atoms: C9_2  and  N2_4 
REMARK    1  A    between atoms: N2_4  and  C5_5 
REMARK    2  A    between atoms: C6_6  and  O6_7 
REMARK    3  A    between atoms: C4_8  and  O4_9 
REMARK    4  A    between atoms: C3_10  and  O3_11 
REMARK    5  A    between atoms: C2_12  and  C8_13 
REMARK    6  A    between atoms: C8_13  and  O8_14 
ROOT
ATOM      1  C5  HQ6 d           7.989 -11.345   4.044  0.00  0.00     0.146 C 
ATOM      2  C6  HQ6 d           7.405 -12.796   4.230  0.00  0.00     0.169 C 
ATOM      3  C4  HQ6 d           7.518 -10.489   2.846  0.00  0.00     0.174 C 
ATOM      4  C3  HQ6 d           6.474 -11.070   1.876  0.00  0.00     0.181 C 
ATOM      5  C2  HQ6 d           5.128 -11.432   2.562  0.00  0.00     0.240 C 
ATOM      6  N1  HQ6 d           5.244 -12.778   3.120  0.00  0.00    -0.064 N 
ATOM      7  C7  HQ6 d           5.878 -12.889   4.407  0.00  0.00     0.266 C 
ATOM      8  H16 HQ6 d           5.775 -13.335   2.469  0.00  0.00     0.277 HD
ATOM      9  H17 HQ6 d           4.313 -13.156   3.204  0.00  0.00     0.277 HD
ENDROOT
BRANCH   1  10
ATOM     10  N2  HQ6 d           8.065 -10.436   5.200  0.00  0.00    -0.352 N 
ATOM     11  C9  HQ6 d           6.945  -9.923   5.960  0.00  0.00     0.214 C 
ATOM     12  O9  HQ6 d           5.814 -10.004   5.505  0.00  0.00    -0.274 OA
ATOM     13  C10 HQ6 d           7.263  -9.294   7.328  0.00  0.00     0.117 C 
ATOM     14  H4  HQ6 d           8.978 -10.145   5.487  0.00  0.00     0.163 HD
ENDBRANCH   1  10
BRANCH   2  15
ATOM     15  O6  HQ6 d           7.726 -13.677   3.134  0.00  0.00    -0.392 OA
ATOM     16  H7  HQ6 d           7.351 -14.534   3.298  0.00  0.00     0.210 HD
ENDBRANCH   2  15
BRANCH   3  17
ATOM     17  O4  HQ6 d           8.689 -10.155   2.097  0.00  0.00    -0.391 OA
ATOM     18  H9  HQ6 d           8.444  -9.626   1.347  0.00  0.00     0.210 HD
ENDBRANCH   3  17
BRANCH   4  19
ATOM     19  O3  HQ6 d           6.316 -10.196   0.782  0.00  0.00    -0.391 OA
ATOM     20  H11 HQ6 d           7.148 -10.098   0.333  0.00  0.00     0.210 HD
ENDBRANCH   4  19
BRANCH   5  21
ATOM     21  C8  HQ6 d           3.969 -11.551   1.539  0.00  0.00     0.199 C 
BRANCH  21  22
ATOM     22  O8  HQ6 d           4.168 -12.689   0.719  0.00  0.00    -0.399 OA
ATOM     23  H15 HQ6 d           3.455 -12.757   0.095  0.00  0.00     0.209 HD
ENDBRANCH  21  22
ENDBRANCH   5  21
TORSDOF 6
