REMARK  5 active torsions:
REMARK  status: ('A' for Active; 'I' for Inactive)
REMARK    1  A    between atoms: C7_19  and  O38_20 
REMARK    2  A    between atoms: C10_25  and  O26_26 
REMARK    3  A    between atoms: C11_28  and  O28_29 
REMARK    4  A    between atoms: C15_36  and  O31_37 
REMARK    5  A    between atoms: O31_37  and  C32_38 
REMARK       I    between atoms: C32_38  and  N34_40 
ROOT
ATOM      1  O23 BC2 d         -26.446  34.514  -3.463  0.00  0.00    -0.285 OA
ATOM      2  C2  BC2 d         -25.893  33.648  -4.177  0.00  0.00     0.207 A 
ATOM      3  C3  BC2 d         -25.391  32.366  -3.524  0.00  0.00     0.090 A 
ATOM      4  C4  BC2 d         -24.806  31.432  -4.289  0.00  0.00     0.088 A 
ATOM      5  C5  BC2 d         -24.614  31.658  -5.796  0.00  0.00     0.174 A 
ATOM      6  O24 BC2 d         -24.052  30.779  -6.501  0.00  0.00    -0.288 OA
ATOM      7  C6  BC2 d         -25.102  32.953  -6.435  0.00  0.00     0.068 A 
ATOM      8  N22 BC2 d         -25.561  32.159  -2.190  0.00  0.00    -0.320 N 
ATOM      9  C21 BC2 d         -25.055  32.926  -1.195  0.00  0.00     0.251 C 
ATOM     10  O37 BC2 d         -25.222  32.599  -0.023  0.00  0.00    -0.268 OA
ATOM     11  C20 BC2 d         -24.310  34.179  -1.418  0.00  0.00     0.006 C 
ATOM     12  C36 BC2 d         -24.842  35.435  -0.771  0.00  0.00     0.054 C 
ATOM     13  C19 BC2 d         -23.168  34.191  -2.136  0.00  0.00     0.012 C 
ATOM     14  C18 BC2 d         -22.394  35.412  -2.407  0.00  0.00    -0.003 C 
ATOM     15  C17 BC2 d         -21.099  35.466  -2.731  0.00  0.00    -0.020 C 
ATOM     16  C16 BC2 d         -20.317  34.184  -2.745  0.00  0.00     0.038 C 
ATOM     17  C35 BC2 d         -19.266  34.148  -1.630  0.00  0.00     0.017 C 
ATOM     18  C1  BC2 d         -25.699  33.894  -5.672  0.00  0.00     0.027 A 
ATOM     19  C7  BC2 d         -26.181  35.178  -6.256  0.00  0.00     0.161 C 
ATOM     20  C8  BC2 d         -25.126  36.295  -6.200  0.00  0.00     0.018 C 
ATOM     21  C25 BC2 d         -24.555  36.620  -4.816  0.00  0.00     0.013 C 
ATOM     22  C9  BC2 d         -24.076  36.192  -7.311  0.00  0.00     0.041 C 
ATOM     23  C10 BC2 d         -22.689  36.702  -6.967  0.00  0.00     0.150 C 
ATOM     24  C11 BC2 d         -21.610  36.326  -7.961  0.00  0.00     0.157 C 
ATOM     25  C12 BC2 d         -20.925  34.990  -7.579  0.00  0.00     0.036 C 
ATOM     26  C29 BC2 d         -19.870  34.587  -8.607  0.00  0.00     0.017 C 
ATOM     27  C13 BC2 d         -20.223  34.920  -6.230  0.00  0.00    -0.015 C 
ATOM     28  C14 BC2 d         -20.422  33.867  -5.407  0.00  0.00    -0.057 C 
ATOM     29  C30 BC2 d         -21.338  32.734  -5.782  0.00  0.00     0.046 C 
ATOM     30  C15 BC2 d         -19.743  33.693  -4.086  0.00  0.00     0.169 C 
ATOM     31  H3  BC2 d         -26.110  31.368  -1.919  0.00  0.00     0.169 HD
ENDROOT
BRANCH  30  32
ATOM     32  O31 BC2 d         -18.763  32.648  -3.990  0.00  0.00    -0.294 OA
BRANCH  32  33
ATOM     33  C32 BC2 d         -17.542  32.666  -4.778  0.00  0.00     0.358 C 
ATOM     34  O33 BC2 d         -16.825  31.678  -4.651  0.00  0.00    -0.239 OA
ATOM     35  N34 BC2 d         -17.209  33.677  -5.573  0.00  0.00    -0.346 N 
ATOM     36  H41 BC2 d         -16.357  33.642  -6.096  0.00  0.00     0.161 HD
ATOM     37  H42 BC2 d         -17.810  34.472  -5.649  0.00  0.00     0.161 HD
ENDBRANCH  32  33
ENDBRANCH  30  32
BRANCH  24  38
ATOM     38  O28 BC2 d         -22.218  36.112  -9.232  0.00  0.00    -0.387 OA
ATOM     39  C40 BC2 d         -21.734  37.037 -10.228  0.00  0.00     0.202 C 
ENDBRANCH  24  38
BRANCH  23  40
ATOM     40  O26 BC2 d         -22.860  38.101  -7.278  0.00  0.00    -0.388 OA
ATOM     41  C27 BC2 d         -21.871  39.006  -6.771  0.00  0.00     0.202 C 
ENDBRANCH  23  40
BRANCH  19  42
ATOM     42  O38 BC2 d         -26.567  34.987  -7.627  0.00  0.00    -0.386 OA
ATOM     43  C39 BC2 d         -27.924  34.537  -7.749  0.00  0.00     0.202 C 
ENDBRANCH  19  42
TORSDOF 5
