REMARK  7 active torsions:
REMARK  status: ('A' for Active; 'I' for Inactive)
REMARK    1  A    between atoms: C5_3  and  C7_7 
REMARK    2  A    between atoms: C9_11  and  N13_13 
REMARK    3  A    between atoms: N13_13  and  C14_14 
REMARK    4  A    between atoms: C16_18  and  N21_20 
REMARK       I    between atoms: N21_20  and  C22_21 
REMARK    5  A    between atoms: C22_21  and  C23_22 
REMARK    6  A    between atoms: C27_25  and  C46_28 
REMARK    7  A    between atoms: C46_28  and  N48_29 
ROOT
ATOM      1  C14 STI d          13.172   8.218  18.245  0.00  0.00     0.057 A 
ATOM      2  C19 STI d          12.864   8.126  16.901  0.00  0.00    -0.035 A 
ATOM      3  C18 STI d          13.785   8.573  15.964  0.00  0.00     0.011 A 
ATOM      4  C17 STI d          14.998   9.095  16.339  0.00  0.00     0.030 A 
ATOM      5  C16 STI d          15.337   9.192  17.680  0.00  0.00     0.037 A 
ATOM      6  C15 STI d          14.411   8.726  18.616  0.00  0.00     0.060 A 
ATOM      7  C20 STI d          11.517   7.562  16.433  0.00  0.00     0.050 C 
ENDROOT
BRANCH   5   8
ATOM      8  N21 STI d          16.571   9.663  17.992  0.00  0.00    -0.323 N 
ATOM      9  C22 STI d          17.077   9.836  19.227  0.00  0.00     0.256 C 
ATOM     10  O29 STI d          16.448   9.748  20.287  0.00  0.00    -0.267 OA
ATOM     11  H11 STI d          17.165   9.906  17.226  0.00  0.00     0.169 HD
BRANCH   9  12
ATOM     12  C23 STI d          18.564  10.223  19.289  0.00  0.00     0.032 A 
ATOM     13  C25 STI d          19.247  10.823  18.238  0.00  0.00     0.017 A 
ATOM     14  C26 STI d          20.598  11.153  18.375  0.00  0.00     0.010 A 
ATOM     15  C27 STI d          21.281  10.887  19.557  0.00  0.00    -0.033 A 
ATOM     16  C28 STI d          20.590  10.284  20.579  0.00  0.00     0.010 A 
ATOM     17  C29 STI d          19.247   9.961  20.456  0.00  0.00     0.017 A 
BRANCH  15  18
ATOM     18  C46 STI d          22.785  11.255  19.771  0.00  0.00     0.273 C 
BRANCH  18  19
ATOM     19  N48 STI d          23.082  12.619  19.284  0.00  0.00    -0.064 N 
ATOM     20  C53 STI d          22.263  13.509  20.022  0.00  0.00     0.263 C 
ATOM     21  C52 STI d          22.513  14.894  19.409  0.00  0.00     0.262 C 
ATOM     22  N51 STI d          23.920  15.334  19.584  0.00  0.00    -0.072 N 
ATOM     23  C54 STI d          24.284  16.496  18.778  0.00  0.00     0.269 C 
ATOM     24  C50 STI d          24.718  14.303  18.843  0.00  0.00     0.262 C 
ATOM     25  H23 STI d          24.160  15.441  20.557  0.00  0.00     0.279 HD
ATOM     26  C49 STI d          24.487  12.894  19.459  0.00  0.00     0.263 C 
ATOM     27  H18 STI d          22.855  12.691  18.305  0.00  0.00     0.280 HD
ENDBRANCH  18  19
ENDBRANCH  15  18
ENDBRANCH   9  12
ENDBRANCH   5   8
BRANCH   1  28
ATOM     28  N13 STI d          12.337   7.743  19.190  0.00  0.00    -0.188 N 
ATOM     29  H7  STI d          12.524   6.802  19.565  0.00  0.00     0.184 HD
BRANCH  28  30
ATOM     30  C9  STI d          11.291   8.403  19.671  0.00  0.00     0.727 A 
ATOM     31  N10 STI d          11.082   9.676  19.327  0.00  0.00    -0.075 NA
ATOM     32  C11 STI d          10.043  10.333  19.805  0.00  0.00     0.139 A 
ATOM     33  C12 STI d           9.136   9.725  20.671  0.00  0.00     0.053 A 
ATOM     34  C7  STI d           9.352   8.390  21.009  0.00  0.00     0.089 A 
ATOM     35  N8  STI d          10.426   7.759  20.480  0.00  0.00    -0.062 NA
BRANCH  34  36
ATOM     36  C5  STI d           8.474   7.718  21.866  0.00  0.00     0.011 A 
ATOM     37  C6  STI d           7.413   8.386  22.500  0.00  0.00     0.017 A 
ATOM     38  C1  STI d           6.574   7.654  23.339  0.00  0.00     0.020 A 
ATOM     39  C2  STI d           6.808   6.284  23.518  0.00  0.00     0.116 A 
ATOM     40  N3  STI d           7.815   5.680  22.909  0.00  0.00    -0.272 NA
ATOM     41  C4  STI d           8.633   6.351  22.102  0.00  0.00     0.130 A 
ENDBRANCH  34  36
ENDBRANCH  28  30
ENDBRANCH   1  28
TORSDOF 7
