REMARK  22 active torsions:
REMARK  status: ('A' for Active; 'I' for Inactive)
REMARK    1  A    between atoms: N4B_18  and  C1A_1 
REMARK    2  A    between atoms: C2A_2  and  O2A_8 
REMARK    3  A    between atoms: C3A_3  and  O3A_9 
REMARK    4  A    between atoms: C4A_4  and  O4A_10 
REMARK    5  A    between atoms: C5A_5  and  C6A_6 
REMARK    6  A    between atoms: C6A_6  and  O6A_11 
REMARK    7  A    between atoms: O4C_30  and  C1B_12 
REMARK    8  A    between atoms: C2B_13  and  O2B_19 
REMARK    9  A    between atoms: C3B_14  and  O3B_20 
REMARK   10  A    between atoms: C4B_15  and  N4B_18 
REMARK   11  A    between atoms: O4D_42  and  C1C_22 
REMARK   12  A    between atoms: C2C_23  and  O2C_28 
REMARK   13  A    between atoms: C3C_24  and  O3C_29 
REMARK   14  A    between atoms: C4C_25  and  O4C_30 
REMARK   15  A    between atoms: C5C_26  and  C6C_27 
REMARK   16  A    between atoms: C6C_27  and  O6C_32 
REMARK   17  A    between atoms: C1D_33  and  O1D_39 
REMARK   18  A    between atoms: C2D_34  and  O2D_40 
REMARK   19  A    between atoms: C3D_35  and  O3D_41 
REMARK   20  A    between atoms: C4D_36  and  O4D_42 
REMARK   21  A    between atoms: C5D_37  and  C6D_38 
REMARK   22  A    between atoms: C6D_38  and  O6D_44 
ROOT
ATOM      1  O4C ACR d           0.166  -1.323 -21.894  0.00  0.00    -0.348 OA
ENDROOT
BRANCH   1   2
ATOM      2  C1B ACR d          -0.600  -1.888 -20.833  0.00  0.00     0.292 C 
ATOM      3  C2B ACR d           0.315  -2.863 -20.111  0.00  0.00     0.204 C 
ATOM      4  C3B ACR d           0.701  -4.053 -21.003  0.00  0.00     0.184 C 
ATOM      5  C4B ACR d          -0.563  -4.786 -21.408  0.00  0.00     0.246 C 
ATOM      6  C5B ACR d          -1.426  -3.765 -22.151  0.00  0.00     0.154 C 
ATOM      7  C6B ACR d          -2.764  -4.386 -22.488  0.00  0.00     0.042 C 
ATOM      8  O5B ACR d          -1.728  -2.619 -21.312  0.00  0.00    -0.351 OA
BRANCH   3   9
ATOM      9  O2B ACR d           1.495  -2.152 -19.697  0.00  0.00    -0.388 OA
ATOM     10  H22 ACR d           1.955  -1.831 -20.464  0.00  0.00     0.210 HD
ENDBRANCH   3   9
BRANCH   4  11
ATOM     11  O3B ACR d           1.493  -4.870 -20.147  0.00  0.00    -0.391 OA
ATOM     12  H23 ACR d           2.281  -4.399 -19.901  0.00  0.00     0.210 HD
ENDBRANCH   4  11
BRANCH   5  13
ATOM     13  N4B ACR d          -0.310  -5.998 -22.222  0.00  0.00    -0.056 N 
ATOM     14  H20 ACR d          -1.011  -6.024 -22.945  0.00  0.00     0.278 HD
ATOM     15  H21 ACR d           0.601  -5.892 -22.641  0.00  0.00     0.278 HD
BRANCH  13  16
ATOM     16  C1A ACR d          -0.331  -7.321 -21.539  0.00  0.00     0.240 C 
ATOM     17  C2A ACR d           0.043  -8.560 -22.389  0.00  0.00     0.184 C 
ATOM     18  C3A ACR d          -1.112  -8.910 -23.330  0.00  0.00     0.182 C 
ATOM     19  C4A ACR d          -2.252  -9.463 -22.484  0.00  0.00     0.180 C 
ATOM     20  C5A ACR d          -2.562  -8.516 -21.376  0.00  0.00    -0.027 C 
ATOM     21  C7A ACR d          -1.697  -7.581 -20.919  0.00  0.00     0.016 C 
BRANCH  17  22
ATOM     22  O2A ACR d           1.248  -8.315 -23.133  0.00  0.00    -0.390 OA
ATOM     23  H8  ACR d           1.478  -9.094 -23.626  0.00  0.00     0.210 HD
ENDBRANCH  17  22
BRANCH  18  24
ATOM     24  O3A ACR d          -0.775  -9.981 -24.234  0.00  0.00    -0.390 OA
ATOM     25  H9  ACR d          -1.534 -10.198 -24.762  0.00  0.00     0.210 HD
ENDBRANCH  18  24
BRANCH  19  26
ATOM     26  O4A ACR d          -3.407  -9.630 -23.330  0.00  0.00    -0.388 OA
ATOM     27  H10 ACR d          -3.199 -10.235 -24.032  0.00  0.00     0.210 HD
ENDBRANCH  19  26
BRANCH  20  28
ATOM     28  C6A ACR d          -3.892  -8.669 -20.706  0.00  0.00     0.201 C 
BRANCH  28  29
ATOM     29  O6A ACR d          -3.738  -9.754 -19.773  0.00  0.00    -0.397 OA
ATOM     30  H11 ACR d          -4.559  -9.896 -19.316  0.00  0.00     0.209 HD
ENDBRANCH  28  29
ENDBRANCH  20  28
ENDBRANCH  13  16
ENDBRANCH   5  13
ENDBRANCH   1   2
BRANCH   1  31
ATOM     31  C4C ACR d          -0.491  -0.336 -22.699  0.00  0.00     0.187 C 
ATOM     32  C3C ACR d          -0.409   1.043 -22.057  0.00  0.00     0.183 C 
ATOM     33  C2C ACR d          -1.089   2.037 -22.988  0.00  0.00     0.204 C 
ATOM     34  C1C ACR d          -0.352   2.077 -24.298  0.00  0.00     0.292 C 
ATOM     35  O5C ACR d          -0.233   0.740 -24.843  0.00  0.00    -0.348 OA
ATOM     36  C5C ACR d           0.318  -0.267 -23.977  0.00  0.00     0.180 C 
BRANCH  32  37
ATOM     37  O3C ACR d          -1.222   1.058 -20.885  0.00  0.00    -0.390 OA
ATOM     38  H32 ACR d          -1.175   1.916 -20.480  0.00  0.00     0.210 HD
ENDBRANCH  32  37
BRANCH  33  39
ATOM     39  O2C ACR d          -1.041   3.342 -22.398  0.00  0.00    -0.388 OA
ATOM     40  H31 ACR d          -0.135   3.596 -22.266  0.00  0.00     0.210 HD
ENDBRANCH  33  39
BRANCH  34  41
ATOM     41  O4D ACR d           0.910   2.632 -23.950  0.00  0.00    -0.348 OA
BRANCH  41  42
ATOM     42  C4D ACR d           1.654   3.035 -25.111  0.00  0.00     0.187 C 
ATOM     43  C3D ACR d           1.392   4.479 -25.526  0.00  0.00     0.183 C 
ATOM     44  C2D ACR d           2.435   4.973 -26.539  0.00  0.00     0.204 C 
ATOM     45  C1D ACR d           3.878   4.673 -26.126  0.00  0.00     0.288 C 
ATOM     46  O5D ACR d           3.979   3.285 -25.795  0.00  0.00    -0.349 OA
ATOM     47  C5D ACR d           3.109   2.861 -24.732  0.00  0.00     0.180 C 
BRANCH  43  48
ATOM     48  O3D ACR d           0.108   4.532 -26.158  0.00  0.00    -0.390 OA
ATOM     49  H43 ACR d          -0.076   5.425 -26.425  0.00  0.00     0.210 HD
ENDBRANCH  43  48
BRANCH  44  50
ATOM     50  O2D ACR d           2.239   6.384 -26.726  0.00  0.00    -0.388 OA
ATOM     51  H42 ACR d           1.362   6.540 -27.055  0.00  0.00     0.210 HD
ENDBRANCH  44  50
BRANCH  45  52
ATOM     52  O1D ACR d           4.295   5.427 -24.971  0.00  0.00    -0.369 OA
ATOM     53  H41 ACR d           5.192   5.202 -24.754  0.00  0.00     0.212 HD
ENDBRANCH  45  52
BRANCH  47  54
ATOM     54  C6D ACR d           3.286   1.379 -24.484  0.00  0.00     0.198 C 
BRANCH  54  55
ATOM     55  O6D ACR d           4.493   1.199 -23.785  0.00  0.00    -0.398 OA
ATOM     56  H44 ACR d           4.626   0.273 -23.618  0.00  0.00     0.209 HD
ENDBRANCH  54  55
ENDBRANCH  47  54
ENDBRANCH  41  42
ENDBRANCH  34  41
BRANCH  36  57
ATOM     57  C6C ACR d           0.288  -1.614 -24.699  0.00  0.00     0.198 C 
BRANCH  57  58
ATOM     58  O6C ACR d          -1.065  -1.883 -25.114  0.00  0.00    -0.398 OA
ATOM     59  H33 ACR d          -1.358  -1.195 -25.700  0.00  0.00     0.209 HD
ENDBRANCH  57  58
ENDBRANCH  36  57
ENDBRANCH   1  31
TORSDOF 22
