REMARK  0 active torsions:
REMARK  status: ('A' for Active; 'I' for Inactive)
ROOT
ATOM      1  C1  PXY d          26.645   6.141   4.668  0.00  0.00    -0.062 A 
ATOM      2  C2  PXY d          26.781   5.671   3.444  0.00  0.00     0.007 A 
ATOM      3  C3  PXY d          27.270   6.472   2.435  0.00  0.00     0.007 A 
ATOM      4  C4  PXY d          27.583   7.775   2.686  0.00  0.00    -0.062 A 
ATOM      5  C5  PXY d          27.442   8.266   3.939  0.00  0.00     0.007 A 
ATOM      6  C6  PXY d          26.979   7.434   4.947  0.00  0.00     0.007 A 
ATOM      7  C1' PXY d          26.137   5.226   5.770  0.00  0.00     0.048 C 
ATOM      8  C4' PXY d          28.102   8.664   1.552  0.00  0.00     0.048 C 
ENDROOT
TORSDOF 0
