REMARK  1 active torsions:
REMARK  status: ('A' for Active; 'I' for Inactive)
REMARK    1  A    between atoms: C1_1  and  O1_7 
ROOT
ATOM      1  C1  IPH d          27.487   6.637   3.509  0.00  0.00     0.065 A 
ATOM      2  C2  IPH d          26.738   5.485   3.281  0.00  0.00     0.036 A 
ATOM      3  C3  IPH d          26.000   4.920   4.320  0.00  0.00     0.003 A 
ATOM      4  C4  IPH d          26.015   5.482   5.588  0.00  0.00     0.000 A 
ATOM      5  C5  IPH d          26.791   6.616   5.790  0.00  0.00     0.003 A 
ATOM      6  C6  IPH d          27.525   7.220   4.765  0.00  0.00     0.036 A 
ENDROOT
BRANCH   1   7
ATOM      7  O1  IPH d          28.203   7.199   2.514  0.00  0.00    -0.361 OA
ATOM      8  H6  IPH d          28.083   6.697   1.716  0.00  0.00     0.217 HD
ENDBRANCH   1   7
TORSDOF 1
