REMARK  5 active torsions:
REMARK  status: ('A' for Active; 'I' for Inactive)
REMARK    1  A    between atoms: C09_9  and  N10_10 
REMARK    2  A    between atoms: N10_10  and  C11_11 
REMARK    3  A    between atoms: C11_11  and  C12_12 
REMARK    4  A    between atoms: C12_12  and  C13_13 
REMARK    5  A    between atoms: N18_18  and  C19_19 
ROOT
ATOM      1  N01 P29 d          20.134   9.939  19.707  0.00  0.00    -0.162 NA
ATOM      2  C02 P29 d          20.439  10.035  18.386  0.00  0.00     0.166 A 
ATOM      3  C03 P29 d          21.407   9.065  18.066  0.00  0.00     0.112 A 
ATOM      4  C04 P29 d          21.665   8.355  19.300  0.00  0.00     0.210 A 
ATOM      5  N05 P29 d          20.876   8.932  20.252  0.00  0.00    -0.041 N 
ATOM      6  N06 P29 d          22.474   7.333  19.632  0.00  0.00    -0.040 NA
ATOM      7  C07 P29 d          22.466   6.929  20.901  0.00  0.00     0.744 A 
ATOM      8  N08 P29 d          21.711   7.483  21.843  0.00  0.00     0.130 NA
ATOM      9  C09 P29 d          20.919   8.491  21.495  0.00  0.00     0.741 A 
ATOM     10  N18 P29 d          23.221   5.892  21.351  0.00  0.00    -0.188 N 
ATOM     11  C25 P29 d          22.069   8.893  16.809  0.00  0.00     0.105 C 
ATOM     12  N26 P29 d          22.661   8.854  15.813  0.00  0.00    -0.191 NA
ATOM     13  H10 P29 d          23.207   5.742  22.370  0.00  0.00     0.184 HD
ENDROOT
BRANCH   9  14
ATOM     14  N10 P29 d          20.155   9.104  22.429  0.00  0.00    -0.222 N 
ATOM     15  H2  P29 d          19.565   9.901  22.150  0.00  0.00     0.177 HD
BRANCH  14  16
ATOM     16  C11 P29 d          20.144   8.666  23.823  0.00  0.00     0.144 C 
BRANCH  16  17
ATOM     17  C12 P29 d          21.314   9.260  24.607  0.00  0.00     0.078 C 
BRANCH  17  18
ATOM     18  C13 P29 d          21.257   8.715  26.016  0.00  0.00     0.029 A 
ATOM     19  N14 P29 d          21.290   7.395  26.301  0.00  0.00    -0.353 N 
ATOM     20  C15 P29 d          21.222   7.288  27.657  0.00  0.00     0.207 A 
ATOM     21  H7  P29 d          21.354   6.621  25.625  0.00  0.00     0.166 HD
ATOM     22  N16 P29 d          21.146   8.532  28.212  0.00  0.00    -0.254 NA
ATOM     23  C17 P29 d          21.166   9.454  27.212  0.00  0.00     0.143 A 
ENDBRANCH  17  18
ENDBRANCH  16  17
ENDBRANCH  14  16
ENDBRANCH   9  14
BRANCH  10  24
ATOM     24  C19 P29 d          23.991   5.026  20.643  0.00  0.00     0.049 A 
ATOM     25  C20 P29 d          23.997   4.927  19.249  0.00  0.00     0.030 A 
ATOM     26  C21 P29 d          24.819   4.016  18.589  0.00  0.00     0.002 A 
ATOM     27  C22 P29 d          25.653   3.185  19.332  0.00  0.00     0.000 A 
ATOM     28  C23 P29 d          25.650   3.267  20.723  0.00  0.00     0.002 A 
ATOM     29  C24 P29 d          24.823   4.181  21.375  0.00  0.00     0.030 A 
ENDBRANCH  10  24
TORSDOF 5
