REMARK  14 active torsions:
REMARK  status: ('A' for Active; 'I' for Inactive)
REMARK    1  A    between atoms: C2_2  and  N1_1 
REMARK    2  A    between atoms: S8_8  and  C5_5 
REMARK    3  A    between atoms: N11_11  and  S8_8 
REMARK    4  A    between atoms: N11_11  and  C12_12 
REMARK    5  A    between atoms: C16_16  and  N11_11 
REMARK    6  A    between atoms: C12_12  and  C13_13 
REMARK    7  A    between atoms: C17_17  and  C16_16 
REMARK    8  A    between atoms: C17_17  and  O18_18 
REMARK    9  A    between atoms: C19_19  and  C17_17 
REMARK   10  A    between atoms: C19_19  and  N20_20 
REMARK   11  A    between atoms: C32_32  and  C19_19 
REMARK       I    between atoms: N20_20  and  C21_21 
REMARK   12  A    between atoms: C21_21  and  O23_23 
REMARK   13  A    between atoms: O23_23  and  C24_24 
REMARK   14  A    between atoms: C38_38  and  C32_32 
ROOT
ATOM      1  C17 MOL d         -13.162  19.255 -18.317  0.00  0.00     0.160 C 
ENDROOT
BRANCH   1   2
ATOM      2  C16 MOL d         -13.934  20.521 -18.683  0.00  0.00     0.169 C 
BRANCH   2   3
ATOM      3  N11 MOL d         -13.706  21.572 -17.702  0.00  0.00    -0.304 N 
BRANCH   3   4
ATOM      4  S8  MOL d         -12.969  22.862 -18.361  0.00  0.00     0.260 S 
ATOM      5  O9  MOL d         -11.975  22.361 -19.354  0.00  0.00    -0.200 OA
ATOM      6  O10 MOL d         -12.361  23.691 -17.277  0.00  0.00    -0.200 OA
BRANCH   4   7
ATOM      7  C5  MOL d         -14.145  23.866 -19.195  0.00  0.00     0.079 A 
ATOM      8  C4  MOL d         -14.647  23.518 -20.438  0.00  0.00     0.027 A 
ATOM      9  C3  MOL d         -15.582  24.347 -21.068  0.00  0.00     0.030 A 
ATOM     10  C2  MOL d         -15.999  25.512 -20.436  0.00  0.00     0.025 A 
ATOM     11  C7  MOL d         -15.481  25.845 -19.181  0.00  0.00     0.030 A 
ATOM     12  C6  MOL d         -14.551  25.022 -18.555  0.00  0.00     0.027 A 
BRANCH  10  13
ATOM     13  N1  MOL d         -16.875  26.195 -21.131  0.00  0.00    -0.399 N 
ATOM     14  H1  MOL d         -17.185  25.849 -22.050  0.00  0.00     0.156 HD
ATOM     15  H2  MOL d         -17.253  27.078 -20.758  0.00  0.00     0.156 HD
ENDBRANCH  10  13
ENDBRANCH   4   7
ENDBRANCH   3   4
BRANCH   3  16
ATOM     16  C12 MOL d         -14.800  21.823 -16.795  0.00  0.00     0.139 C 
BRANCH  16  17
ATOM     17  C13 MOL d         -14.762  20.819 -15.642  0.00  0.00    -0.004 C 
ATOM     18  C14 MOL d         -13.403  20.861 -14.923  0.00  0.00     0.011 C 
ATOM     19  C15 MOL d         -15.918  21.049 -14.661  0.00  0.00     0.011 C 
ENDBRANCH  16  17
ENDBRANCH   3  16
ENDBRANCH   2   3
ENDBRANCH   1   2
BRANCH   1  20
ATOM     20  O18 MOL d         -13.617  18.148 -19.109  0.00  0.00    -0.392 OA
ATOM     21  H19 MOL d         -13.129  17.368 -18.871  0.00  0.00     0.210 HD
ENDBRANCH   1  20
BRANCH   1  22
ATOM     22  C19 MOL d         -11.650  19.388 -18.559  0.00  0.00     0.121 C 
BRANCH  22  23
ATOM     23  N20 MOL d         -11.023  18.212 -17.950  0.00  0.00    -0.329 N 
ATOM     24  C21 MOL d         -10.150  18.279 -16.939  0.00  0.00     0.361 C 
ATOM     25  O22 MOL d          -9.855  19.348 -16.401  0.00  0.00    -0.238 OA
ATOM     26  H21 MOL d         -11.261  17.310 -18.310  0.00  0.00     0.165 HD
BRANCH  24  27
ATOM     27  O23 MOL d          -9.601  17.120 -16.539  0.00  0.00    -0.296 OA
BRANCH  27  28
ATOM     28  C24 MOL d          -8.526  17.092 -15.636  0.00  0.00     0.166 C 
ATOM     29  C25 MOL d          -8.710  15.847 -14.753  0.00  0.00     0.204 C 
ATOM     30  O26 MOL d          -8.290  14.778 -15.616  0.00  0.00    -0.358 OA
ATOM     31  C27 MOL d          -7.190  15.247 -16.394  0.00  0.00     0.266 C 
ATOM     32  O28 MOL d          -7.358  14.884 -17.777  0.00  0.00    -0.361 OA
ATOM     33  C31 MOL d          -7.177  16.766 -16.294  0.00  0.00     0.075 C 
ATOM     34  C29 MOL d          -7.645  16.047 -18.534  0.00  0.00     0.171 C 
ATOM     35  C30 MOL d          -7.073  17.236 -17.757  0.00  0.00     0.038 C 
ENDBRANCH  27  28
ENDBRANCH  24  27
ENDBRANCH  22  23
BRANCH  22  36
ATOM     36  C32 MOL d         -11.339  19.433 -20.059  0.00  0.00     0.066 C 
BRANCH  36  37
ATOM     37  C38 MOL d          -9.825  19.535 -20.280  0.00  0.00    -0.056 A 
ATOM     38  C33 MOL d          -9.118  18.455 -20.798  0.00  0.00     0.007 A 
ATOM     39  C34 MOL d          -7.740  18.546 -20.954  0.00  0.00     0.001 A 
ATOM     40  C35 MOL d          -7.064  19.697 -20.567  0.00  0.00     0.000 A 
ATOM     41  C36 MOL d          -7.786  20.766 -20.052  0.00  0.00     0.001 A 
ATOM     42  C37 MOL d          -9.164  20.695 -19.897  0.00  0.00     0.007 A 
ENDBRANCH  36  37
ENDBRANCH  22  36
ENDBRANCH   1  22
TORSDOF 14
