REMARK  11 active torsions:
REMARK  status: ('A' for Active; 'I' for Inactive)
REMARK    1  A    between atoms: N_1  and  CA_2 
REMARK    2  A    between atoms: CA_2  and  C_3 
REMARK    3  A    between atoms: CA_2  and  CB_6 
REMARK    4  A    between atoms: CB_6  and  CG_7 
REMARK    5  A    between atoms: CG_7  and  SD_8 
REMARK    6  A    between atoms: SD_8  and  C5'_10 
REMARK    7  A    between atoms: C5'_10  and  C4'_11 
REMARK    8  A    between atoms: C3'_13  and  O3'_14 
REMARK    9  A    between atoms: C2'_15  and  O2'_16 
REMARK   10  A    between atoms: C1'_17  and  N9_18 
REMARK   11  A    between atoms: C6_22  and  N6_23 
ROOT
ATOM      1  C4' SAM d          55.691  62.600  65.996  0.00  0.00     0.164 C 
ATOM      2  O4' SAM d          54.897  63.713  66.382  0.00  0.00    -0.355 OA
ATOM      3  C3' SAM d          54.736  61.541  65.454  0.00  0.00     0.180 C 
ATOM      4  C2' SAM d          53.363  62.185  65.540  0.00  0.00     0.198 C 
ATOM      5  C1' SAM d          53.570  63.263  66.589  0.00  0.00     0.262 C 
ENDROOT
BRANCH   1   6
ATOM      6  C5' SAM d          56.734  63.011  64.961  0.00  0.00     0.097 C 
BRANCH   6   7
ATOM      7  SD  SAM d          57.989  61.725  64.702  0.00  0.00    -0.221 SA
ATOM      8  CE  SAM d          59.197  62.599  63.687  0.00  0.00     0.078 C 
BRANCH   7   9
ATOM      9  CG  SAM d          58.895  61.710  66.274  0.00  0.00     0.065 C 
BRANCH   9  10
ATOM     10  CB  SAM d          59.859  60.535  66.426  0.00  0.00     0.053 C 
BRANCH  10  11
ATOM     11  CA  SAM d          60.289  60.334  67.883  0.00  0.00     0.284 C 
BRANCH  11  12
ATOM     12  N   SAM d          60.576  61.614  68.526  0.00  0.00    -0.065 N 
ATOM     13  H1  SAM d          59.788  62.232  68.411  0.00  0.00     0.275 HD
ATOM     14  H2  SAM d          61.392  62.027  68.102  0.00  0.00     0.275 HD
ATOM     15  H3  SAM d          60.746  61.466  69.508  0.00  0.00     0.275 HD
ENDBRANCH  11  12
BRANCH  11  16
ATOM     16  C   SAM d          61.452  59.359  68.028  0.00  0.00     0.204 C 
ATOM     17  O   SAM d          61.682  58.505  67.167  0.00  0.00    -0.646 OA
ATOM     18  OXT SAM d          62.182  59.409  69.025  0.00  0.00    -0.646 OA
ENDBRANCH  11  16
ENDBRANCH  10  11
ENDBRANCH   9  10
ENDBRANCH   7   9
ENDBRANCH   6   7
ENDBRANCH   1   6
BRANCH   3  19
ATOM     19  O3' SAM d          54.794  60.390  66.271  0.00  0.00    -0.390 OA
ATOM     20  H16 SAM d          54.199  59.732  65.932  0.00  0.00     0.210 HD
ENDBRANCH   3  19
BRANCH   5  21
ATOM     21  N9  SAM d          52.539  64.330  66.525  0.00  0.00    -0.294 N 
ATOM     22  C8  SAM d          52.212  65.152  65.474  0.00  0.00     0.214 A 
ATOM     23  N7  SAM d          51.210  65.984  65.868  0.00  0.00    -0.236 NA
ATOM     24  C5  SAM d          50.887  65.699  67.149  0.00  0.00     0.149 A 
ATOM     25  C6  SAM d          49.949  66.224  68.033  0.00  0.00     0.155 A 
ATOM     26  C4  SAM d          51.719  64.668  67.571  0.00  0.00     0.167 A 
ATOM     27  N1  SAM d          49.863  65.712  69.306  0.00  0.00    -0.222 NA
ATOM     28  C2  SAM d          50.694  64.694  69.707  0.00  0.00     0.237 A 
ATOM     29  N3  SAM d          51.621  64.176  68.825  0.00  0.00    -0.222 NA
BRANCH  25  30
ATOM     30  N6  SAM d          49.132  67.208  67.668  0.00  0.00    -0.382 N 
ATOM     31  H21 SAM d          48.445  67.582  68.338  0.00  0.00     0.157 HD
ATOM     32  H22 SAM d          49.186  67.596  66.715  0.00  0.00     0.157 HD
ENDBRANCH  25  30
ENDBRANCH   5  21
BRANCH   4  33
ATOM     33  O2' SAM d          52.359  61.284  65.937  0.00  0.00    -0.388 OA
ATOM     34  H18 SAM d          52.569  60.935  66.795  0.00  0.00     0.210 HD
ENDBRANCH   4  33
TORSDOF 11
