REMARK  3 active torsions:
REMARK  status: ('A' for Active; 'I' for Inactive)
REMARK    1  A    between atoms: N_1  and  CA_2 
REMARK    2  A    between atoms: CA_2  and  CB_3 
REMARK    3  A    between atoms: CB_3  and  CG_4 
ROOT
ATOM      1  CG  HSM d          15.502  24.482   9.812  0.00  0.00     0.029 A 
ATOM      2  ND1 HSM d          16.004  24.986  10.967  0.00  0.00    -0.353 N 
ATOM      3  CD2 HSM d          14.143  24.290   9.997  0.00  0.00     0.143 A 
ATOM      4  CE1 HSM d          14.990  25.106  11.847  0.00  0.00     0.207 A 
ATOM      5  NE2 HSM d          13.851  24.683  11.256  0.00  0.00    -0.254 NA
ATOM      6  H8  HSM d          16.988  25.234  11.141  0.00  0.00     0.166 HD
ENDROOT
BRANCH   1   7
ATOM      7  CB  HSM d          16.283  24.187   8.548  0.00  0.00     0.085 C 
BRANCH   7   8
ATOM      8  CA  HSM d          17.361  23.139   8.789  0.00  0.00     0.235 C 
BRANCH   8   9
ATOM      9  N   HSM d          18.175  22.985   7.587  0.00  0.00    -0.079 N 
ATOM     10  H1  HSM d          18.887  22.291   7.750  0.00  0.00     0.274 HD
ATOM     11  H2  HSM d          18.610  23.866   7.361  0.00  0.00     0.274 HD
ATOM     12  H3  HSM d          17.590  22.692   6.820  0.00  0.00     0.274 HD
ENDBRANCH   8   9
ENDBRANCH   7   8
ENDBRANCH   1   7
TORSDOF 3
