REMARK  7 active torsions:
REMARK  status: ('A' for Active; 'I' for Inactive)
REMARK    1  A    between atoms: C9_8  and  C12_11 
REMARK    2  A    between atoms: C16_15  and  O17_16 
REMARK    3  A    between atoms: O17_16  and  C18_17 
REMARK    4  A    between atoms: C18_17  and  C19_18 
REMARK    5  A    between atoms: C19_18  and  N21_19 
REMARK    6  A    between atoms: C19_18  and  C25_20 
REMARK    7  A    between atoms: C25_20  and  C26_21 
ROOT
ATOM      1  O17 L20 d          11.846   9.122   1.432  0.00  0.00    -0.348 OA
ENDROOT
BRANCH   1   2
ATOM      2  C16 L20 d          10.684   9.548   0.802  0.00  0.00     0.087 A 
ATOM      3  C15 L20 d          10.820  10.054  -0.489  0.00  0.00     0.152 A 
ATOM      4  N14 L20 d           9.794  10.490  -1.224  0.00  0.00    -0.269 NA
ATOM      5  C13 L20 d           8.593  10.450  -0.635  0.00  0.00     0.128 A 
ATOM      6  C12 L20 d           8.330   9.981   0.668  0.00  0.00    -0.006 A 
ATOM      7  C36 L20 d           9.423   9.497   1.434  0.00  0.00     0.052 A 
BRANCH   6   8
ATOM      8  C9  L20 d           6.939   9.997   1.145  0.00  0.00    -0.023 A 
ATOM      9  C8  L20 d           5.881   9.878   0.184  0.00  0.00     0.014 A 
ATOM     10  C7  L20 d           4.559   9.868   0.562  0.00  0.00     0.033 A 
ATOM     11  C6  L20 d           4.251  10.017   1.921  0.00  0.00     0.062 A 
ATOM     12  N4  L20 d           3.047  10.055   2.633  0.00  0.00    -0.277 N 
ATOM     13  C11 L20 d           5.313  10.162   2.907  0.00  0.00     0.019 A 
ATOM     14  N3  L20 d           3.291  10.213   3.952  0.00  0.00    -0.179 NA
ATOM     15  H4  L20 d           2.110   9.974   2.212  0.00  0.00     0.189 HD
ATOM     16  C2  L20 d           4.621  10.265   4.186  0.00  0.00     0.063 A 
ATOM     17  C1  L20 d           5.266  10.440   5.525  0.00  0.00     0.073 C 
ATOM     18  C10 L20 d           6.650  10.137   2.505  0.00  0.00     0.028 A 
ENDBRANCH   6   8
ENDBRANCH   1   2
BRANCH   1  19
ATOM     19  C18 L20 d          11.978   8.124   2.435  0.00  0.00     0.208 C 
BRANCH  19  20
ATOM     20  C19 L20 d          13.477   7.706   2.325  0.00  0.00     0.212 C 
BRANCH  20  21
ATOM     21  N21 L20 d          13.678   6.953   1.009  0.00  0.00    -0.073 N 
ATOM     22  H13 L20 d          14.644   6.676   0.924  0.00  0.00     0.274 HD
ATOM     23  H14 L20 d          13.431   7.553   0.237  0.00  0.00     0.274 HD
ATOM     24  H15 L20 d          13.091   6.133   0.998  0.00  0.00     0.274 HD
ENDBRANCH  20  21
BRANCH  20  25
ATOM     25  C25 L20 d          14.485   8.909   2.536  0.00  0.00     0.076 C 
BRANCH  25  26
ATOM     26  C26 L20 d          14.642   9.841   1.387  0.00  0.00    -0.028 A 
ATOM     27  C27 L20 d          15.369   9.575   0.216  0.00  0.00     0.096 A 
ATOM     28  N28 L20 d          15.287  10.640  -0.680  0.00  0.00    -0.365 N 
ATOM     29  C30 L20 d          14.479  11.651  -0.126  0.00  0.00     0.042 A 
ATOM     30  H19 L20 d          15.745  10.681  -1.602  0.00  0.00     0.165 HD
ATOM     31  C31 L20 d          14.080  12.900  -0.661  0.00  0.00     0.030 A 
ATOM     32  C35 L20 d          14.059  11.189   1.186  0.00  0.00    -0.002 A 
ATOM     33  C32 L20 d          13.260  13.716   0.123  0.00  0.00     0.002 A 
ATOM     34  C33 L20 d          12.840  13.279   1.407  0.00  0.00     0.001 A 
ATOM     35  C34 L20 d          13.222  12.046   1.929  0.00  0.00     0.014 A 
ENDBRANCH  25  26
ENDBRANCH  20  25
ENDBRANCH  19  20
ENDBRANCH   1  19
TORSDOF 7
