REMARK  3 active torsions:
REMARK  status: ('A' for Active; 'I' for Inactive)
REMARK    1  A    between atoms: C4_7  and  C8_8 
REMARK    2  A    between atoms: C8_8  and  N9_9 
REMARK    3  A    between atoms: C10_13  and  N14_14 
ROOT
ATOM      1  N14 TH4 d         -12.043  21.948  63.252  0.00  0.00    -0.149 NA
ATOM      2  C15 TH4 d         -11.451  22.979  63.805  0.00  0.00     0.208 C 
ATOM      3  N16 TH4 d         -10.963  23.916  64.237  0.00  0.00    -0.170 NA
ENDROOT
BRANCH   1   4
ATOM      4  C10 TH4 d         -12.163  20.760  63.839  0.00  0.00     0.176 C 
ATOM      5  N9  TH4 d         -12.795  19.721  63.234  0.00  0.00    -0.355 N 
ATOM      6  C13 TH4 d         -12.839  18.449  64.011  0.00  0.00     0.136 C 
ATOM      7  C12 TH4 d         -12.638  18.819  65.487  0.00  0.00     0.102 C 
ATOM      8  S11 TH4 d         -11.569  20.300  65.388  0.00  0.00    -0.090 SA
BRANCH   5   9
ATOM      9  C8  TH4 d         -13.382  19.817  61.883  0.00  0.00     0.165 C 
BRANCH   9  10
ATOM     10  C4  TH4 d         -12.306  19.810  60.772  0.00  0.00    -0.023 A 
ATOM     11  C5  TH4 d         -12.587  20.427  59.561  0.00  0.00     0.013 A 
ATOM     12  C6  TH4 d         -11.601  20.421  58.551  0.00  0.00     0.045 A 
ATOM     13  C1  TH4 d         -10.365  19.771  58.715  0.00  0.00     0.125 A 
ATOM     14 CL7  TH4 d          -9.276  19.775  57.560  0.00  0.00    -0.062 Cl
ATOM     15  N2  TH4 d         -10.175  19.175  59.919  0.00  0.00    -0.248 NA
ATOM     16  C3  TH4 d         -11.035  19.180  60.918  0.00  0.00     0.127 A 
ENDBRANCH   9  10
ENDBRANCH   5   9
ENDBRANCH   1   4
TORSDOF 3
