REMARK  7 active torsions:
REMARK  status: ('A' for Active; 'I' for Inactive)
REMARK       I    between atoms: C5_2  and  N3_1 
REMARK    1  A    between atoms: N3_1  and  S1_11 
REMARK       I    between atoms: N11_15  and  C5_2 
REMARK    2  A    between atoms: C6_3  and  N11_15 
REMARK    3  A    between atoms: N12_7  and  C7_4 
REMARK    4  A    between atoms: C10_6  and  C23_24 
REMARK       I    between atoms: C14_16  and  N12_7 
REMARK    5  A    between atoms: S1_11  and  C2_12 
REMARK       I    between atoms: C14_16  and  N22_23 
REMARK    6  A    between atoms: C23_24  and  C27_28 
REMARK    7  A    between atoms: C27_28  and  O26_27 
ROOT
ATOM      1  N3  2C1 d          38.830  12.286 -22.805  0.00  0.00    -0.231 N 
ATOM      2  C5  2C1 d          38.910  11.032 -22.407  0.00  0.00     0.335 C 
ATOM      3  N11 2C1 d          39.449  10.254 -23.324  0.00  0.00    -0.292 N 
ATOM      4  O20 2C1 d          38.487  10.647 -21.324  0.00  0.00    -0.246 OA
ATOM      5  H1  2C1 d          39.167  12.515 -23.718  0.00  0.00     0.183 HD
ATOM      6  H8  2C1 d          39.662  10.693 -24.197  0.00  0.00     0.172 HD
ENDROOT
BRANCH   1   7
ATOM      7  S1  2C1 d          38.264  13.382 -21.967  0.00  0.00     0.273 S 
ATOM      8  O17 2C1 d          38.705  14.536 -22.608  0.00  0.00    -0.200 OA
ATOM      9  O18 2C1 d          38.941  13.494 -20.720  0.00  0.00    -0.200 OA
BRANCH   7  10
ATOM     10  C2  2C1 d          36.690  13.433 -21.843  0.00  0.00     0.121 C 
ATOM     11  C8  2C1 d          35.970  12.925 -20.910  0.00  0.00     0.040 C 
ATOM     12  C13 2C1 d          34.723  13.137 -21.152  0.00  0.00    -0.047 C 
ATOM     13  C10 2C1 d          34.468  13.735 -22.296  0.00  0.00    -0.008 C 
ATOM     14  C25 2C1 d          33.581  12.806 -20.220  0.00  0.00     0.049 C 
ATOM     15  S4  2C1 d          35.824  14.260 -23.018  0.00  0.00    -0.081 SA
BRANCH  13  16
ATOM     16  C23 2C1 d          33.122  14.082 -22.841  0.00  0.00     0.073 C 
BRANCH  16  17
ATOM     17  C27 2C1 d          32.936  15.487 -22.274  0.00  0.00     0.172 C 
BRANCH  17  18
ATOM     18  O26 2C1 d          31.832  16.082 -22.889  0.00  0.00    -0.396 OA
ATOM     19  C29 2C1 d          31.736  17.476 -22.599  0.00  0.00     0.201 C 
ENDBRANCH  17  18
ENDBRANCH  16  17
ENDBRANCH  13  16
ENDBRANCH   7  10
ENDBRANCH   1   7
BRANCH   3  20
ATOM     20  C6  2C1 d          39.748   8.953 -23.238  0.00  0.00     0.135 A 
ATOM     21  C15 2C1 d          39.503   8.134 -22.126  0.00  0.00     0.070 A 
ATOM     22  C19 2C1 d          39.925   6.803 -22.125  0.00  0.00     0.018 A 
ATOM     23  C16 2C1 d          40.615   6.392 -23.274  0.00  0.00     0.070 A 
ATOM     24 BR1  2C1 d          39.605   5.595 -20.638  0.00  0.00    -0.051 Br
ATOM     25  C7  2C1 d          40.858   7.251 -24.338  0.00  0.00     0.135 A 
ATOM     26  N9  2C1 d          40.435   8.507 -24.283  0.00  0.00    -0.213 NA
BRANCH  25  27
ATOM     27  N12 2C1 d          41.524   6.789 -25.420  0.00  0.00    -0.293 N 
ATOM     28  C14 2C1 d          41.834   7.479 -26.526  0.00  0.00     0.321 C 
ATOM     29  O21 2C1 d          42.431   6.894 -27.397  0.00  0.00    -0.247 OA
ATOM     30  N22 2C1 d          41.524   8.760 -26.713  0.00  0.00    -0.347 N 
ATOM     31  C28 2C1 d          41.817   9.593 -27.864  0.00  0.00     0.151 C 
ATOM     32  H10 2C1 d          41.027   9.203 -25.967  0.00  0.00     0.163 HD
ATOM     33  H3  2C1 d          41.816   5.833 -25.392  0.00  0.00     0.172 HD
ENDBRANCH  25  27
ENDBRANCH   3  20
TORSDOF 7
