REMARK  9 active torsions:
REMARK  status: ('A' for Active; 'I' for Inactive)
REMARK    1  A    between atoms: PB_1  and  O3A_5 
REMARK    2  A    between atoms: O3A_5  and  PA_6 
REMARK    3  A    between atoms: PA_6  and  O5'_9 
REMARK    4  A    between atoms: O5'_9  and  C5'_10 
REMARK    5  A    between atoms: C5'_10  and  C4'_11 
REMARK    6  A    between atoms: C3'_13  and  O3'_14 
REMARK    7  A    between atoms: C2'_15  and  O2'_16 
REMARK    8  A    between atoms: C1'_17  and  N9_18 
REMARK    9  A    between atoms: C2_25  and  N2_26 
ROOT
ATOM      1  C4' GDP d          -0.163  22.030  -6.582  0.00  0.00     0.180 C 
ATOM      2  O4' GDP d           0.095  20.624  -6.728  0.00  0.00    -0.353 OA
ATOM      3  C3' GDP d           1.161  22.731  -6.763  0.00  0.00     0.182 C 
ATOM      4  C2' GDP d           2.012  21.716  -7.498  0.00  0.00     0.198 C 
ATOM      5  C1' GDP d           1.486  20.423  -6.912  0.00  0.00     0.262 C 
ENDROOT
BRANCH   5   6
ATOM      6  N9  GDP d           1.614  19.307  -7.857  0.00  0.00    -0.295 N 
ATOM      7  C8  GDP d           1.042  19.201  -9.065  0.00  0.00     0.214 A 
ATOM      8  N7  GDP d           1.367  18.015  -9.647  0.00  0.00    -0.234 NA
ATOM      9  C5  GDP d           2.147  17.360  -8.770  0.00  0.00     0.171 A 
ATOM     10  C6  GDP d           2.836  16.064  -8.723  0.00  0.00     0.292 A 
ATOM     11  C4  GDP d           2.300  18.210  -7.589  0.00  0.00     0.161 A 
ATOM     12  O6  GDP d           2.736  15.295  -9.701  0.00  0.00    -0.265 OA
ATOM     13  N1  GDP d           3.546  15.777  -7.621  0.00  0.00    -0.154 N 
ATOM     14  C2  GDP d           3.647  16.605  -6.564  0.00  0.00     0.680 A 
ATOM     15  H10 GDP d           4.026  14.901  -7.583  0.00  0.00     0.187 HD
ATOM     16  N3  GDP d           3.037  17.814  -6.539  0.00  0.00    -0.174 N 
ATOM     17  H13 GDP d           3.138  18.427  -5.718  0.00  0.00     0.186 HD
BRANCH  14  18
ATOM     18  N2  GDP d           4.370  16.252  -5.476  0.00  0.00    -0.234 N 
ATOM     19  H11 GDP d           4.440  16.894  -4.674  0.00  0.00     0.174 HD
ATOM     20  H12 GDP d           4.851  15.341  -5.450  0.00  0.00     0.174 HD
ENDBRANCH  14  18
ENDBRANCH   5   6
BRANCH   4  21
ATOM     21  O2' GDP d           3.403  21.860  -7.238  0.00  0.00    -0.388 OA
ATOM     22  H7  GDP d           3.563  21.751  -6.308  0.00  0.00     0.210 HD
ENDBRANCH   4  21
BRANCH   1  23
ATOM     23  C5' GDP d          -1.148  22.444  -7.648  0.00  0.00     0.216 C 
BRANCH  23  24
ATOM     24  O5' GDP d          -0.622  22.065  -8.920  0.00  0.00    -0.287 OA
BRANCH  24  25
ATOM     25  PA  GDP d          -1.101  22.748 -10.278  0.00  0.00     0.418 P 
ATOM     26  O1A GDP d          -0.434  21.987 -11.390  0.00  0.00    -0.624 OA
ATOM     27  O2A GDP d          -0.787  24.238 -10.307  0.00  0.00    -0.624 OA
BRANCH  25  28
ATOM     28  O3A GDP d          -2.668  22.478 -10.223  0.00  0.00    -0.173 OA
BRANCH  28  29
ATOM     29  PB  GDP d          -3.905  23.129 -11.040  0.00  0.00     0.431 P 
ATOM     30  O1B GDP d          -4.864  21.974 -11.171  0.00  0.00    -0.616 OA
ATOM     31  O2B GDP d          -3.455  23.637 -12.387  0.00  0.00    -0.616 OA
ATOM     32  O3B GDP d          -4.503  24.213 -10.163  0.00  0.00    -0.616 OA
ENDBRANCH  28  29
ENDBRANCH  25  28
ENDBRANCH  24  25
ENDBRANCH  23  24
ENDBRANCH   1  23
BRANCH   3  33
ATOM     33  O3' GDP d           1.703  22.933  -5.457  0.00  0.00    -0.390 OA
ATOM     34  H5  GDP d           2.541  23.374  -5.528  0.00  0.00     0.210 HD
ENDBRANCH   3  33
TORSDOF 9
