REMARK  3 active torsions:
REMARK  status: ('A' for Active; 'I' for Inactive)
REMARK    1  A    between atoms: C2_2  and  C1_1 
REMARK       I    between atoms: N1_9  and  C2_2 
REMARK    2  A    between atoms: C4_3  and  C5_4 
REMARK    3  A    between atoms: C4_3  and  N1_9 
ROOT
ATOM      1  C2  OGA d          21.066  25.829  28.202  0.00  0.00     0.318 C 
ATOM      2  O2' OGA d          21.192  26.959  28.711  0.00  0.00    -0.261 OA
ATOM      3  N1  OGA d          19.886  25.203  28.228  0.00  0.00    -0.342 N 
ATOM      4  H3  OGA d          19.772  24.360  27.702  0.00  0.00     0.163 HD
ENDROOT
BRANCH   3   5
ATOM      5  C4  OGA d          18.756  25.714  29.004  0.00  0.00     0.236 C 
BRANCH   5   6
ATOM      6  C5  OGA d          17.415  25.241  28.495  0.00  0.00     0.191 C 
ATOM      7  O3  OGA d          16.416  25.662  29.055  0.00  0.00    -0.647 OA
ATOM      8  O4  OGA d          17.332  24.475  27.537  0.00  0.00    -0.647 OA
ENDBRANCH   5   6
ENDBRANCH   3   5
BRANCH   1   9
ATOM      9  C1  OGA d          22.091  25.173  27.594  0.00  0.00     0.270 C 
ATOM     10  O1  OGA d          21.909  24.061  27.090  0.00  0.00    -0.640 OA
ATOM     11  O2  OGA d          23.219  25.658  27.531  0.00  0.00    -0.640 OA
ENDBRANCH   1   9
TORSDOF 3
