REMARK  5 active torsions:
REMARK  status: ('A' for Active; 'I' for Inactive)
REMARK    1  A    between atoms: S1_2  and  N1_4 
REMARK    2  A    between atoms: S1_2  and  C3_10 
REMARK    3  A    between atoms: N1_4  and  C2_5 
REMARK    4  A    between atoms: C2_5  and  C1_7 
REMARK    5  A    between atoms: C6_13  and  O5_16 
ROOT
ATOM      1  O4  TBL d          -1.081  -6.697  -4.009  0.00  0.00    -0.201 OA
ATOM      2  S1  TBL d          -0.861  -5.585  -4.879  0.00  0.00     0.259 S 
ATOM      3  O3  TBL d           0.344  -5.666  -5.663  0.00  0.00    -0.201 OA
ENDROOT
BRANCH   2   4
ATOM      4  N1  TBL d          -0.858  -4.281  -3.932  0.00  0.00    -0.301 N 
ATOM      5  H1  TBL d          -1.075  -4.364  -2.959  0.00  0.00     0.173 HD
BRANCH   4   6
ATOM      6  C2  TBL d          -0.533  -2.968  -4.511  0.00  0.00     0.190 C 
ATOM      7  C10 TBL d           0.279  -2.144  -3.509  0.00  0.00     0.044 C 
BRANCH   6   8
ATOM      8  C1  TBL d          -1.786  -2.219  -4.883  0.00  0.00     0.196 C 
ATOM      9  O2  TBL d          -1.858  -1.518  -5.873  0.00  0.00    -0.646 OA
ATOM     10  O1  TBL d          -2.860  -2.330  -4.102  0.00  0.00    -0.646 OA
ENDBRANCH   6   8
ENDBRANCH   4   6
ENDBRANCH   2   4
BRANCH   2  11
ATOM     11  C3  TBL d          -2.071  -5.623  -5.968  0.00  0.00     0.079 A 
ATOM     12  C4  TBL d          -3.359  -5.933  -5.537  0.00  0.00     0.028 A 
ATOM     13  C5  TBL d          -4.423  -6.005  -6.454  0.00  0.00     0.038 A 
ATOM     14  C6  TBL d          -4.201  -5.849  -7.828  0.00  0.00     0.068 A 
ATOM     15  C8  TBL d          -2.936  -5.538  -8.293  0.00  0.00     0.038 A 
ATOM     16  C9  TBL d          -1.873  -5.420  -7.357  0.00  0.00     0.028 A 
BRANCH  14  17
ATOM     17  O5  TBL d          -5.291  -5.933  -8.679  0.00  0.00    -0.356 OA
ATOM     18  C7  TBL d          -5.338  -6.706  -9.869  0.00  0.00     0.210 C 
ENDBRANCH  14  17
ENDBRANCH   2  11
TORSDOF 5
