REMARK  4 active torsions:
REMARK  status: ('A' for Active; 'I' for Inactive)
REMARK    1  A    between atoms: O4_1  and  C4_2 
REMARK    2  A    between atoms: C3_3  and  O3_4 
REMARK    3  A    between atoms: C5_8  and  C6_9 
REMARK    4  A    between atoms: C6_9  and  O6_10 
ROOT
ATOM      1  C4  IFL d          74.171  12.747  33.807  0.00  0.00     0.163 C 
ATOM      2  C3  IFL d          73.098  12.900  32.680  0.00  0.00     0.239 C 
ATOM      3  C2  IFL d          73.637  12.782  31.226  0.00  0.00     0.249 C 
ATOM      4  N   IFL d          74.861  12.240  31.084  0.00  0.00    -0.358 N 
ATOM      5  C7  IFL d          75.834  12.065  32.166  0.00  0.00     0.132 C 
ATOM      6  C5  IFL d          75.589  13.049  33.308  0.00  0.00     0.059 C 
ATOM      7  O2  IFL d          72.859  12.975  30.275  0.00  0.00    -0.271 OA
ATOM      8  H5  IFL d          75.127  11.933  30.170  0.00  0.00     0.162 HD
ENDROOT
BRANCH   6   9
ATOM      9  C6  IFL d          76.753  12.958  34.340  0.00  0.00     0.173 C 
BRANCH   9  10
ATOM     10  O6  IFL d          76.779  11.634  34.925  0.00  0.00    -0.400 OA
ATOM     11  H11 IFL d          77.489  11.581  35.554  0.00  0.00     0.209 HD
ENDBRANCH   9  10
ENDBRANCH   6   9
BRANCH   1  12
ATOM     12  O4  IFL d          73.783  13.611  34.848  0.00  0.00    -0.392 OA
ATOM     13  H1  IFL d          74.410  13.550  35.559  0.00  0.00     0.210 HD
ENDBRANCH   1  12
BRANCH   2  14
ATOM     14  O3  IFL d          72.120  11.838  32.792  0.00  0.00    -0.384 OA
ATOM     15  H4  IFL d          71.470  11.934  32.106  0.00  0.00     0.210 HD
ENDBRANCH   2  14
TORSDOF 4
