REMARK  10 active torsions:
REMARK  status: ('A' for Active; 'I' for Inactive)
REMARK    1  A    between atoms: O2_1  and  C2_2 
REMARK    2  A    between atoms: C3_3  and  O3_4 
REMARK    3  A    between atoms: C4_5  and  O4_6 
REMARK    4  A    between atoms: C5_7  and  C6_9 
REMARK    5  A    between atoms: C6_9  and  O6_10 
REMARK    6  A    between atoms: C1_11  and  O1_12 
REMARK    7  A    between atoms: O1_12  and  C7_13 
REMARK    8  A    between atoms: C7_13  and  C8_14 
REMARK    9  A    between atoms: C9_15  and  C10_16 
REMARK   10  A    between atoms: C13_19  and  C16_22 
ROOT
ATOM      1  O1  FYZ d           4.452 -13.741 -13.964  0.00  0.00    -0.347 OA
ENDROOT
BRANCH   1   2
ATOM      2  C1  FYZ d           3.766 -13.268 -12.800  0.00  0.00     0.292 C 
ATOM      3  C2  FYZ d           3.925 -14.350 -11.751  0.00  0.00     0.204 C 
ATOM      4  C3  FYZ d           3.212 -15.636 -12.145  0.00  0.00     0.183 C 
ATOM      5  C4  FYZ d           1.754 -15.341 -12.491  0.00  0.00     0.180 C 
ATOM      6  C5  FYZ d           1.674 -14.208 -13.537  0.00  0.00     0.179 C 
ATOM      7  O5  FYZ d           2.379 -13.056 -13.098  0.00  0.00    -0.348 OA
BRANCH   3   8
ATOM      8  O2  FYZ d           3.366 -13.832 -10.524  0.00  0.00    -0.388 OA
ATOM      9  H1  FYZ d           3.474 -14.474  -9.832  0.00  0.00     0.210 HD
ENDBRANCH   3   8
BRANCH   4  10
ATOM     10  O3  FYZ d           3.289 -16.624 -11.094  0.00  0.00    -0.390 OA
ATOM     11  H4  FYZ d           2.836 -17.413 -11.369  0.00  0.00     0.210 HD
ENDBRANCH   4  10
BRANCH   5  12
ATOM     12  O4  FYZ d           1.109 -16.521 -12.940  0.00  0.00    -0.390 OA
ATOM     13  H6  FYZ d           1.140 -17.178 -12.254  0.00  0.00     0.210 HD
ENDBRANCH   5  12
BRANCH   6  14
ATOM     14  C6  FYZ d           0.234 -13.804 -13.807  0.00  0.00     0.198 C 
BRANCH  14  15
ATOM     15  O6  FYZ d          -0.406 -13.286 -12.644  0.00  0.00    -0.398 OA
ATOM     16  H10 FYZ d           0.065 -12.519 -12.340  0.00  0.00     0.209 HD
ENDBRANCH  14  15
ENDBRANCH   6  14
ENDBRANCH   1   2
BRANCH   1  17
ATOM     17  C7  FYZ d           4.667 -12.638 -14.876  0.00  0.00     0.265 C 
BRANCH  17  18
ATOM     18  C8  FYZ d           4.592 -13.044 -16.293  0.00  0.00    -0.075 C 
ATOM     19  C9  FYZ d           4.540 -13.369 -17.427  0.00  0.00    -0.065 C 
BRANCH  19  20
ATOM     20  C10 FYZ d           4.512 -13.781 -18.659  0.00  0.00     0.017 A 
ATOM     21  C11 FYZ d           5.439 -14.757 -19.046  0.00  0.00     0.021 A 
ATOM     22  C12 FYZ d           5.435 -15.249 -20.356  0.00  0.00     0.013 A 
ATOM     23  C13 FYZ d           4.499 -14.783 -21.272  0.00  0.00    -0.026 A 
ATOM     24  C14 FYZ d           3.594 -13.782 -20.892  0.00  0.00     0.013 A 
ATOM     25  C15 FYZ d           3.583 -13.285 -19.579  0.00  0.00     0.021 A 
BRANCH  23  26
ATOM     26  C16 FYZ d           4.559 -15.308 -22.674  0.00  0.00    -0.026 A 
ATOM     27  C21 FYZ d           5.665 -16.067 -23.052  0.00  0.00     0.012 A 
ATOM     28  C20 FYZ d           5.756 -16.560 -24.362  0.00  0.00     0.001 A 
ATOM     29  C19 FYZ d           4.738 -16.260 -25.265  0.00  0.00     0.000 A 
ATOM     30  C18 FYZ d           3.641 -15.490 -24.900  0.00  0.00     0.001 A 
ATOM     31  C17 FYZ d           3.558 -15.001 -23.589  0.00  0.00     0.012 A 
ENDBRANCH  23  26
ENDBRANCH  19  20
ENDBRANCH  17  18
ENDBRANCH   1  17
TORSDOF 10
