3juq_ligand

Created by X-TOOL on Fri Sep 26 17:34:43 2014
 32 33  0  0  0  0  0  0  0  0999 V2000
   45.9040   -4.2940   93.0270  O 0  0  0  1  0  1
   43.9650   -4.1030   91.9600  O 0  0  0  1  0  1
   47.9650    0.5310   93.7850 Br 0  0  0  1  0  1
   45.0680    0.4840   93.5450  C 0  0  0  2  0  3
   43.8470   -0.1200   93.3260  C 0  0  0  2  0  3
   46.1610   -1.5770   93.1810  C 0  0  0  2  0  3
   38.7380   -1.6830   92.0470  C 0  0  0  3  0  4
   38.8590   -0.7320   90.8700  C 0  0  0  3  0  4
   40.0970   -2.2580   92.4420  C 0  0  0  3  0  4
   41.2900   -0.4540   91.2570  C 0  0  0  3  0  4
   39.9780    0.1590   91.1160  N 0  3  0  3  0  4
   42.5360   -2.0140   92.7670  N 0  0  0  2  0  3
   44.9330   -3.6270   92.6050  C 0  5  0  1  0  3
   46.2350   -0.2560   93.4970  C 0  0  0  1  0  3
   43.7470   -1.4550   92.9830  C 0  0  0  1  0  3
   44.9280   -2.1820   92.9270  C 0  0  0  1  0  3
   41.2850   -1.2470   92.5690  C 0  0  0  2  0  4
   45.1127    1.5463   93.7562  H 0  0  0  1  0  1
   42.9420    0.4683   93.4256  H 0  0  0  1  0  1
   47.0689   -2.1666   93.1257  H 0  0  0  1  0  1
   38.0663   -2.5094   91.7716  H 0  0  0  1  0  1
   38.3169   -1.1386   92.9050  H 0  0  0  1  0  1
   37.9332   -0.1467   90.7682  H 0  0  0  1  0  1
   39.0349   -1.3035   89.9468  H 0  0  0  1  0  1
   40.3754   -3.0038   91.6829  H 0  0  0  1  0  1
   39.9773   -2.7538   93.4166  H 0  0  0  1  0  1
   42.0671    0.3238   91.2905  H 0  0  0  1  0  1
   41.4830   -1.1290   90.4102  H 0  0  0  1  0  1
   39.7845    0.6629   91.9673  H 0  0  0  1  0  1
   40.0261    0.8071   90.3455  H 0  0  0  1  0  1
   42.4793   -3.0420   92.7382  H 0  0  0  1  0  1
   41.1322   -0.5677   93.4205  H 0  0  0  1  0  1
 13  1  2  0  0  2
 13  2  2  0  0  2
 14  3  1  0  0  2
  4  5  4  0  0  1
 14  4  4  0  0  1
  5 15  4  0  0  1
  6 14  4  0  0  1
 16  6  4  0  0  1
  7  8  1  0  0  1
  9  7  1  0  0  1
 11  8  1  0  0  1
 17  9  1  0  0  1
 10 11  1  0  0  1
 17 10  1  0  0  1
 15 12  1  0  0  2
 12 17  1  0  0  2
 13 16  1  0  0  2
 15 16  4  0  0  1
  4 18  1  0  0  2
  5 19  1  0  0  2
  6 20  1  0  0  2
  7 21  1  0  0  2
  7 22  1  0  0  2
  8 23  1  0  0  2
  8 24  1  0  0  2
  9 25  1  0  0  2
  9 26  1  0  0  2
 10 27  1  0  0  2
 10 28  1  0  0  2
 11 29  1  0  0  2
 11 30  1  0  0  2
 12 31  1  0  0  2
 17 32  1  0  0  2
M  END
> <MOLECULAR_FORMULA>
C12H15N2O2Br

> <MOLECULAR_WEIGHT>
299.0

> <NUM_HB_ATOMS>
4  

> <NUM_ROTOR>
1  

> <XLOGP2>
2.65 

$$$$
