REMARK  3 active torsions:
REMARK  status: ('A' for Active; 'I' for Inactive)
REMARK    1  A    between atoms: CAO_15  and  NAL_12 
REMARK    2  A    between atoms: NAL_12  and  CAQ_17 
REMARK    3  A    between atoms: CAM_13  and  CAP_16 
ROOT
ATOM      1 BRAC AJD d          47.965   0.531  93.785  0.00  0.00    -0.051 Br
ATOM      2  CAD AJD d          45.068   0.484  93.545  0.00  0.00     0.021 A 
ATOM      3  CAE AJD d          43.847  -0.120  93.326  0.00  0.00     0.031 A 
ATOM      4  CAF AJD d          46.161  -1.577  93.181  0.00  0.00     0.040 A 
ATOM      5  CAN AJD d          46.235  -0.256  93.497  0.00  0.00     0.012 A 
ATOM      6  CAO AJD d          43.747  -1.455  92.983  0.00  0.00     0.045 A 
ATOM      7  CAP AJD d          44.928  -2.182  92.927  0.00  0.00     0.068 A 
ENDROOT
BRANCH   6   8
ATOM      8  NAL AJD d          42.536  -2.014  92.767  0.00  0.00    -0.383 N 
ATOM      9  H14 AJD d          42.479  -3.042  92.738  0.00  0.00     0.160 HD
BRANCH   8  10
ATOM     10  CAQ AJD d          41.285  -1.247  92.569  0.00  0.00     0.107 C 
ATOM     11  CAI AJD d          40.097  -2.258  92.442  0.00  0.00     0.028 C 
ATOM     12  CAG AJD d          38.738  -1.683  92.047  0.00  0.00     0.029 C 
ATOM     13  CAH AJD d          38.859  -0.732  90.870  0.00  0.00     0.232 C 
ATOM     14  NAK AJD d          39.978   0.159  91.116  0.00  0.00    -0.073 N 
ATOM     15  CAJ AJD d          41.290  -0.454  91.257  0.00  0.00     0.257 C 
ATOM     16  H12 AJD d          39.785   0.663  91.967  0.00  0.00     0.277 HD
ATOM     17  H13 AJD d          40.026   0.807  90.346  0.00  0.00     0.277 HD
ENDBRANCH   8  10
ENDBRANCH   6   8
BRANCH   7  18
ATOM     18  CAM AJD d          44.933  -3.627  92.605  0.00  0.00     0.211 C 
ATOM     19  OAA AJD d          45.904  -4.294  93.027  0.00  0.00    -0.644 OA
ATOM     20  OAB AJD d          43.965  -4.103  91.960  0.00  0.00    -0.644 OA
ENDBRANCH   7  18
TORSDOF 3
