REMARK  3 active torsions:
REMARK  status: ('A' for Active; 'I' for Inactive)
REMARK    1  A    between atoms: C3_5  and  C4_6 
REMARK    2  A    between atoms: C4_6  and  N2_7 
REMARK    3  A    between atoms: C8_11  and  N4_15 
ROOT
ATOM      1  N2  N1Y d          30.763 -26.881 -27.811  0.00  0.00    -0.360 N 
ATOM      2  C7  N1Y d          29.573 -27.280 -27.191  0.00  0.00     0.121 A 
ATOM      3  C8  N1Y d          28.611 -28.046 -27.751  0.00  0.00     0.215 C 
ATOM      4  N3  N1Y d          29.568 -26.752 -25.924  0.00  0.00    -0.374 N 
ATOM      5  C9  N1Y d          30.740 -25.972 -25.606  0.00  0.00     0.141 A 
ATOM      6  C10 N1Y d          31.581 -26.051 -26.902  0.00  0.00     0.144 A 
ATOM      7  H7  N1Y d          28.796 -26.899 -25.259  0.00  0.00     0.161 HD
ENDROOT
BRANCH   1   8
ATOM      8  C4  N1Y d          31.274 -27.162 -29.154  0.00  0.00     0.164 C 
BRANCH   8   9
ATOM      9  C3  N1Y d          30.641 -26.359 -30.289  0.00  0.00    -0.023 A 
ATOM     10  C2  N1Y d          30.660 -24.938 -30.345  0.00  0.00     0.127 A 
ATOM     11  N1  N1Y d          30.105 -24.200 -31.371  0.00  0.00    -0.248 NA
ATOM     12  C1  N1Y d          29.503 -24.902 -32.393  0.00  0.00     0.125 A 
ATOM     13 CL   N1Y d          28.847 -23.949 -33.641  0.00  0.00    -0.062 Cl
ATOM     14  C6  N1Y d          29.419 -26.299 -32.444  0.00  0.00     0.045 A 
ATOM     15  C5  N1Y d          29.998 -27.026 -31.375  0.00  0.00     0.013 A 
ENDBRANCH   8   9
ENDBRANCH   1   8
BRANCH   3  16
ATOM     16  N4  N1Y d          27.389 -28.438 -27.076  0.00  0.00    -0.124 N 
ATOM     17  O1  N1Y d          27.154 -28.077 -25.903  0.00  0.00    -0.532 OA
ATOM     18  O2  N1Y d          26.633 -29.137 -27.754  0.00  0.00    -0.532 OA
ENDBRANCH   3  16
TORSDOF 3
