REMARK  8 active torsions:
REMARK  status: ('A' for Active; 'I' for Inactive)
REMARK    1  A    between atoms: C1_1  and  N1_2 
REMARK    2  A    between atoms: C4_7  and  O3P_10 
REMARK    3  A    between atoms: O3P_10  and  P_11 
REMARK    4  A    between atoms: P_11  and  C7_14 
REMARK    5  A    between atoms: C7_14  and  C8_15 
REMARK    6  A    between atoms: C8_15  and  C9_16 
REMARK    7  A    between atoms: C9_16  and  C10_17 
REMARK    8  A    between atoms: C10_17  and  C11_18 
ROOT
ATOM      1  O3P NPE d          17.022   8.154  36.228  0.00  0.00    -0.270 OA
ENDROOT
BRANCH   1   2
ATOM      2  C4  NPE d          17.408   7.501  35.037  0.00  0.00     0.079 A 
ATOM      3  C3  NPE d          18.199   8.185  34.087  0.00  0.00     0.040 A 
ATOM      4  C2  NPE d          18.645   7.508  32.932  0.00  0.00     0.039 A 
ATOM      5  C1  NPE d          18.296   6.142  32.720  0.00  0.00     0.103 A 
ATOM      6  C6  NPE d          17.493   5.460  33.684  0.00  0.00     0.039 A 
ATOM      7  C5  NPE d          17.052   6.146  34.833  0.00  0.00     0.040 A 
BRANCH   5   8
ATOM      8  N1  NPE d          18.759   5.454  31.548  0.00  0.00    -0.116 N 
ATOM      9  O2N NPE d          18.384   4.106  31.417  0.00  0.00    -0.532 OA
ATOM     10  O1N NPE d          19.552   6.180  30.640  0.00  0.00    -0.532 OA
ENDBRANCH   5   8
ENDBRANCH   1   2
BRANCH   1  11
ATOM     11  P   NPE d          17.881   7.959  37.482  0.00  0.00     0.254 P 
ATOM     12  O2P NPE d          18.301   6.596  37.509  0.00  0.00    -0.646 OA
ATOM     13  O1P NPE d          19.078   8.709  37.257  0.00  0.00    -0.646 OA
BRANCH  11  14
ATOM     14  C7  NPE d          17.079   8.408  39.027  0.00  0.00     0.136 C 
BRANCH  14  15
ATOM     15  C8  NPE d          17.907   7.865  40.191  0.00  0.00     0.013 C 
BRANCH  15  16
ATOM     16  C9  NPE d          17.270   8.000  41.582  0.00  0.00     0.011 C 
BRANCH  16  17
ATOM     17  C10 NPE d          16.721   6.645  42.053  0.00  0.00     0.113 C 
BRANCH  17  18
ATOM     18  C11 NPE d          17.322   6.092  43.342  0.00  0.00     0.172 C 
ATOM     19  O2  NPE d          16.901   6.846  44.375  0.00  0.00    -0.648 OA
ATOM     20  O1  NPE d          18.043   5.151  43.437  0.00  0.00    -0.648 OA
ENDBRANCH  17  18
ENDBRANCH  16  17
ENDBRANCH  15  16
ENDBRANCH  14  15
ENDBRANCH  11  14
ENDBRANCH   1  11
TORSDOF 8
