REMARK  7 active torsions:
REMARK  status: ('A' for Active; 'I' for Inactive)
REMARK    1  A    between atoms: C1_1  and  C2_4 
REMARK    2  A    between atoms: C4_6  and  O4_7 
REMARK    3  A    between atoms: C5_8  and  O5_9 
REMARK    4  A    between atoms: C6_10  and  C7_12 
REMARK    5  A    between atoms: C7_12  and  O7_13 
REMARK    6  A    between atoms: C7_12  and  C8_14 
REMARK    7  A    between atoms: C8_14  and  O8_15 
ROOT
ATOM      1  C2  KDO d          30.694  -1.553   0.595  0.00  0.00     0.225 C 
ATOM      2  C3  KDO d          29.772  -1.375  -0.629  0.00  0.00     0.077 C 
ATOM      3  C4  KDO d          28.593  -2.340  -0.546  0.00  0.00     0.152 C 
ATOM      4  C5  KDO d          29.071  -3.774  -0.297  0.00  0.00     0.178 C 
ATOM      5  C6  KDO d          29.933  -3.794   0.970  0.00  0.00     0.184 C 
ATOM      6  O6  KDO d          31.076  -2.943   0.792  0.00  0.00    -0.364 OA
ENDROOT
BRANCH   5   7
ATOM      7  C7  KDO d          30.488  -5.176   1.334  0.00  0.00     0.173 C 
BRANCH   7   8
ATOM      8  O7  KDO d          29.397  -6.060   1.488  0.00  0.00    -0.391 OA
ATOM      9  H10 KDO d          28.829  -5.742   2.180  0.00  0.00     0.210 HD
ENDBRANCH   7   8
BRANCH   7  10
ATOM     10  C8  KDO d          31.286  -5.137   2.646  0.00  0.00     0.198 C 
BRANCH  10  11
ATOM     11  O8  KDO d          30.412  -4.861   3.747  0.00  0.00    -0.398 OA
ATOM     12  H13 KDO d          29.751  -5.541   3.804  0.00  0.00     0.209 HD
ENDBRANCH  10  11
ENDBRANCH   7  10
ENDBRANCH   5   7
BRANCH   4  13
ATOM     13  O5  KDO d          29.900  -4.185  -1.390  0.00  0.00    -0.390 OA
ATOM     14  H7  KDO d          30.649  -3.604  -1.454  0.00  0.00     0.210 HD
ENDBRANCH   4  13
BRANCH   3  15
ATOM     15  O4  KDO d          27.843  -2.276  -1.787  0.00  0.00    -0.393 OA
ATOM     16  H5  KDO d          28.408  -2.521  -2.510  0.00  0.00     0.210 HD
ENDBRANCH   3  15
BRANCH   1  17
ATOM     17  C1  KDO d          31.946  -0.702   0.307  0.00  0.00     0.203 C 
ATOM     18  O1A KDO d          31.798   0.539   0.381  0.00  0.00    -0.646 OA
ATOM     19  O1B KDO d          32.989  -1.307  -0.032  0.00  0.00    -0.646 OA
ENDBRANCH   1  17
TORSDOF 7
