REMARK  13 active torsions:
REMARK  status: ('A' for Active; 'I' for Inactive)
REMARK    1  A    between atoms: CAP_16  and  OAC_3 
REMARK    2  A    between atoms: CBH_34  and  OAD_4 
REMARK    3  A    between atoms: CBH_34  and  CAP_16 
REMARK    4  A    between atoms: CAR_18  and  CAQ_17 
REMARK    5  A    between atoms: CAQ_17  and  CAT_20 
REMARK    6  A    between atoms: NAZ_26  and  CAR_18 
REMARK    7  A    between atoms: CAY_25  and  CAS_19 
REMARK    8  A    between atoms: CAS_19  and  CBH_34 
REMARK    9  A    between atoms: CAT_20  and  NBJ_36 
REMARK   10  A    between atoms: NBK_37  and  CAY_25 
REMARK       I    between atoms: CBA_27  and  NAZ_26 
REMARK   11  A    between atoms: CBG_33  and  CBA_27 
REMARK   12  A    between atoms: CBE_31  and  CBC_29 
REMARK   13  A    between atoms: CBF_32  and  CBD_30 
ROOT
ATOM      1  CAO B50 d          28.498   9.646 -21.352  0.00  0.00     0.104 A 
ATOM      2  CBE B50 d          28.698  10.959 -21.496  0.00  0.00     0.003 A 
ATOM      3  CBF B50 d          29.203  11.179 -22.716  0.00  0.00     0.019 A 
ATOM      4  CBG B50 d          29.262   9.999 -23.330  0.00  0.00     0.115 A 
ATOM      5  NBK B50 d          28.845   9.048 -22.491  0.00  0.00    -0.351 N 
ENDROOT
BRANCH   4   6
ATOM      6  CBA B50 d          29.717   9.772 -24.566  0.00  0.00     0.269 C 
ATOM      7  OAB B50 d          30.763   9.146 -24.738  0.00  0.00    -0.266 OA
ATOM      8  NAZ B50 d          28.951  10.260 -25.557  0.00  0.00    -0.356 N 
ATOM      9  H36 B50 d          28.110  10.743 -25.314  0.00  0.00     0.162 HD
BRANCH   8  10
ATOM     10  CAR B50 d          29.291  10.117 -26.983  0.00  0.00     0.124 C 
BRANCH  10  11
ATOM     11  CAQ B50 d          28.897   8.725 -27.488  0.00  0.00     0.047 C 
BRANCH  11  12
ATOM     12  CAT B50 d          27.385   8.509 -27.346  0.00  0.00     0.236 C 
BRANCH  12  13
ATOM     13  NBJ B50 d          26.609   9.510 -28.097  0.00  0.00    -0.068 N 
ATOM     14  CAW B50 d          26.684   9.246 -29.548  0.00  0.00     0.262 C 
ATOM     15  CAU B50 d          25.438   8.546 -30.097  0.00  0.00     0.262 C 
ATOM     16  NBI B50 d          24.859   7.609 -29.121  0.00  0.00    -0.072 N 
ATOM     17  CAA B50 d          23.730   6.897 -29.736  0.00  0.00     0.269 C 
ATOM     18  CAV B50 d          24.400   8.315 -27.909  0.00  0.00     0.262 C 
ATOM     19  H38 B50 d          25.565   6.940 -28.857  0.00  0.00     0.279 HD
ATOM     20  CAX B50 d          25.222   9.577 -27.592  0.00  0.00     0.262 C 
ATOM     21  H39 B50 d          27.031  10.411 -27.935  0.00  0.00     0.280 HD
ENDBRANCH  12  13
ENDBRANCH  11  12
ENDBRANCH  10  11
ENDBRANCH   8  10
ENDBRANCH   4   6
BRANCH   3  22
ATOM     22  CBD B50 d          29.544  12.358 -23.259  0.00  0.00    -0.023 A 
ATOM     23  CAI B50 d          28.557  13.274 -23.628  0.00  0.00     0.012 A 
ATOM     24  CAG B50 d          28.915  14.495 -24.199  0.00  0.00     0.001 A 
ATOM     25  CAF B50 d          30.261  14.808 -24.395  0.00  0.00     0.000 A 
ATOM     26  CAH B50 d          31.254  13.897 -24.023  0.00  0.00     0.001 A 
ATOM     27  CAJ B50 d          30.890  12.674 -23.455  0.00  0.00     0.012 A 
ENDBRANCH   3  22
BRANCH   5  28
ATOM     28  CAY B50 d          28.775   7.587 -22.760  0.00  0.00     0.131 C 
BRANCH  28  29
ATOM     29  CAS B50 d          27.447   6.964 -22.305  0.00  0.00     0.054 C 
BRANCH  29  30
ATOM     30  CBH B50 d          26.405   6.949 -23.436  0.00  0.00     0.143 C 
BRANCH  30  31
ATOM     31  OAD B50 d          25.316   6.097 -23.068  0.00  0.00    -0.393 OA
ATOM     32  H5  B50 d          25.634   5.209 -22.958  0.00  0.00     0.210 HD
ENDBRANCH  30  31
BRANCH  30  33
ATOM     33  CAP B50 d          27.010   6.450 -24.753  0.00  0.00     0.195 C 
BRANCH  33  34
ATOM     34  OAC B50 d          27.461   5.104 -24.606  0.00  0.00    -0.398 OA
ATOM     35  H4  B50 d          26.727   4.549 -24.369  0.00  0.00     0.209 HD
ENDBRANCH  33  34
ENDBRANCH  30  33
ENDBRANCH  29  30
ENDBRANCH  28  29
ENDBRANCH   5  28
BRANCH   2  36
ATOM     36  CBC B50 d          28.478  11.845 -20.514  0.00  0.00    -0.024 A 
ATOM     37  CAM B50 d          27.261  11.832 -19.814  0.00  0.00     0.014 A 
ATOM     38  CAK B50 d          27.050  12.729 -18.764  0.00  0.00     0.024 A 
ATOM     39  CBB B50 d          28.054  13.634 -18.405  0.00  0.00     0.034 A 
ATOM     40 CLAE B50 d          27.813  14.720 -17.122  0.00  0.00    -0.084 Cl
ATOM     41  CAL B50 d          29.273  13.636 -19.080  0.00  0.00     0.024 A 
ATOM     42  CAN B50 d          29.486  12.735 -20.122  0.00  0.00     0.014 A 
ENDBRANCH   2  36
TORSDOF 13
