REMARK  7 active torsions:
REMARK  status: ('A' for Active; 'I' for Inactive)
REMARK    1  A    between atoms: C1_1  and  S1_12 
REMARK    2  A    between atoms: C2_2  and  O2_3 
REMARK    3  A    between atoms: C3_4  and  O3_5 
REMARK    4  A    between atoms: C4_6  and  O4_7 
REMARK    5  A    between atoms: C5_8  and  C6_10 
REMARK    6  A    between atoms: C6_10  and  O6_11 
REMARK    7  A    between atoms: S1_12  and  C1'_13 
ROOT
ATOM      1  C1  IPT d         -14.821 -27.714 -26.191  0.00  0.00     0.215 C 
ATOM      2  C2  IPT d         -13.535 -27.617 -25.347  0.00  0.00     0.188 C 
ATOM      3  C3  IPT d         -12.351 -27.301 -26.259  0.00  0.00     0.181 C 
ATOM      4  C4  IPT d         -12.240 -28.379 -27.377  0.00  0.00     0.180 C 
ATOM      5  C5  IPT d         -13.572 -28.429 -28.120  0.00  0.00     0.178 C 
ATOM      6  O5  IPT d         -14.634 -28.685 -27.194  0.00  0.00    -0.363 OA
ENDROOT
BRANCH   1   7
ATOM      7  S1  IPT d         -16.221 -28.406 -25.254  0.00  0.00    -0.131 SA
BRANCH   7   8
ATOM      8  C1' IPT d         -17.713 -27.910 -26.243  0.00  0.00     0.041 C 
ATOM      9  C2' IPT d         -18.970 -28.190 -25.470  0.00  0.00     0.021 C 
ATOM     10  C3' IPT d         -17.744 -28.497 -27.663  0.00  0.00     0.021 C 
ENDBRANCH   7   8
ENDBRANCH   1   7
BRANCH   2  11
ATOM     11  O2  IPT d         -13.689 -26.531 -24.451  0.00  0.00    -0.389 OA
ATOM     12  H3  IPT d         -12.907 -26.449 -23.917  0.00  0.00     0.210 HD
ENDBRANCH   2  11
BRANCH   3  13
ATOM     13  O3  IPT d         -11.117 -27.271 -25.498  0.00  0.00    -0.390 OA
ATOM     14  H5  IPT d         -10.976 -28.118 -25.091  0.00  0.00     0.210 HD
ENDBRANCH   3  13
BRANCH   5  15
ATOM     15  C6  IPT d         -13.723 -29.556 -29.141  0.00  0.00     0.198 C 
BRANCH  15  16
ATOM     16  O6  IPT d         -12.663 -29.402 -30.091  0.00  0.00    -0.398 OA
ATOM     17  H11 IPT d         -12.724 -30.088 -30.745  0.00  0.00     0.209 HD
ENDBRANCH  15  16
ENDBRANCH   5  15
BRANCH   4  18
ATOM     18  O4  IPT d         -11.897 -29.695 -26.853  0.00  0.00    -0.390 OA
ATOM     19  H7  IPT d         -11.059 -29.649 -26.407  0.00  0.00     0.210 HD
ENDBRANCH   4  18
TORSDOF 7
