REMARK  4 active torsions:
REMARK  status: ('A' for Active; 'I' for Inactive)
REMARK    1  A    between atoms: CA_2  and  N_1 
REMARK    2  A    between atoms: CA_2  and  CB_5 
REMARK    3  A    between atoms: CA_2  and  C_3 
REMARK    4  A    between atoms: CB_5  and  CG_6 
ROOT
ATOM      1  CG  TRP d          15.719  61.212  32.508  0.00  0.00    -0.028 A 
ATOM      2  CD1 TRP d          15.296  60.850  31.256  0.00  0.00     0.096 A 
ATOM      3  CD2 TRP d          15.182  60.221  33.389  0.00  0.00    -0.002 A 
ATOM      4  NE1 TRP d          14.530  59.714  31.307  0.00  0.00    -0.365 N 
ATOM      5  CE2 TRP d          14.470  59.292  32.607  0.00  0.00     0.042 A 
ATOM      6  CE3 TRP d          15.246  60.010  34.775  0.00  0.00     0.014 A 
ATOM      7  CZ2 TRP d          13.806  58.192  33.167  0.00  0.00     0.030 A 
ATOM      8  CZ3 TRP d          14.598  58.904  35.317  0.00  0.00     0.001 A 
ATOM      9  CH2 TRP d          13.885  58.010  34.506  0.00  0.00     0.002 A 
ATOM     10  H8  TRP d          14.077  59.256  30.503  0.00  0.00     0.165 HD
ENDROOT
BRANCH   1  11
ATOM     11  CB  TRP d          16.596  62.404  32.828  0.00  0.00     0.085 C 
BRANCH  11  12
ATOM     12  CA  TRP d          18.054  61.897  32.969  0.00  0.00     0.287 C 
BRANCH  12  13
ATOM     13  N   TRP d          18.870  62.990  33.520  0.00  0.00    -0.065 N 
ATOM     14  H1  TRP d          18.444  63.333  34.367  0.00  0.00     0.275 HD
ATOM     15  H2  TRP d          18.929  63.738  32.847  0.00  0.00     0.275 HD
ATOM     16  H3  TRP d          19.796  62.648  33.724  0.00  0.00     0.275 HD
ENDBRANCH  12  13
BRANCH  12  17
ATOM     17  C   TRP d          18.630  61.289  31.644  0.00  0.00     0.204 C 
ATOM     18  O   TRP d          18.951  62.029  30.647  0.00  0.00    -0.646 OA
ATOM     19  OXT TRP d          19.142  60.141  31.773  0.00  0.00    -0.646 OA
ENDBRANCH  12  17
ENDBRANCH  11  12
ENDBRANCH   1  11
TORSDOF 4
