REMARK  9 active torsions:
REMARK  status: ('A' for Active; 'I' for Inactive)
REMARK    1  A    between atoms: C1_1  and  C2_2 
REMARK    2  A    between atoms: C4_4  and  O4_15 
REMARK    3  A    between atoms: C5_5  and  N5_12 
REMARK    4  A    between atoms: C6_6  and  C7_7 
REMARK    5  A    between atoms: C7_7  and  O7_17 
REMARK    6  A    between atoms: C7_7  and  C8_8 
REMARK    7  A    between atoms: C8_8  and  O8_18 
REMARK    8  A    between atoms: C8_8  and  C9_9 
REMARK    9  A    between atoms: C9_9  and  O9_19 
REMARK       I    between atoms: N5_12  and  C10_10 
ROOT
ATOM      1  C2  DAN d          42.954  51.570  47.074  0.00  0.00     0.144 C 
ATOM      2  C3  DAN d          41.699  51.111  47.500  0.00  0.00     0.050 C 
ATOM      3  C4  DAN d          41.532  50.477  48.876  0.00  0.00     0.169 C 
ATOM      4  C5  DAN d          42.671  50.926  49.803  0.00  0.00     0.149 C 
ATOM      5  C6  DAN d          44.001  50.644  49.079  0.00  0.00     0.186 C 
ATOM      6  O6  DAN d          44.058  51.447  47.898  0.00  0.00    -0.335 OA
ENDROOT
BRANCH   5   7
ATOM      7  C7  DAN d          45.210  51.020  49.907  0.00  0.00     0.180 C 
BRANCH   7   8
ATOM      8  O7  DAN d          45.055  52.388  50.255  0.00  0.00    -0.390 OA
ATOM      9  H14 DAN d          44.255  52.498  50.755  0.00  0.00     0.210 HD
ENDBRANCH   7   8
BRANCH   7  10
ATOM     10  C8  DAN d          46.476  50.766  49.057  0.00  0.00     0.173 C 
BRANCH  10  11
ATOM     11  O8  DAN d          46.526  49.369  48.688  0.00  0.00    -0.391 OA
ATOM     12  H15 DAN d          46.556  48.836  49.474  0.00  0.00     0.210 HD
ENDBRANCH  10  11
BRANCH  10  13
ATOM     13  C9  DAN d          47.745  51.177  49.868  0.00  0.00     0.198 C 
BRANCH  13  14
ATOM     14  O9  DAN d          47.882  50.371  51.025  0.00  0.00    -0.398 OA
ATOM     15  H16 DAN d          47.963  49.460  50.767  0.00  0.00     0.209 HD
ENDBRANCH  13  14
ENDBRANCH  10  13
ENDBRANCH   7  10
ENDBRANCH   5   7
BRANCH   4  16
ATOM     16  N5  DAN d          42.512  50.210  51.057  0.00  0.00    -0.351 N 
ATOM     17  C10 DAN d          42.766  50.761  52.242  0.00  0.00     0.214 C 
ATOM     18  O10 DAN d          43.371  51.842  52.336  0.00  0.00    -0.274 OA
ATOM     19  C11 DAN d          42.393  49.938  53.474  0.00  0.00     0.117 C 
ATOM     20  H12 DAN d          42.198  49.261  51.029  0.00  0.00     0.163 HD
ENDBRANCH   4  16
BRANCH   3  21
ATOM     21  O4  DAN d          40.299  50.810  49.507  0.00  0.00    -0.389 OA
ATOM     22  H13 DAN d          40.255  50.387  50.356  0.00  0.00     0.210 HD
ENDBRANCH   3  21
BRANCH   1  23
ATOM     23  C1  DAN d          43.144  51.893  45.722  0.00  0.00     0.233 C 
ATOM     24  O1B DAN d          44.284  51.827  45.245  0.00  0.00    -0.642 OA
ATOM     25  O1A DAN d          42.237  52.204  44.950  0.00  0.00    -0.642 OA
ENDBRANCH   1  23
TORSDOF 9
