REMARK  13 active torsions:
REMARK  status: ('A' for Active; 'I' for Inactive)
REMARK    1  A    between atoms: C1_2  and  C2_3 
REMARK    2  A    between atoms: C8_9  and  C1_2 
REMARK    3  A    between atoms: P_22  and  C8_9 
REMARK    4  A    between atoms: C8_9  and  N2_24 
REMARK    5  A    between atoms: C10_11  and  C9_10 
REMARK    6  A    between atoms: C9_10  and  P_22 
REMARK    7  A    between atoms: C11_12  and  C10_11 
REMARK    8  A    between atoms: C10_11  and  C21_25 
REMARK       I    between atoms: N1_33  and  C11_12 
REMARK    9  A    between atoms: C12_13  and  C13_14 
REMARK   10  A    between atoms: C12_13  and  C20_21 
REMARK   11  A    between atoms: C12_13  and  N1_33 
REMARK   12  A    between atoms: C13_14  and  C14_15 
REMARK   13  A    between atoms: C21_25  and  C22_26 
ROOT
ATOM      1  C10 PH0 d          34.733   6.600   1.680  0.00  0.00     0.092 C 
ENDROOT
BRANCH   1   2
ATOM      2  C9  PH0 d          34.787   5.238   0.971  0.00  0.00     0.120 C 
BRANCH   2   3
ATOM      3  P   PH0 d          34.927   3.845   2.175  0.00  0.00     0.138 P 
ATOM      4  O1  PH0 d          34.144   4.231   3.459  0.00  0.00    -0.666 OA
ATOM      5  O5  PH0 d          36.545   3.494   2.524  0.00  0.00    -0.666 OA
BRANCH   3   6
ATOM      6  C8  PH0 d          34.159   2.440   1.280  0.00  0.00     0.278 C 
BRANCH   6   7
ATOM      7  C1  PH0 d          32.674   2.749   1.112  0.00  0.00     0.082 C 
BRANCH   7   8
ATOM      8  C2  PH0 d          31.925   1.993   0.051  0.00  0.00    -0.056 A 
ATOM      9  C3  PH0 d          32.378   1.849  -1.285  0.00  0.00     0.007 A 
ATOM     10  C4  PH0 d          31.545   1.122  -2.155  0.00  0.00     0.001 A 
ATOM     11  C5  PH0 d          30.321   0.587  -1.788  0.00  0.00     0.000 A 
ATOM     12  C6  PH0 d          29.913   0.703  -0.484  0.00  0.00     0.001 A 
ATOM     13  C7  PH0 d          30.705   1.418   0.410  0.00  0.00     0.007 A 
ENDBRANCH   7   8
ENDBRANCH   6   7
BRANCH   6  14
ATOM     14  N2  PH0 d          34.301   1.249   2.156  0.00  0.00    -0.065 N 
ATOM     15  H20 PH0 d          33.891   0.448   1.703  0.00  0.00     0.275 HD
ATOM     16  H21 PH0 d          33.830   1.417   3.031  0.00  0.00     0.275 HD
ATOM     17  H22 PH0 d          35.279   1.073   2.329  0.00  0.00     0.275 HD
ENDBRANCH   6  14
ENDBRANCH   3   6
ENDBRANCH   2   3
ENDBRANCH   1   2
BRANCH   1  18
ATOM     18  C11 PH0 d          34.469   7.651   0.640  0.00  0.00     0.223 C 
ATOM     19  O2  PH0 d          35.150   7.649  -0.336  0.00  0.00    -0.273 OA
ATOM     20  N1  PH0 d          33.492   8.528   0.769  0.00  0.00    -0.346 N 
ATOM     21  H30 PH0 d          32.906   8.459   1.576  0.00  0.00     0.163 HD
BRANCH  20  22
ATOM     22  C12 PH0 d          33.212   9.588  -0.185  0.00  0.00     0.189 C 
BRANCH  22  23
ATOM     23  C13 PH0 d          32.302  10.670   0.384  0.00  0.00     0.074 C 
BRANCH  23  24
ATOM     24  C14 PH0 d          31.224  10.020   1.217  0.00  0.00    -0.056 A 
ATOM     25  C15 PH0 d          31.440   9.760   2.591  0.00  0.00     0.007 A 
ATOM     26  C16 PH0 d          30.420   9.178   3.316  0.00  0.00     0.001 A 
ATOM     27  C17 PH0 d          29.222   8.837   2.701  0.00  0.00     0.000 A 
ATOM     28  C18 PH0 d          29.016   9.108   1.362  0.00  0.00     0.001 A 
ATOM     29  C19 PH0 d          30.023   9.701   0.633  0.00  0.00     0.007 A 
ENDBRANCH  23  24
ENDBRANCH  22  23
BRANCH  22  30
ATOM     30  C20 PH0 d          34.468  10.270  -0.665  0.00  0.00     0.197 C 
ATOM     31  O3  PH0 d          35.419  10.598   0.127  0.00  0.00    -0.646 OA
ATOM     32  O4  PH0 d          34.522  10.443  -1.897  0.00  0.00    -0.646 OA
ENDBRANCH  22  30
ENDBRANCH  20  22
ENDBRANCH   1  18
BRANCH   1  33
ATOM     33  C21 PH0 d          36.112   6.880   2.282  0.00  0.00     0.053 C 
BRANCH  33  34
ATOM     34  C22 PH0 d          36.056   8.013   3.308  0.00  0.00    -0.057 A 
ATOM     35  C23 PH0 d          37.191   8.781   3.543  0.00  0.00     0.007 A 
ATOM     36  C24 PH0 d          37.203   9.847   4.459  0.00  0.00     0.001 A 
ATOM     37  C25 PH0 d          36.048  10.110   5.179  0.00  0.00     0.000 A 
ATOM     38  C26 PH0 d          34.907   9.319   5.006  0.00  0.00     0.001 A 
ATOM     39  C27 PH0 d          34.904   8.269   4.070  0.00  0.00     0.007 A 
ENDBRANCH  33  34
ENDBRANCH   1  33
TORSDOF 13
