REMARK  5 active torsions:
REMARK  status: ('A' for Active; 'I' for Inactive)
REMARK    1  A    between atoms: C11_1  and  C10_4 
REMARK    2  A    between atoms: C10_4  and  C9_5 
REMARK    3  A    between atoms: C9_5  and  C8_6 
REMARK    4  A    between atoms: C8_6  and  C7_7 
REMARK    5  A    between atoms: C7_7  and  C2_8 
ROOT
ATOM      1  C2  BTN d          29.208  14.551  11.545  0.00  0.00     0.072 C 
ATOM      2  S1  BTN d          27.511  15.228  11.703  0.00  0.00    -0.160 SA
ATOM      3  C6  BTN d          27.167  14.650  10.023  0.00  0.00     0.101 C 
ATOM      4  C5  BTN d          27.736  13.248   9.974  0.00  0.00     0.119 A 
ATOM      5  N1  BTN d          26.885  12.181  10.497  0.00  0.00    -0.336 N 
ATOM      6  C3  BTN d          27.458  11.546  11.529  0.00  0.00     0.316 A 
ATOM      7  O3  BTN d          26.977  10.602  12.205  0.00  0.00    -0.247 OA
ATOM      8  N2  BTN d          28.648  12.121  11.821  0.00  0.00    -0.335 N 
ATOM      9  C4  BTN d          28.967  13.206  10.901  0.00  0.00     0.123 A 
ATOM     10  H13 BTN d          25.984  11.952  10.129  0.00  0.00     0.164 HD
ATOM     11  H14 BTN d          29.237  11.836  12.577  0.00  0.00     0.164 HD
ENDROOT
BRANCH   1  12
ATOM     12  C7  BTN d          30.016  14.626  12.822  0.00  0.00     0.017 C 
BRANCH  12  13
ATOM     13  C8  BTN d          30.516  16.036  13.200  0.00  0.00     0.002 C 
BRANCH  13  14
ATOM     14  C9  BTN d          31.226  16.046  14.560  0.00  0.00     0.010 C 
BRANCH  14  15
ATOM     15  C10 BTN d          31.599  17.450  14.962  0.00  0.00     0.113 C 
BRANCH  15  16
ATOM     16  C11 BTN d          32.564  18.139  14.071  0.00  0.00     0.172 C 
ATOM     17  O12 BTN d          32.532  19.392  13.966  0.00  0.00    -0.648 OA
ATOM     18  O11 BTN d          33.426  17.463  13.473  0.00  0.00    -0.648 OA
ENDBRANCH  15  16
ENDBRANCH  14  15
ENDBRANCH  13  14
ENDBRANCH  12  13
ENDBRANCH   1  12
TORSDOF 5
