REMARK  8 active torsions:
REMARK  status: ('A' for Active; 'I' for Inactive)
REMARK    1  A    between atoms: N4_3  and  C16_21 
REMARK    2  A    between atoms: C1_33  and  N6_5 
REMARK       I    between atoms: C9_7  and  N3_18 
REMARK    3  A    between atoms: C8_24  and  C9_7 
REMARK    4  A    between atoms: N3_18  and  C10_8 
REMARK    5  A    between atoms: C11_9  and  C13_11 
REMARK    6  A    between atoms: N_25  and  C8_24 
REMARK    7  A    between atoms: C6_28  and  C4_29 
REMARK    8  A    between atoms: C_30  and  O1_31 
ROOT
ATOM      1  C7  MOL d          33.714 -34.210  -8.746  0.00  0.00     0.148 A 
ATOM      2  N   MOL d          33.842 -33.930 -10.051  0.00  0.00    -0.252 N 
ATOM      3  N1  MOL d          32.644 -33.689 -10.611  0.00  0.00    -0.065 NA
ATOM      4  N2  MOL d          31.747 -33.803  -9.657  0.00  0.00    -0.130 NA
ATOM      5  C6  MOL d          32.376 -34.119  -8.489  0.00  0.00     0.108 A 
ENDROOT
BRANCH   2   6
ATOM      6  C8  MOL d          35.057 -33.806 -10.836  0.00  0.00     0.255 C 
BRANCH   6   7
ATOM      7  C9  MOL d          35.982 -32.756 -10.242  0.00  0.00     0.243 C 
ATOM      8  O   MOL d          35.734 -32.157  -9.194  0.00  0.00    -0.271 OA
ATOM      9  N3  MOL d          37.036 -32.423 -11.038  0.00  0.00    -0.310 N 
ATOM     10  H   MOL d          37.078 -32.864 -11.935  0.00  0.00     0.170 HD
BRANCH   9  11
ATOM     11  C10 MOL d          38.048 -31.542 -10.734  0.00  0.00     0.134 A 
ATOM     12  N4  MOL d          38.778 -30.921 -11.703  0.00  0.00    -0.217 N 
ATOM     13  N5  MOL d          39.659 -30.008 -11.147  0.00  0.00    -0.169 NA
ATOM     14  C11 MOL d          39.435 -30.093  -9.839  0.00  0.00     0.070 A 
ATOM     15  C12 MOL d          38.438 -31.021  -9.540  0.00  0.00     0.080 A 
BRANCH  12  16
ATOM     16  C16 MOL d          38.718 -31.052 -13.125  0.00  0.00     0.060 A 
ATOM     17  C21 MOL d          39.886 -30.957 -13.884  0.00  0.00     0.031 A 
ATOM     18  C20 MOL d          39.826 -31.120 -15.259  0.00  0.00     0.002 A 
ATOM     19  C19 MOL d          38.617 -31.379 -15.882  0.00  0.00     0.000 A 
ATOM     20  C18 MOL d          37.454 -31.466 -15.131  0.00  0.00     0.002 A 
ATOM     21  C17 MOL d          37.496 -31.298 -13.755  0.00  0.00     0.031 A 
ENDBRANCH  12  16
BRANCH  14  22
ATOM     22  C13 MOL d          40.149 -29.331  -8.779  0.00  0.00     0.084 A 
ATOM     23  C15 MOL d          39.988 -27.841  -8.699  0.00  0.00    -0.015 A 
ATOM     24  C14 MOL d          41.282 -28.411  -9.129  0.00  0.00    -0.015 A 
ENDBRANCH  14  22
ENDBRANCH   9  11
ENDBRANCH   6   7
ENDBRANCH   2   6
BRANCH   5  25
ATOM     25  C4  MOL d          31.664 -34.256  -7.210  0.00  0.00    -0.001 A 
ATOM     26  C3  MOL d          32.182 -35.071  -6.206  0.00  0.00     0.016 A 
ATOM     27  C2  MOL d          31.548 -35.182  -4.984  0.00  0.00     0.034 A 
ATOM     28  C1  MOL d          30.374 -34.471  -4.761  0.00  0.00     0.073 A 
ATOM     29  C   MOL d          29.849 -33.632  -5.759  0.00  0.00     0.096 A 
ATOM     30  C5  MOL d          30.494 -33.534  -6.980  0.00  0.00     0.053 A 
BRANCH  28  31
ATOM     31  N6  MOL d          29.717 -34.609  -3.487  0.00  0.00    -0.312 N 
ATOM     32  C22 MOL d          30.305 -34.918  -2.301  0.00  0.00     0.214 A 
ATOM     33  N7  MOL d          29.437 -35.044  -1.331  0.00  0.00    -0.247 NA
ATOM     34  C23 MOL d          28.198 -34.797  -1.920  0.00  0.00     0.048 A 
ATOM     35  C24 MOL d          28.357 -34.525  -3.244  0.00  0.00     0.125 A 
ATOM     36  C25 MOL d          26.940 -34.856  -1.113  0.00  0.00     0.072 C 
ENDBRANCH  28  31
BRANCH  29  37
ATOM     37  O1  MOL d          28.729 -32.919  -5.424  0.00  0.00    -0.354 OA
ATOM     38  C26 MOL d          28.285 -31.894  -6.319  0.00  0.00     0.210 C 
ENDBRANCH  29  37
ENDBRANCH   5  25
TORSDOF 8
