REMARK  3 active torsions:
REMARK  status: ('A' for Active; 'I' for Inactive)
REMARK    1  A    between atoms: C1_1  and  N8_13 
REMARK       I    between atoms: N3_6  and  C20_8 
REMARK    2  A    between atoms: C20_8  and  C22_9 
REMARK    3  A    between atoms: N8_13  and  C10_15 
ROOT
ATOM      1  C22 MI1 d           5.322  15.524   6.077  0.00  0.00     0.226 C 
ATOM      2  C23 MI1 d           6.430  15.309   5.168  0.00  0.00     0.068 C 
ATOM      3  N24 MI1 d           7.299  15.078   4.438  0.00  0.00    -0.197 NA
ENDROOT
BRANCH   1   4
ATOM      4  C20 MI1 d           4.144  16.152   5.379  0.00  0.00     0.232 C 
ATOM      5  N3  MI1 d           2.987  16.243   6.113  0.00  0.00    -0.349 N 
ATOM      6  C2  MI1 d           1.790  16.812   5.512  0.00  0.00     0.151 C 
ATOM      7  C4  MI1 d           2.808  15.694   7.429  0.00  0.00     0.126 C 
ATOM      8  C1  MI1 d           0.726  15.735   5.410  0.00  0.00     0.107 C 
ATOM      9  C6  MI1 d           0.423  15.179   6.808  0.00  0.00     0.007 C 
ATOM     10  C5  MI1 d           1.700  14.662   7.446  0.00  0.00     0.026 C 
ATOM     11  C7  MI1 d          -0.205  16.206   7.750  0.00  0.00     0.012 C 
ATOM     12  O21 MI1 d           4.221  16.572   4.238  0.00  0.00    -0.272 OA
BRANCH   8  13
ATOM     13  N8  MI1 d          -0.565  16.235   4.924  0.00  0.00    -0.363 N 
ATOM     14  C9  MI1 d          -0.747  17.627   4.602  0.00  0.00     0.152 C 
BRANCH  13  15
ATOM     15  C10 MI1 d          -1.394  15.375   4.171  0.00  0.00     0.141 A 
ATOM     16  C15 MI1 d          -1.269  13.988   4.041  0.00  0.00     0.057 A 
ATOM     17  C16 MI1 d          -0.375  12.958   4.474  0.00  0.00     0.036 A 
ATOM     18  C14 MI1 d          -2.240  13.338   3.307  0.00  0.00     0.142 A 
ATOM     19  C11 MI1 d          -0.825  11.758   3.987  0.00  0.00     0.091 A 
ATOM     20  N12 MI1 d          -1.966  12.007   3.291  0.00  0.00    -0.350 N 
ATOM     21  H19 MI1 d          -2.539  11.292   2.821  0.00  0.00     0.166 HD
ATOM     22  N17 MI1 d          -3.295  13.865   2.689  0.00  0.00    -0.223 NA
ATOM     23  C18 MI1 d          -3.298  15.183   2.883  0.00  0.00     0.237 A 
ATOM     24  N19 MI1 d          -2.448  15.953   3.569  0.00  0.00    -0.224 NA
ENDBRANCH  13  15
ENDBRANCH   8  13
ENDBRANCH   1   4
TORSDOF 3
