REMARK  9 active torsions:
REMARK  status: ('A' for Active; 'I' for Inactive)
REMARK    1  A    between atoms: C9_23  and  C1_1 
REMARK    2  A    between atoms: C28_10  and  C35_8 
REMARK    3  A    between atoms: C20_16  and  C24_15 
REMARK    4  A    between atoms: N19_17  and  C20_16 
REMARK    5  A    between atoms: O16_18  and  N19_17 
REMARK    6  A    between atoms: C13_19  and  O16_18 
REMARK    7  A    between atoms: C12_20  and  C13_19 
REMARK    8  A    between atoms: O11_21  and  C12_20 
REMARK    9  A    between atoms: N10_22  and  O11_21 
ROOT
ATOM      1  C12 MOL d           6.552  -1.119   1.688  0.00  0.00     0.232 C 
ENDROOT
BRANCH   1   2
ATOM      2  C13 MOL d           8.069  -1.148   1.875  0.00  0.00     0.232 C 
BRANCH   2   3
ATOM      3  O16 MOL d           8.460  -0.052   2.711  0.00  0.00    -0.255 OA
BRANCH   3   4
ATOM      4  N19 MOL d           8.640   1.155   2.130  0.00  0.00    -0.146 NA
BRANCH   4   5
ATOM      5  C20 MOL d           8.697   2.262   2.619  0.00  0.00     0.157 C 
BRANCH   5   6
ATOM      6  C24 MOL d           8.822   3.541   2.758  0.00  0.00    -0.017 A 
ATOM      7  C26 MOL d           9.332   4.149   1.615  0.00  0.00     0.014 A 
ATOM      8  C27 MOL d           9.534   5.519   1.557  0.00  0.00     0.019 A 
ATOM      9  C28 MOL d           9.232   6.303   2.663  0.00  0.00     0.040 A 
ATOM     10  C29 MOL d           8.720   5.709   3.826  0.00  0.00     0.019 A 
ATOM     11  C30 MOL d           8.509   4.321   3.876  0.00  0.00     0.014 A 
BRANCH   9  12
ATOM     12  C35 MOL d           9.479   7.780   2.563  0.00  0.00     0.209 C 
ATOM     13  O37 MOL d           8.862   8.565   3.305  0.00  0.00    -0.644 OA
ATOM     14  O36 MOL d          10.314   8.194   1.721  0.00  0.00    -0.644 OA
ENDBRANCH   9  12
ENDBRANCH   5   6
ENDBRANCH   4   5
ENDBRANCH   3   4
ENDBRANCH   2   3
ENDBRANCH   1   2
BRANCH   1  15
ATOM     15  O11 MOL d           6.144  -1.741   0.464  0.00  0.00    -0.255 OA
BRANCH  15  16
ATOM     16  N10 MOL d           6.295  -1.065  -0.698  0.00  0.00    -0.144 NA
ATOM     17  C9  MOL d           5.872  -1.581  -1.765  0.00  0.00     0.175 C 
BRANCH  17  18
ATOM     18  C1  MOL d           6.065  -0.849  -3.028  0.00  0.00     0.061 A 
ATOM     19  C6  MOL d           5.731  -1.437  -4.244  0.00  0.00     0.105 A 
ATOM     20  C5  MOL d           5.938  -0.700  -5.402  0.00  0.00     0.251 A 
ATOM     21  N4  MOL d           6.471   0.532  -5.317  0.00  0.00    -0.275 N 
ATOM     22  O7  MOL d           5.661  -1.159  -6.530  0.00  0.00    -0.268 OA
ATOM     23  C3  MOL d           6.802   1.085  -4.136  0.00  0.00     0.327 A 
ATOM     24  H3  MOL d           6.626   1.052  -6.157  0.00  0.00     0.173 HD
ATOM     25  N2  MOL d           6.600   0.395  -2.994  0.00  0.00    -0.307 N 
ATOM     26  O8  MOL d           7.297   2.230  -4.121  0.00  0.00    -0.247 OA
ATOM     27  H2  MOL d           6.847   0.805  -2.116  0.00  0.00     0.170 HD
ENDBRANCH  17  18
ENDBRANCH  15  16
ENDBRANCH   1  15
TORSDOF 9
