REMARK  8 active torsions:
REMARK  status: ('A' for Active; 'I' for Inactive)
REMARK    1  A    between atoms: O3A_8  and  PB_1 
REMARK    2  A    between atoms: PA_5  and  O3A_8 
REMARK    3  A    between atoms: PA_5  and  O5'_9 
REMARK    4  A    between atoms: O5'_9  and  C5'_10 
REMARK    5  A    between atoms: C5'_10  and  C4'_11 
REMARK    6  A    between atoms: C3'_13  and  O3'_14 
REMARK    7  A    between atoms: C2'_15  and  O2'_16 
REMARK    8  A    between atoms: C1'_17  and  N9_18 
ROOT
ATOM      1  C4' ADP d          -9.617  31.293  -8.248  0.00  0.00     0.180 C 
ATOM      2  O4' ADP d         -10.280  32.320  -7.516  0.00  0.00    -0.353 OA
ATOM      3  C3' ADP d          -8.627  31.974  -9.194  0.00  0.00     0.182 C 
ATOM      4  C2' ADP d          -8.777  33.462  -8.969  0.00  0.00     0.198 C 
ATOM      5  C1' ADP d          -9.522  33.518  -7.660  0.00  0.00     0.262 C 
ENDROOT
BRANCH   5   6
ATOM      6  N9  ADP d          -8.639  33.689  -6.489  0.00  0.00    -0.294 N 
ATOM      7  C8  ADP d          -8.400  32.826  -5.476  0.00  0.00     0.214 A 
ATOM      8  N7  ADP d          -7.572  33.359  -4.560  0.00  0.00    -0.236 NA
ATOM      9  C5  ADP d          -7.290  34.594  -4.975  0.00  0.00     0.149 A 
ATOM     10  C6  ADP d          -6.481  35.705  -4.455  0.00  0.00     0.155 A 
ATOM     11  C4  ADP d          -7.992  34.807  -6.238  0.00  0.00     0.167 A 
ATOM     12  N6  ADP d          -5.807  35.564  -3.304  0.00  0.00    -0.382 N 
ATOM     13  N1  ADP d          -6.433  36.822  -5.188  0.00  0.00    -0.222 NA
ATOM     14  H   ADP d          -5.240  36.343  -2.940  0.00  0.00     0.157 HD
ATOM     15  H   ADP d          -5.856  34.676  -2.784  0.00  0.00     0.157 HD
ATOM     16  C2  ADP d          -7.114  36.947  -6.347  0.00  0.00     0.237 A 
ATOM     17  N3  ADP d          -7.867  35.980  -6.881  0.00  0.00    -0.222 NA
ENDBRANCH   5   6
BRANCH   4  18
ATOM     18  O2' ADP d          -9.605  34.137  -9.926  0.00  0.00    -0.388 OA
ATOM     19  H   ADP d          -9.237  34.028 -10.795  0.00  0.00     0.210 HD
ENDBRANCH   4  18
BRANCH   1  20
ATOM     20  C5' ADP d          -8.900  30.449  -7.221  0.00  0.00     0.216 C 
BRANCH  20  21
ATOM     21  O5' ADP d          -8.683  29.238  -7.815  0.00  0.00    -0.287 OA
BRANCH  21  22
ATOM     22  PA  ADP d          -7.228  28.731  -8.196  0.00  0.00     0.418 P 
ATOM     23  O1A ADP d          -7.660  27.532  -8.997  0.00  0.00    -0.624 OA
ATOM     24  O2A ADP d          -6.344  29.776  -8.798  0.00  0.00    -0.624 OA
BRANCH  22  25
ATOM     25  O3A ADP d          -6.677  28.325  -6.733  0.00  0.00    -0.173 OA
BRANCH  25  26
ATOM     26  PB  ADP d          -5.469  27.318  -6.469  0.00  0.00     0.431 P 
ATOM     27  O1B ADP d          -5.288  26.511  -7.748  0.00  0.00    -0.616 OA
ATOM     28  O2B ADP d          -4.332  28.234  -6.191  0.00  0.00    -0.616 OA
ATOM     29  O3B ADP d          -5.926  26.477  -5.330  0.00  0.00    -0.616 OA
ENDBRANCH  25  26
ENDBRANCH  22  25
ENDBRANCH  21  22
ENDBRANCH  20  21
ENDBRANCH   1  20
BRANCH   3  30
ATOM     30  O3' ADP d          -8.862  31.593 -10.542  0.00  0.00    -0.390 OA
ATOM     31  H   ADP d          -9.743  31.844 -10.792  0.00  0.00     0.210 HD
ENDBRANCH   3  30
TORSDOF 8
