REMARK  13 active torsions:
REMARK  status: ('A' for Active; 'I' for Inactive)
REMARK    1  A    between atoms: C6_7  and  N6_39 
REMARK    2  A    between atoms: CAK_17  and  CBH_16 
REMARK    3  A    between atoms: CAI_18  and  CAK_17 
REMARK    4  A    between atoms: CAH_19  and  CAI_18 
REMARK    5  A    between atoms: CAJ_20  and  CAH_19 
REMARK    6  A    between atoms: CAZ_21  and  CAJ_20 
REMARK       I    between atoms: NAV_23  and  CAZ_21 
REMARK    7  A    between atoms: SBK_24  and  NAV_23 
REMARK    8  A    between atoms: OAW_27  and  SBK_24 
REMARK    9  A    between atoms: CAN_28  and  OAW_27 
REMARK   10  A    between atoms: CBE_29  and  CAN_28 
REMARK   11  A    between atoms: CAL_31  and  OAL_32 
REMARK   12  A    between atoms: CAM_33  and  OAM_34 
REMARK   13  A    between atoms: CBG_36  and  N9_37 
ROOT
ATOM      1  OAW MOL d          -4.329  -3.577   7.064  0.00  0.00    -0.257 OA
ENDROOT
BRANCH   1   2
ATOM      2  SBK MOL d          -4.042  -4.934   6.410  0.00  0.00     0.364 S 
ATOM      3  OAD MOL d          -5.211  -5.334   5.680  0.00  0.00    -0.175 OA
ATOM      4  OAE MOL d          -2.949  -4.800   5.488  0.00  0.00    -0.175 OA
BRANCH   2   5
ATOM      5  NAV MOL d          -3.682  -6.040   7.507  0.00  0.00    -0.231 N 
ATOM      6  CAZ MOL d          -4.588  -6.455   8.385  0.00  0.00     0.232 C 
ATOM      7  OAB MOL d          -5.677  -5.928   8.520  0.00  0.00    -0.273 OA
ATOM      8  H18 MOL d          -2.760  -6.426   7.532  0.00  0.00     0.183 HD
BRANCH   6   9
ATOM      9  CAJ MOL d          -4.204  -7.643   9.235  0.00  0.00     0.104 C 
BRANCH   9  10
ATOM     10  CAH MOL d          -3.968  -7.174  10.667  0.00  0.00     0.009 C 
BRANCH  10  11
ATOM     11  CAI MOL d          -3.722  -8.349  11.602  0.00  0.00     0.002 C 
BRANCH  11  12
ATOM     12  CAK MOL d          -3.333  -7.877  12.998  0.00  0.00     0.017 C 
BRANCH  12  13
ATOM     13  CBH MOL d          -3.434  -9.058  13.956  0.00  0.00     0.072 C 
ATOM     14  CBI MOL d          -2.231  -9.987  13.827  0.00  0.00     0.123 C 
ATOM     15  NAU MOL d          -1.003  -9.281  13.509  0.00  0.00    -0.335 N 
ATOM     16  CBF MOL d          -1.893 -10.648  15.166  0.00  0.00     0.119 C 
ATOM     17  CBA MOL d          -0.072  -9.470  14.439  0.00  0.00     0.316 C 
ATOM     18  H4  MOL d          -0.873  -8.721  12.691  0.00  0.00     0.164 HD
ATOM     19  OAC MOL d           0.988  -8.863  14.509  0.00  0.00    -0.247 OA
ATOM     20  NAT MOL d          -0.479 -10.382  15.312  0.00  0.00    -0.336 N 
ATOM     21  H5  MOL d           0.114 -10.827  15.983  0.00  0.00     0.164 HD
ATOM     22  CAO MOL d          -2.623 -10.017  16.342  0.00  0.00     0.101 C 
ATOM     23  SAY MOL d          -3.434  -8.616  15.664  0.00  0.00    -0.160 SA
ENDBRANCH  12  13
ENDBRANCH  11  12
ENDBRANCH  10  11
ENDBRANCH   9  10
ENDBRANCH   6   9
ENDBRANCH   2   5
ENDBRANCH   1   2
BRANCH   1  24
ATOM     24  CAN MOL d          -3.384  -2.895   7.883  0.00  0.00     0.226 C 
BRANCH  24  25
ATOM     25  CBE MOL d          -3.770  -1.422   7.821  0.00  0.00     0.181 C 
ATOM     26  OAX MOL d          -4.913  -1.159   8.648  0.00  0.00    -0.353 OA
ATOM     27  CBG MOL d          -4.763   0.087   9.344  0.00  0.00     0.267 C 
ATOM     28  CAM MOL d          -3.519   0.728   8.719  0.00  0.00     0.126 C 
ATOM     29  CAL MOL d          -2.689  -0.461   8.286  0.00  0.00     0.187 C 
ATOM     30  C8Q MOL d          -2.752   1.742   9.564  0.00  0.00     0.053 C 
BRANCH  27  31
ATOM     31  N9  MOL d          -4.753  -0.225  10.803  0.00  0.00    -0.293 N 
ATOM     32  C4  MOL d          -5.874  -0.415  11.505  0.00  0.00     0.167 A 
ATOM     33  C5  MOL d          -5.527  -0.700  12.813  0.00  0.00     0.149 A 
ATOM     34  N3  MOL d          -7.181  -0.361  11.156  0.00  0.00    -0.222 NA
ATOM     35  C6  MOL d          -6.534  -0.929  13.744  0.00  0.00     0.155 A 
ATOM     36  N7  MOL d          -4.180  -0.688  12.878  0.00  0.00    -0.236 NA
ATOM     37  N1  MOL d          -7.821  -0.866  13.343  0.00  0.00    -0.222 NA
ATOM     38  C2  MOL d          -8.130  -0.592  12.071  0.00  0.00     0.237 A 
ATOM     39  C8  MOL d          -3.716  -0.408  11.640  0.00  0.00     0.214 A 
BRANCH  35  40
ATOM     40  N6  MOL d          -6.241  -1.214  15.038  0.00  0.00    -0.382 N 
ATOM     41  H29 MOL d          -7.001  -1.381  15.713  0.00  0.00     0.157 HD
ATOM     42  H30 MOL d          -5.259  -1.264  15.345  0.00  0.00     0.157 HD
ENDBRANCH  35  40
ENDBRANCH  27  31
BRANCH  28  43
ATOM     43  OAM MOL d          -3.955   1.399   7.532  0.00  0.00    -0.383 OA
ATOM     44  H24 MOL d          -3.198   1.684   7.035  0.00  0.00     0.210 HD
ENDBRANCH  28  43
BRANCH  29  45
ATOM     45  OAL MOL d          -1.832  -0.109   7.198  0.00  0.00    -0.390 OA
ATOM     46  H23 MOL d          -2.344   0.308   6.515  0.00  0.00     0.210 HD
ENDBRANCH  29  45
ENDBRANCH  24  25
ENDBRANCH   1  24
TORSDOF 13
