REMARK  8 active torsions:
REMARK  status: ('A' for Active; 'I' for Inactive)
REMARK    1  A    between atoms: C14_25  and  C13_1 
REMARK    2  A    between atoms: N35_35  and  C18_2 
REMARK    3  A    between atoms: C31_31  and  C17_3 
REMARK    4  A    between atoms: C15_5  and  C22_9 
REMARK    5  A    between atoms: C19_6  and  N38_38 
REMARK    6  A    between atoms: C21_8  and  C32_32 
REMARK    7  A    between atoms: C30_30  and  O42_42 
REMARK    8  A    between atoms: C31_31  and  N39_39 
ROOT
ATOM      1  C16 FFG d          33.532  28.733  15.292  0.00  0.00     0.013 A 
ATOM      2  C20 FFG d          34.907  28.790  15.480  0.00  0.00     0.135 A 
ATOM      3  C21 FFG d          33.285  27.851  14.215  0.00  0.00     0.169 A 
ATOM      4  C23 FFG d          35.564  29.585  16.427  0.00  0.00     0.277 C 
ATOM      5  C27 FFG d          33.407  30.787  16.621  0.00  0.00     0.137 C 
ATOM      6  C25 FFG d          32.627  29.541  16.196  0.00  0.00     0.064 C 
ATOM      7  N33 FFG d          34.461  27.389  13.788  0.00  0.00    -0.162 NA
ATOM      8  N35 FFG d          35.442  27.958  14.544  0.00  0.00    -0.227 N 
ATOM      9  N38 FFG d          34.829  30.573  17.001  0.00  0.00    -0.312 N 
ATOM     10  O40 FFG d          36.751  29.406  16.707  0.00  0.00    -0.265 OA
ENDROOT
BRANCH   9  11
ATOM     11  C19 FFG d          35.404  31.406  17.921  0.00  0.00     0.037 A 
ATOM     12  C11 FFG d          35.375  32.840  17.621  0.00  0.00     0.030 A 
ATOM     13  C6  FFG d          35.980  33.768  18.553  0.00  0.00     0.014 A 
ATOM     14  C13 FFG d          36.614  33.262  19.782  0.00  0.00    -0.025 A 
ATOM     15  C5  FFG d          36.635  31.822  20.071  0.00  0.00     0.014 A 
ATOM     16  C10 FFG d          36.028  30.886  19.139  0.00  0.00     0.030 A 
BRANCH  14  17
ATOM     17  C14 FFG d          37.261  34.226  20.758  0.00  0.00    -0.018 A 
ATOM     18  C17 FFG d          36.841  34.382  22.152  0.00  0.00    -0.021 A 
ATOM     19  C8  FFG d          37.475  35.336  23.079  0.00  0.00     0.010 A 
ATOM     20  C2  FFG d          38.564  36.166  22.618  0.00  0.00     0.001 A 
ATOM     21  C1  FFG d          38.991  36.016  21.235  0.00  0.00     0.001 A 
ATOM     22  C4  FFG d          38.373  35.078  20.308  0.00  0.00     0.013 A 
BRANCH  18  23
ATOM     23  C31 FFG d          35.707  33.539  22.729  0.00  0.00     0.274 C 
BRANCH  23  24
ATOM     24  N39 FFG d          34.521  34.317  23.117  0.00  0.00    -0.065 N 
ATOM     25  C28 FFG d          33.387  33.527  23.668  0.00  0.00     0.238 C 
ATOM     26  C26 FFG d          32.277  34.302  22.997  0.00  0.00     0.061 C 
ATOM     27  C30 FFG d          32.710  34.807  21.628  0.00  0.00     0.145 C 
ATOM     28  C29 FFG d          34.058  35.329  22.125  0.00  0.00     0.266 C 
ATOM     29  H28 FFG d          34.845  34.865  23.898  0.00  0.00     0.280 HD
BRANCH  27  30
ATOM     30  O42 FFG d          31.898  35.907  21.198  0.00  0.00    -0.394 OA
ATOM     31  H29 FFG d          31.061  35.580  20.890  0.00  0.00     0.210 HD
ENDBRANCH  27  30
ENDBRANCH  23  24
ENDBRANCH  18  23
ENDBRANCH  14  17
ENDBRANCH   9  11
BRANCH   8  32
ATOM     32  C18 FFG d          36.767  27.752  14.293  0.00  0.00     0.060 A 
ATOM     33  C12 FFG d          37.266  28.425  13.124  0.00  0.00     0.047 A 
ATOM     34  C15 FFG d          38.659  28.294  12.747  0.00  0.00     0.014 A 
ATOM     35  C7  FFG d          39.591  27.479  13.541  0.00  0.00     0.015 A 
ATOM     36  C3  FFG d          39.080  26.801  14.721  0.00  0.00     0.003 A 
ATOM     37  C9  FFG d          37.673  26.941  15.088  0.00  0.00     0.031 A 
BRANCH  34  38
ATOM     38  C22 FFG d          39.068  29.004  11.530  0.00  0.00     0.162 A 
ATOM     39  N34 FFG d          40.286  28.996  10.984  0.00  0.00    -0.151 NA
ATOM     40  N37 FFG d          40.226  29.687   9.943  0.00  0.00    -0.227 N 
ATOM     41  C24 FFG d          38.978  30.166   9.749  0.00  0.00     0.342 A 
ATOM     42  H27 FFG d          41.000  29.862   9.335  0.00  0.00     0.194 HD
ATOM     43  N36 FFG d          38.245  29.770  10.773  0.00  0.00    -0.290 N 
ATOM     44  O41 FFG d          38.581  30.841   8.798  0.00  0.00    -0.245 OA
ATOM     45  H26 FFG d          37.286  29.989  10.952  0.00  0.00     0.172 HD
ENDBRANCH  34  38
ENDBRANCH   8  32
BRANCH   3  46
ATOM     46  C32 FFG d          31.973  27.532  13.576  0.00  0.00     0.436 C 
ATOM     47  F43 FFG d          31.054  27.486  14.503  0.00  0.00    -0.164 F 
ATOM     48  F44 FFG d          31.757  28.483  12.676  0.00  0.00    -0.164 F 
ATOM     49  F45 FFG d          32.094  26.388  12.940  0.00  0.00    -0.164 F 
ENDBRANCH   3  46
TORSDOF 8
