REMARK  1 active torsions:
REMARK  status: ('A' for Active; 'I' for Inactive)
REMARK    1  A    between atoms: C1_1  and  O1_19 
ROOT
ATOM      1  C1  MOL d          20.212  76.623  11.863  0.00  0.00     0.066 A 
ATOM      2  C2  MOL d          18.862  76.171  12.056  0.00  0.00     0.048 A 
ATOM      3  C3  MOL d          17.943  76.250  10.986  0.00  0.00    -0.023 A 
ATOM      4  C4  MOL d          18.426  76.819   9.650  0.00  0.00    -0.019 A 
ATOM      5  C5  MOL d          19.811  77.254   9.532  0.00  0.00     0.015 A 
ATOM      6  C6  MOL d          20.677  77.148  10.639  0.00  0.00     0.037 A 
ATOM      7  C10 MOL d          16.570  75.806  11.143  0.00  0.00     0.013 A 
ATOM      8  C11 MOL d          15.646  75.901  10.047  0.00  0.00     0.009 A 
ATOM      9  C12 MOL d          16.066  76.433   8.777  0.00  0.00    -0.046 A 
ATOM     10  C13 MOL d          17.491  76.898   8.579  0.00  0.00    -0.040 A 
ATOM     11  C16 MOL d          15.075  76.578   7.542  0.00  0.00     0.035 C 
ATOM     12  C17 MOL d          15.716  76.511   6.046  0.00  0.00     0.025 C 
ATOM     13  C18 MOL d          16.914  77.546   5.995  0.00  0.00     0.022 C 
ATOM     14  C19 MOL d          17.879  77.459   7.165  0.00  0.00     0.041 C 
ATOM     15  C24 MOL d          13.917  75.564   7.336  0.00  0.00     0.018 C 
ATOM     16  C25 MOL d          13.270  76.155   6.033  0.00  0.00     0.080 C 
ATOM     17  C26 MOL d          14.462  76.736   5.244  0.00  0.00     0.136 C 
ATOM     18  C27 MOL d          16.335  75.100   5.585  0.00  0.00     0.024 C 
ATOM     19  O26 MOL d          14.411  77.306   4.134  0.00  0.00    -0.297 OA
ENDROOT
BRANCH   1  20
ATOM     20  O1  MOL d          21.062  76.549  12.864  0.00  0.00    -0.361 OA
ATOM     21  H18 MOL d          21.907  76.882  12.586  0.00  0.00     0.217 HD
ENDBRANCH   1  20
TORSDOF 1
