REMARK  14 active torsions:
REMARK  status: ('A' for Active; 'I' for Inactive)
REMARK    1  A    between atoms: C_1  and  CT_3 
REMARK       I    between atoms: N_7  and  C_1 
REMARK    2  A    between atoms: CA_8  and  N_7 
REMARK    3  A    between atoms: C_9  and  CA_8 
REMARK    4  A    between atoms: CA_8  and  CB_11 
REMARK       I    between atoms: N_16  and  C_9 
REMARK    5  A    between atoms: CB_11  and  CG_12 
REMARK    6  A    between atoms: CG_12  and  CD_13 
REMARK    7  A    between atoms: CD_13  and  CE_14 
REMARK    8  A    between atoms: CE_14  and  NZ_15 
REMARK    9  A    between atoms: CA_17  and  N_16 
REMARK   10  A    between atoms: C_18  and  CA_17 
REMARK   11  A    between atoms: CA_17  and  CB_20 
REMARK       I    between atoms: C_18  and  N1_24 
REMARK   12  A    between atoms: CB_20  and  CG_21 
REMARK   13  A    between atoms: N1_24  and  C1_25 
REMARK   14  A    between atoms: C4_28  and  C1'_31 
ROOT
ATOM      1  C   MOL d          41.060  20.381  38.260  0.00  0.00     0.241 C 
ATOM      2  O   MOL d          40.628  20.057  39.369  0.00  0.00    -0.271 OA
ATOM      3  N   MOL d          40.766  21.538  37.627  0.00  0.00    -0.346 N 
ATOM      4  H14 MOL d          41.318  21.785  36.831  0.00  0.00     0.163 HD
ENDROOT
BRANCH   3   5
ATOM      5  CA  MOL d          39.714  22.442  38.017  0.00  0.00     0.177 C 
BRANCH   5   6
ATOM      6  C   MOL d          38.590  21.615  37.397  0.00  0.00     0.245 C 
ATOM      7  O   MOL d          38.191  21.740  36.242  0.00  0.00    -0.271 OA
ATOM      8  N1  MOL d          38.076  20.872  38.395  0.00  0.00    -0.325 N 
ATOM      9  H25 MOL d          38.118  21.228  39.328  0.00  0.00     0.169 HD
BRANCH   8  10
ATOM     10  C1  MOL d          37.507  19.669  38.188  0.00  0.00     0.034 A 
ATOM     11  C6  MOL d          37.860  18.699  39.098  0.00  0.00     0.030 A 
ATOM     12  C5  MOL d          37.504  17.389  38.922  0.00  0.00     0.010 A 
ATOM     13  C4  MOL d          36.779  17.018  37.824  0.00  0.00    -0.055 A 
ATOM     14  C3  MOL d          36.394  17.983  36.896  0.00  0.00     0.010 A 
ATOM     15  C2  MOL d          36.750  19.315  37.076  0.00  0.00     0.030 A 
BRANCH  13  16
ATOM     16  C1' MOL d          36.470  15.528  37.648  0.00  0.00     0.010 C 
ATOM     17  C3' MOL d          35.087  15.285  38.224  0.00  0.00     0.015 C 
ATOM     18  C2' MOL d          36.697  15.105  36.196  0.00  0.00     0.015 C 
ENDBRANCH  13  16
ENDBRANCH   8  10
ENDBRANCH   5   6
BRANCH   5  19
ATOM     19  CB  MOL d          39.983  23.848  37.374  0.00  0.00     0.038 C 
BRANCH  19  20
ATOM     20  CG  MOL d          41.041  24.820  37.977  0.00  0.00    -0.020 C 
ATOM     21  CD2 MOL d          41.461  24.404  39.333  0.00  0.00     0.009 C 
ATOM     22  CD1 MOL d          40.436  26.106  38.418  0.00  0.00     0.009 C 
ENDBRANCH  19  20
ENDBRANCH   5  19
ENDBRANCH   3   5
BRANCH   1  23
ATOM     23  CA  MOL d          42.063  19.523  37.501  0.00  0.00     0.176 C 
BRANCH  23  24
ATOM     24  CB  MOL d          42.642  18.486  38.452  0.00  0.00     0.035 C 
BRANCH  24  25
ATOM     25  CG  MOL d          42.498  17.067  37.946  0.00  0.00     0.004 C 
BRANCH  25  26
ATOM     26  CD  MOL d          41.075  16.568  38.117  0.00  0.00     0.027 C 
BRANCH  26  27
ATOM     27  CE  MOL d          40.983  15.062  37.891  0.00  0.00     0.229 C 
BRANCH  27  28
ATOM     28  NZ  MOL d          39.606  14.618  38.059  0.00  0.00    -0.079 N 
ATOM     29  H11 MOL d          39.553  13.623  37.908  0.00  0.00     0.274 HD
ATOM     30  H12 MOL d          39.017  15.091  37.392  0.00  0.00     0.274 HD
ATOM     31  H13 MOL d          39.295  14.833  38.993  0.00  0.00     0.274 HD
ENDBRANCH  27  28
ENDBRANCH  26  27
ENDBRANCH  25  26
ENDBRANCH  24  25
ENDBRANCH  23  24
BRANCH  23  32
ATOM     32  N   MOL d          43.013  20.540  37.085  0.00  0.00    -0.340 N 
ATOM     33  C   MOL d          43.235  20.814  35.778  0.00  0.00     0.326 C 
ATOM     34  O   MOL d          42.908  19.972  34.916  0.00  0.00    -0.263 OA
ATOM     35  H1  MOL d          43.516  21.051  37.782  0.00  0.00     0.163 HD
BRANCH  33  36
ATOM     36  CT  MOL d          44.010  22.154  35.449  0.00  0.00     0.472 C 
ATOM     37  F3  MOL d          43.285  23.171  35.859  0.00  0.00    -0.162 F 
ATOM     38  F2  MOL d          44.265  22.401  34.175  0.00  0.00    -0.162 F 
ATOM     39  F1  MOL d          45.159  22.325  36.045  0.00  0.00    -0.162 F 
ENDBRANCH  33  36
ENDBRANCH  23  32
ENDBRANCH   1  23
TORSDOF 14
