REMARK  16 active torsions:
REMARK  status: ('A' for Active; 'I' for Inactive)
REMARK    1  A    between atoms: CA_1  and  C3_5 
REMARK    2  A    between atoms: CA_1  and  C_2 
REMARK    3  A    between atoms: C3_5  and  C4_6 
REMARK    4  A    between atoms: C4_6  and  C5_7 
REMARK    5  A    between atoms: C5_7  and  C6_8 
REMARK    6  A    between atoms: C6_8  and  C7_9 
REMARK    7  A    between atoms: C7_9  and  C8_10 
REMARK    8  A    between atoms: C8_10  and  C9_11 
REMARK    9  A    between atoms: C9_11  and  C10_12 
REMARK   10  A    between atoms: C10_12  and  C11_13 
REMARK   11  A    between atoms: C11_13  and  C12_14 
REMARK   12  A    between atoms: C12_14  and  C13_15 
REMARK   13  A    between atoms: C13_15  and  C14_16 
REMARK   14  A    between atoms: C14_16  and  C15_17 
REMARK   15  A    between atoms: C15_17  and  C16_18 
REMARK   16  A    between atoms: C16_18  and  C17_19 
ROOT
ATOM      1  C8  ELA d          23.362  34.637  58.859  0.00  0.00     0.000 C 
ENDROOT
BRANCH   1   2
ATOM      2  C7  ELA d          23.706  34.429  57.355  0.00  0.00     0.000 C 
BRANCH   2   3
ATOM      3  C6  ELA d          23.158  35.522  56.527  0.00  0.00     0.000 C 
BRANCH   3   4
ATOM      4  C5  ELA d          22.752  35.168  55.102  0.00  0.00     0.000 C 
BRANCH   4   5
ATOM      5  C4  ELA d          21.648  34.175  54.991  0.00  0.00     0.001 C 
BRANCH   5   6
ATOM      6  C3  ELA d          20.814  34.257  53.801  0.00  0.00     0.010 C 
BRANCH   6   7
ATOM      7  CA  ELA d          19.652  33.303  53.645  0.00  0.00     0.113 C 
BRANCH   7   8
ATOM      8  C   ELA d          18.922  33.306  52.373  0.00  0.00     0.172 C 
ATOM      9  OXT ELA d          18.247  32.316  52.183  0.00  0.00    -0.648 OA
ATOM     10  O   ELA d          19.011  34.339  51.731  0.00  0.00    -0.648 OA
ENDBRANCH   7   8
ENDBRANCH   6   7
ENDBRANCH   5   6
ENDBRANCH   4   5
ENDBRANCH   3   4
ENDBRANCH   2   3
ENDBRANCH   1   2
BRANCH   1  11
ATOM     11  C9  ELA d          21.969  34.374  59.172  0.00  0.00     0.000 C 
BRANCH  11  12
ATOM     12  C10 ELA d          21.512  34.691  60.494  0.00  0.00     0.000 C 
BRANCH  12  13
ATOM     13  C11 ELA d          20.035  34.538  60.650  0.00  0.00     0.000 C 
BRANCH  13  14
ATOM     14  C12 ELA d          19.244  34.874  59.423  0.00  0.00     0.000 C 
BRANCH  14  15
ATOM     15  C13 ELA d          17.914  34.215  59.361  0.00  0.00     0.000 C 
BRANCH  15  16
ATOM     16  C14 ELA d          17.185  34.375  58.075  0.00  0.00     0.000 C 
BRANCH  16  17
ATOM     17  C15 ELA d          17.093  35.770  57.595  0.00  0.00     0.000 C 
BRANCH  17  18
ATOM     18  C16 ELA d          16.222  35.909  56.353  0.00  0.00    -0.000 C 
BRANCH  18  19
ATOM     19  C17 ELA d          15.969  37.387  56.092  0.00  0.00    -0.005 C 
ATOM     20  C18 ELA d          17.145  38.191  56.544  0.00  0.00     0.005 C 
ENDBRANCH  18  19
ENDBRANCH  17  18
ENDBRANCH  16  17
ENDBRANCH  15  16
ENDBRANCH  14  15
ENDBRANCH  13  14
ENDBRANCH  12  13
ENDBRANCH  11  12
ENDBRANCH   1  11
TORSDOF 16
