REMARK  2 active torsions:
REMARK  status: ('A' for Active; 'I' for Inactive)
REMARK    1  A    between atoms: CAM_7  and  CAO_8 
REMARK    2  A    between atoms: CAN_12  and  CAK_13 
ROOT
ATOM      1  CAO MOL d         -70.842  33.891 -43.397  0.00  0.00     0.108 A 
ATOM      2  NAI MOL d         -70.205  32.909 -42.711  0.00  0.00    -0.233 NA
ATOM      3  SAJ MOL d         -71.374  35.035 -42.265  0.00  0.00    -0.079 SA
ATOM      4  CAH MOL d         -70.766  34.274 -40.875  0.00  0.00     0.090 A 
ATOM      5  CAN MOL d         -70.153  33.102 -41.350  0.00  0.00     0.141 A 
ENDROOT
BRANCH   1   6
ATOM      6  CAM MOL d         -71.063  33.944 -44.878  0.00  0.00    -0.000 A 
ATOM      7  CAF MOL d         -70.139  33.371 -45.747  0.00  0.00     0.015 A 
ATOM      8  CAD MOL d         -70.356  33.411 -47.120  0.00  0.00     0.007 A 
ATOM      9  CAL MOL d         -71.488  34.030 -47.635  0.00  0.00    -0.062 A 
ATOM     10  CAA MOL d         -71.708  34.072 -49.112  0.00  0.00     0.048 C 
ATOM     11  CAE MOL d         -72.414  34.606 -46.770  0.00  0.00     0.007 A 
ATOM     12  CAG MOL d         -72.202  34.561 -45.395  0.00  0.00     0.015 A 
ENDBRANCH   1   6
BRANCH   5  13
ATOM     13  CAK MOL d         -69.486  32.153 -40.424  0.00  0.00     0.229 C 
ATOM     14  OAC MOL d         -69.913  32.025 -39.266  0.00  0.00    -0.643 OA
ATOM     15  OAB MOL d         -68.480  31.502 -40.772  0.00  0.00    -0.643 OA
ENDBRANCH   5  13
TORSDOF 2
