REMARK  2 active torsions:
REMARK  status: ('A' for Active; 'I' for Inactive)
REMARK    1  A    between atoms: C_7  and  C1_1 
REMARK    2  A    between atoms: C_7  and  N1_8 
ROOT
ATOM      1  C   BAM d          45.902  18.356  53.892  0.00  0.00     0.102 C 
ATOM      2  N2  BAM d          45.403  17.158  53.840  0.00  0.00    -0.385 N 
ATOM      3  H8  BAM d          44.738  16.909  53.094  0.00  0.00     0.157 HD
ATOM      4  H9  BAM d          45.672  16.457  54.545  0.00  0.00     0.157 HD
ENDROOT
BRANCH   1   5
ATOM      5  C1  BAM d          45.543  19.287  52.917  0.00  0.00     0.007 A 
ATOM      6  C6  BAM d          45.061  18.898  51.645  0.00  0.00     0.015 A 
ATOM      7  C5  BAM d          44.710  19.837  50.684  0.00  0.00     0.001 A 
ATOM      8  C4  BAM d          44.825  21.199  50.962  0.00  0.00     0.000 A 
ATOM      9  C3  BAM d          45.292  21.616  52.201  0.00  0.00     0.001 A 
ATOM     10  C2  BAM d          45.642  20.668  53.164  0.00  0.00     0.015 A 
ENDBRANCH   1   5
BRANCH   1  11
ATOM     11  N1  BAM d          46.742  18.698  54.821  0.00  0.00    -0.385 N 
ATOM     12  H6  BAM d          47.014  18.018  55.545  0.00  0.00     0.157 HD
ATOM     13  H7  BAM d          47.137  19.649  54.834  0.00  0.00     0.157 HD
ENDBRANCH   1  11
TORSDOF 2
