REMARK  18 active torsions:
REMARK  status: ('A' for Active; 'I' for Inactive)
REMARK    1  A    between atoms: OBJ_8  and  CBB_7 
REMARK    2  A    between atoms: CBB_7  and  CBP_10 
REMARK    3  A    between atoms: CBM_9  and  OBJ_8 
REMARK       I    between atoms: NBI_15  and  CBM_9 
REMARK    4  A    between atoms: PBY_12  and  CBX_14 
REMARK    5  A    between atoms: CBF_31  and  PBY_12 
REMARK    6  A    between atoms: CBX_14  and  NBI_15 
REMARK    7  A    between atoms: CBX_14  and  CBE_16 
REMARK    8  A    between atoms: CBE_16  and  CBQ_17 
REMARK    9  A    between atoms: CBS_35  and  CBC_30 
REMARK   10  A    between atoms: CBC_30  and  CBV_38 
REMARK   11  A    between atoms: CBV_38  and  CBF_31 
REMARK   12  A    between atoms: CBV_38  and  CBN_34 
REMARK       I    between atoms: CBN_34  and  N_39 
REMARK   13  A    between atoms: CBT_36  and  CBU_37 
REMARK   14  A    between atoms: N_39  and  CA_40 
REMARK   15  A    between atoms: CA_40  and  C_41 
REMARK   16  A    between atoms: CA_40  and  CB_43 
REMARK   17  A    between atoms: CB_43  and  CG_44 
REMARK   18  A    between atoms: CZ_49  and  OH_50 
ROOT
ATOM      1  CBV 3EF d           2.017 -16.096 -23.019  0.00  0.00     0.093 C 
ENDROOT
BRANCH   1   2
ATOM      2  CBC 3EF d           2.949 -15.661 -24.155  0.00  0.00     0.082 C 
BRANCH   2   3
ATOM      3  CBS 3EF d           4.444 -15.661 -23.799  0.00  0.00     0.082 A 
ATOM      4  CBA 3EF d           5.162 -16.709 -23.368  0.00  0.00     0.069 A 
ATOM      5  CBU 3EF d           6.455 -16.372 -23.139  0.00  0.00     0.097 A 
ATOM      6  NBG 3EF d           6.657 -15.093 -23.433  0.00  0.00    -0.128 NA
ATOM      7  OBK 3EF d           5.199 -14.579 -23.910  0.00  0.00    -0.217 OA
BRANCH   5   8
ATOM      8  CBT 3EF d           7.418 -17.216 -22.752  0.00  0.00    -0.005 A 
ATOM      9  CAU 3EF d           7.104 -18.496 -22.302  0.00  0.00     0.014 A 
ATOM     10  CAO 3EF d           8.109 -19.396 -21.936  0.00  0.00     0.001 A 
ATOM     11  CAJ 3EF d           9.453 -19.024 -22.040  0.00  0.00     0.000 A 
ATOM     12  CAP 3EF d           9.779 -17.745 -22.503  0.00  0.00     0.001 A 
ATOM     13  CAV 3EF d           8.769 -16.854 -22.861  0.00  0.00     0.014 A 
ENDBRANCH   5   8
ENDBRANCH   2   3
ENDBRANCH   1   2
BRANCH   1  14
ATOM     14  CBF 3EF d           0.615 -16.231 -23.664  0.00  0.00     0.120 C 
BRANCH  14  15
ATOM     15  PBY 3EF d          -0.380 -17.414 -22.821  0.00  0.00     0.130 P 
ATOM     16  OAD 3EF d          -0.188 -17.358 -21.350  0.00  0.00    -0.666 OA
ATOM     17  OAG 3EF d          -0.213 -18.729 -23.463  0.00  0.00    -0.666 OA
BRANCH  15  18
ATOM     18  CBX 3EF d          -2.086 -16.860 -23.231  0.00  0.00     0.182 C 
BRANCH  18  19
ATOM     19  NBI 3EF d          -2.955 -17.715 -22.421  0.00  0.00    -0.322 N 
ATOM     20  CBM 3EF d          -3.532 -18.841 -22.876  0.00  0.00     0.361 C 
ATOM     21  OAB 3EF d          -3.378 -19.217 -24.047  0.00  0.00    -0.238 OA
ATOM     22  H9  3EF d          -3.130 -17.446 -21.474  0.00  0.00     0.165 HD
BRANCH  20  23
ATOM     23  OBJ 3EF d          -4.331 -19.511 -22.005  0.00  0.00    -0.299 OA
BRANCH  23  24
ATOM     24  CBB 3EF d          -4.427 -20.943 -22.017  0.00  0.00     0.219 C 
BRANCH  24  25
ATOM     25  CBP 3EF d          -4.967 -21.343 -20.777  0.00  0.00    -0.034 A 
ATOM     26  CAQ 3EF d          -6.102 -22.172 -20.736  0.00  0.00     0.009 A 
ATOM     27  CAK 3EF d          -6.640 -22.563 -19.502  0.00  0.00     0.001 A 
ATOM     28  CAH 3EF d          -6.045 -22.120 -18.319  0.00  0.00     0.000 A 
ATOM     29  CAL 3EF d          -4.917 -21.293 -18.348  0.00  0.00     0.001 A 
ATOM     30  CAR 3EF d          -4.377 -20.902 -19.580  0.00  0.00     0.009 A 
ENDBRANCH  24  25
ENDBRANCH  23  24
ENDBRANCH  20  23
ENDBRANCH  18  19
BRANCH  18  31
ATOM     31  CBE 3EF d          -2.399 -15.387 -22.862  0.00  0.00     0.074 C 
BRANCH  31  32
ATOM     32  CBQ 3EF d          -3.756 -15.053 -23.140  0.00  0.00    -0.056 A 
ATOM     33  CAS 3EF d          -4.151 -14.645 -24.415  0.00  0.00     0.007 A 
ATOM     34  CAM 3EF d          -5.485 -14.299 -24.688  0.00  0.00     0.001 A 
ATOM     35  CAI 3EF d          -6.457 -14.368 -23.687  0.00  0.00     0.000 A 
ATOM     36  CAN 3EF d          -6.070 -14.781 -22.411  0.00  0.00     0.001 A 
ATOM     37  CAT 3EF d          -4.735 -15.118 -22.134  0.00  0.00     0.007 A 
ENDBRANCH  31  32
ENDBRANCH  18  31
ENDBRANCH  15  18
ENDBRANCH  14  15
ENDBRANCH   1  14
BRANCH   1  38
ATOM     38  CBN 3EF d           1.968 -14.994 -21.968  0.00  0.00     0.223 C 
ATOM     39  OAC 3EF d           1.090 -14.130 -22.013  0.00  0.00    -0.273 OA
ATOM     40  N   3EF d           2.934 -15.012 -21.037  0.00  0.00    -0.346 N 
ATOM     41  H28 3EF d           3.595 -15.762 -21.035  0.00  0.00     0.163 HD
BRANCH  40  42
ATOM     42  CA  3EF d           3.046 -13.951 -20.013  0.00  0.00     0.189 C 
BRANCH  42  43
ATOM     43  C   3EF d           3.613 -12.676 -20.657  0.00  0.00     0.197 C 
ATOM     44  O   3EF d           3.525 -11.617 -19.999  0.00  0.00    -0.646 OA
ATOM     45  OXT 3EF d           4.118 -12.785 -21.798  0.00  0.00    -0.646 OA
ENDBRANCH  42  43
BRANCH  42  46
ATOM     46  CB  3EF d           3.942 -14.328 -18.824  0.00  0.00     0.074 C 
BRANCH  46  47
ATOM     47  CG  3EF d           4.944 -15.284 -18.974  0.00  0.00    -0.056 A 
ATOM     48  CD1 3EF d           6.281 -14.908 -19.142  0.00  0.00     0.010 A 
ATOM     49  CE1 3EF d           7.272 -15.891 -19.263  0.00  0.00     0.037 A 
ATOM     50  CZ  3EF d           6.920 -17.246 -19.201  0.00  0.00     0.065 A 
ATOM     51  CE2 3EF d           5.591 -17.618 -19.023  0.00  0.00     0.037 A 
ATOM     52  CD2 3EF d           4.609 -16.639 -18.907  0.00  0.00     0.010 A 
BRANCH  50  53
ATOM     53  OH  3EF d           7.866 -18.227 -19.305  0.00  0.00    -0.361 OA
ATOM     54  H36 3EF d           8.721 -17.830 -19.422  0.00  0.00     0.217 HD
ENDBRANCH  50  53
ENDBRANCH  46  47
ENDBRANCH  42  46
ENDBRANCH  40  42
ENDBRANCH   1  38
TORSDOF 18
