REMARK  9 active torsions:
REMARK  status: ('A' for Active; 'I' for Inactive)
REMARK    1  A    between atoms: PB_1  and  O3A_5 
REMARK    2  A    between atoms: O3A_5  and  PA_6 
REMARK    3  A    between atoms: PA_6  and  O5'_9 
REMARK    4  A    between atoms: O5'_9  and  C5'_10 
REMARK    5  A    between atoms: C5'_10  and  C4'_11 
REMARK    6  A    between atoms: C3'_13  and  O3'_14 
REMARK    7  A    between atoms: C2'_15  and  O2'_16 
REMARK    8  A    between atoms: C1'_17  and  N9_18 
REMARK    9  A    between atoms: C2_25  and  N2_26 
ROOT
ATOM      1  C4' GDP d          -5.042 -32.143 -10.572  0.00  0.00     0.180 C 
ATOM      2  O4' GDP d          -4.085 -33.126 -10.269  0.00  0.00    -0.353 OA
ATOM      3  C3' GDP d          -6.379 -32.794 -10.762  0.00  0.00     0.182 C 
ATOM      4  C2' GDP d          -6.243 -33.891  -9.768  0.00  0.00     0.198 C 
ATOM      5  C1' GDP d          -4.775 -34.251  -9.801  0.00  0.00     0.262 C 
ENDROOT
BRANCH   5   6
ATOM      6  N9  GDP d          -4.241 -34.699  -8.518  0.00  0.00    -0.295 N 
ATOM      7  C8  GDP d          -3.287 -35.638  -8.354  0.00  0.00     0.214 A 
ATOM      8  N7  GDP d          -3.028 -35.794  -7.065  0.00  0.00    -0.234 NA
ATOM      9  C5  GDP d          -3.796 -34.962  -6.360  0.00  0.00     0.171 A 
ATOM     10  C6  GDP d          -3.957 -34.685  -4.968  0.00  0.00     0.292 A 
ATOM     11  C4  GDP d          -4.589 -34.239  -7.274  0.00  0.00     0.161 A 
ATOM     12  O6  GDP d          -3.290 -35.287  -4.137  0.00  0.00    -0.265 OA
ATOM     13  N1  GDP d          -4.885 -33.722  -4.579  0.00  0.00    -0.154 N 
ATOM     14  C2  GDP d          -5.703 -32.974  -5.503  0.00  0.00     0.680 A 
ATOM     15  H   GDP d          -4.991 -33.538  -3.602  0.00  0.00     0.187 HD
ATOM     16  N3  GDP d          -5.558 -33.223  -6.802  0.00  0.00    -0.174 N 
ATOM     17  H   GDP d          -6.126 -32.704  -7.487  0.00  0.00     0.186 HD
BRANCH  14  18
ATOM     18  N2  GDP d          -6.662 -31.966  -5.042  0.00  0.00    -0.234 N 
ATOM     19  H   GDP d          -7.232 -31.448  -5.725  0.00  0.00     0.174 HD
ATOM     20  H   GDP d          -6.765 -31.776  -4.035  0.00  0.00     0.174 HD
ENDBRANCH  14  18
ENDBRANCH   5   6
BRANCH   4  21
ATOM     21  O2' GDP d          -7.059 -34.967 -10.067  0.00  0.00    -0.388 OA
ATOM     22  H   GDP d          -7.966 -34.683 -10.074  0.00  0.00     0.210 HD
ENDBRANCH   4  21
BRANCH   1  23
ATOM     23  C5' GDP d          -5.065 -31.074  -9.500  0.00  0.00     0.216 C 
BRANCH  23  24
ATOM     24  O5' GDP d          -4.595 -29.905 -10.105  0.00  0.00    -0.287 OA
BRANCH  24  25
ATOM     25  PA  GDP d          -4.278 -28.596  -9.292  0.00  0.00     0.418 P 
ATOM     26  O1A GDP d          -3.138 -28.851  -8.323  0.00  0.00    -0.624 OA
ATOM     27  O2A GDP d          -5.510 -28.144  -8.530  0.00  0.00    -0.624 OA
BRANCH  25  28
ATOM     28  O3A GDP d          -3.853 -27.484 -10.309  0.00  0.00    -0.173 OA
BRANCH  28  29
ATOM     29  PB  GDP d          -4.747 -27.136 -11.544  0.00  0.00     0.431 P 
ATOM     30  O1B GDP d          -5.272 -25.733 -11.364  0.00  0.00    -0.616 OA
ATOM     31  O2B GDP d          -3.928 -27.200 -12.813  0.00  0.00    -0.616 OA
ATOM     32  O3B GDP d          -5.899 -28.086 -11.651  0.00  0.00    -0.616 OA
ENDBRANCH  28  29
ENDBRANCH  25  28
ENDBRANCH  24  25
ENDBRANCH  23  24
ENDBRANCH   1  23
BRANCH   3  33
ATOM     33  O3' GDP d          -6.581 -33.224 -12.064  0.00  0.00    -0.390 OA
ATOM     34  H   GDP d          -7.438 -33.628 -12.134  0.00  0.00     0.210 HD
ENDBRANCH   3  33
TORSDOF 9
