REMARK  1 active torsions:
REMARK  status: ('A' for Active; 'I' for Inactive)
REMARK    1  A    between atoms: CAI_9  and  CAJ_10 
ROOT
ATOM      1  CAC BZ2 d          13.844   9.169   8.710  0.00  0.00     0.001 A 
ATOM      2  CAD BZ2 d          13.977   7.968   8.018  0.00  0.00     0.003 A 
ATOM      3  CAE BZ2 d          14.062  10.345   8.022  0.00  0.00     0.014 A 
ATOM      4  CAF BZ2 d          14.320   7.939   6.670  0.00  0.00     0.038 A 
ATOM      5  CAG BZ2 d          14.679  11.302   5.810  0.00  0.00     0.058 A 
ATOM      6  OAH BZ2 d          14.891   9.421   4.655  0.00  0.00    -0.303 OA
ATOM      7  CAJ BZ2 d          14.956  10.794   4.614  0.00  0.00     0.153 A 
ATOM      8  CAK BZ2 d          14.408  10.321   6.668  0.00  0.00     0.001 A 
ATOM      9  CAL BZ2 d          14.540   9.122   5.971  0.00  0.00     0.086 A 
ENDROOT
BRANCH   7  10
ATOM     10  CAI BZ2 d          15.355  11.663   3.424  0.00  0.00     0.234 C 
ATOM     11  OAA BZ2 d          15.339  12.919   3.530  0.00  0.00    -0.642 OA
ATOM     12  OAB BZ2 d          15.768  11.045   2.429  0.00  0.00    -0.642 OA
ENDBRANCH   7  10
TORSDOF 1
