REMARK  3 active torsions:
REMARK  status: ('A' for Active; 'I' for Inactive)
REMARK    1  A    between atoms: S1_4  and  N1_2 
REMARK    2  A    between atoms: C3_7  and  O1_3 
REMARK    3  A    between atoms: C5_10  and  S1_4 
ROOT
ATOM      1  C1  M4S d           2.527  -5.567   7.656  0.00  0.00     0.028 A 
ATOM      2  C2  M4S d           3.388  -5.613   8.741  0.00  0.00     0.038 A 
ATOM      3  C3  M4S d           4.640  -6.208   8.644  0.00  0.00     0.068 A 
ATOM      4  C4  M4S d           5.064  -6.745   7.425  0.00  0.00     0.038 A 
ATOM      5  C5  M4S d           2.919  -6.119   6.437  0.00  0.00     0.079 A 
ATOM      6  C7  M4S d           4.190  -6.708   6.327  0.00  0.00     0.028 A 
ENDROOT
BRANCH   5   7
ATOM      7  S1  M4S d           1.913  -6.075   5.175  0.00  0.00     0.256 S 
ATOM      8  O2  M4S d           1.893  -7.475   4.660  0.00  0.00    -0.201 OA
ATOM      9  O3  M4S d           0.500  -5.678   5.441  0.00  0.00    -0.201 OA
BRANCH   7  10
ATOM     10  N1  M4S d           2.550  -5.190   4.166  0.00  0.00    -0.324 N 
ATOM     11  H2  M4S d           3.500  -5.345   3.894  0.00  0.00     0.169 HD
ATOM     12  H3  M4S d           2.029  -4.439   3.759  0.00  0.00     0.169 HD
ENDBRANCH   7  10
ENDBRANCH   5   7
BRANCH   3  13
ATOM     13  O1  M4S d           5.431  -6.235   9.766  0.00  0.00    -0.356 OA
ATOM     14  C6  M4S d           6.649  -6.973   9.783  0.00  0.00     0.210 C 
ENDBRANCH   3  13
TORSDOF 3
