REMARK  10 active torsions:
REMARK  status: ('A' for Active; 'I' for Inactive)
REMARK    1  A    between atoms: O10_1  and  C23_2 
REMARK    2  A    between atoms: C22_3  and  O9_4 
REMARK    3  A    between atoms: C24_5  and  O11_6 
REMARK    4  A    between atoms: C21_10  and  O7_11 
REMARK    5  A    between atoms: O7_11  and  C3_12 
REMARK    6  A    between atoms: C2_15  and  C11_16 
REMARK    7  A    between atoms: C13_18  and  O5_19 
REMARK    8  A    between atoms: C14_20  and  O6_21 
REMARK    9  A    between atoms: C7_27  and  O4_28 
REMARK   10  A    between atoms: C5_30  and  O3_32 
ROOT
ATOM      1  C3  QCT d          34.464   4.473   8.947  0.00  0.00     0.157 A 
ATOM      2  C4  QCT d          35.849   4.331   8.930  0.00  0.00     0.223 A 
ATOM      3  O2  QCT d          36.499   4.300   7.856  0.00  0.00    -0.284 OA
ATOM      4  C2  QCT d          33.794   4.507  10.178  0.00  0.00     0.124 A 
ATOM      5  O1  QCT d          34.424   4.442  11.255  0.00  0.00    -0.306 OA
ATOM      6  C9  QCT d          35.652   4.297  11.326  0.00  0.00     0.096 A 
ATOM      7  C8  QCT d          36.221   4.210  12.597  0.00  0.00     0.075 A 
ATOM      8  C7  QCT d          37.595   4.070  12.722  0.00  0.00     0.071 A 
ATOM      9  C6  QCT d          38.418   4.011  11.591  0.00  0.00     0.074 A 
ATOM     10  C5  QCT d          37.839   4.106  10.321  0.00  0.00     0.085 A 
ATOM     11  C10 QCT d          36.462   4.242  10.186  0.00  0.00     0.084 A 
ENDROOT
BRANCH   1  12
ATOM     12  O7  QCT d          33.717   4.554   7.733  0.00  0.00    -0.311 OA
BRANCH  12  13
ATOM     13  C21 QCT d          34.165   5.521   6.787  0.00  0.00     0.298 C 
ATOM     14  C22 QCT d          33.131   5.414   5.638  0.00  0.00     0.205 C 
ATOM     15  C23 QCT d          31.849   6.221   5.915  0.00  0.00     0.183 C 
ATOM     16  C24 QCT d          32.148   7.617   6.497  0.00  0.00     0.178 C 
ATOM     17  C25 QCT d          32.998   7.450   7.767  0.00  0.00     0.152 C 
ATOM     18  C26 QCT d          33.275   8.801   8.450  0.00  0.00     0.042 C 
ATOM     19  O8  QCT d          34.197   6.835   7.336  0.00  0.00    -0.351 OA
BRANCH  14  20
ATOM     20  O9  QCT d          33.713   5.882   4.416  0.00  0.00    -0.388 OA
ATOM     21  H4  QCT d          33.095   5.761   3.705  0.00  0.00     0.210 HD
ENDBRANCH  14  20
BRANCH  15  22
ATOM     22  O10 QCT d          31.170   6.380   4.654  0.00  0.00    -0.390 OA
ATOM     23  H1  QCT d          31.735   6.844   4.048  0.00  0.00     0.210 HD
ENDBRANCH  15  22
BRANCH  16  24
ATOM     24  O11 QCT d          30.939   8.287   6.841  0.00  0.00    -0.390 OA
ATOM     25  H6  QCT d          30.401   8.386   6.064  0.00  0.00     0.210 HD
ENDBRANCH  16  24
ENDBRANCH  12  13
ENDBRANCH   1  12
BRANCH   4  26
ATOM     26  C11 QCT d          32.278   4.611  10.307  0.00  0.00     0.004 A 
ATOM     27  C12 QCT d          31.420   4.262   9.253  0.00  0.00     0.053 A 
ATOM     28  C13 QCT d          30.038   4.343   9.442  0.00  0.00     0.099 A 
ATOM     29  C14 QCT d          29.497   4.705  10.672  0.00  0.00     0.098 A 
ATOM     30  C15 QCT d          30.349   5.013  11.744  0.00  0.00     0.040 A 
ATOM     31  C16 QCT d          31.736   4.949  11.562  0.00  0.00     0.017 A 
BRANCH  28  32
ATOM     32  O5  QCT d          29.139   4.037   8.381  0.00  0.00    -0.358 OA
ATOM     33  H13 QCT d          28.245   4.144   8.684  0.00  0.00     0.217 HD
ENDBRANCH  28  32
BRANCH  29  34
ATOM     34  O6  QCT d          28.110   4.753  10.811  0.00  0.00    -0.358 OA
ATOM     35  H14 QCT d          27.891   5.013  11.698  0.00  0.00     0.217 HD
ENDBRANCH  29  34
ENDBRANCH   4  26
BRANCH  10  36
ATOM     36  O3  QCT d          38.676   4.046   9.180  0.00  0.00    -0.360 OA
ATOM     37  H20 QCT d          38.578   4.845   8.675  0.00  0.00     0.217 HD
ENDBRANCH  10  36
BRANCH   8  38
ATOM     38  O4  QCT d          38.165   3.990  14.012  0.00  0.00    -0.361 OA
ATOM     39  H18 QCT d          39.107   3.897  13.935  0.00  0.00     0.217 HD
ENDBRANCH   8  38
TORSDOF 10
