REMARK  19 active torsions:
REMARK  status: ('A' for Active; 'I' for Inactive)
REMARK    1  A    between atoms: OBI_2  and  CBK_3 
REMARK       I    between atoms: CBK_3  and  N_5 
REMARK    2  A    between atoms: N_5  and  CA_6 
REMARK    3  A    between atoms: CA_6  and  CB_7 
REMARK    4  A    between atoms: CA_6  and  C_11 
REMARK       I    between atoms: C_11  and  NBG_13 
REMARK    5  A    between atoms: NBG_13  and  CBT_14 
REMARK    6  A    between atoms: CBT_14  and  CBA_15 
REMARK    7  A    between atoms: CBT_14  and  CBS_22 
REMARK    8  A    between atoms: CBA_15  and  CBO_16 
REMARK    9  A    between atoms: CBS_22  and  OAM_23 
REMARK   10  A    between atoms: CBS_22  and  CBC_24 
REMARK   11  A    between atoms: CBC_24  and  NBW_25 
REMARK   12  A    between atoms: NBW_25  and  NBH_26 
REMARK   13  A    between atoms: NBW_25  and  CBB_39 
REMARK       I    between atoms: NBH_26  and  CBN_27 
REMARK   14  A    between atoms: CBN_27  and  CBV_29 
REMARK   15  A    between atoms: CBV_29  and  CBY_30 
REMARK   16  A    between atoms: CBV_29  and  NBF_34 
REMARK       I    between atoms: NBF_34  and  CBL_35 
REMARK   17  A    between atoms: CBL_35  and  OBJ_37 
REMARK   18  A    between atoms: CBB_39  and  CBP_40 
REMARK   19  A    between atoms: CBQ_45  and  CBR_46 
ROOT
ATOM      1  NBW DR7 d          20.971  31.984  15.187  0.00  0.00     0.017 N 
ATOM      2  H28 DR7 d          20.706  31.998  14.215  0.00  0.00     0.309 HD
ENDROOT
BRANCH   1   3
ATOM      3  CBC DR7 d          21.158  30.596  15.635  0.00  0.00     0.296 C 
BRANCH   3   4
ATOM      4  CBS DR7 d          19.961  29.687  15.411  0.00  0.00     0.169 C 
BRANCH   4   5
ATOM      5  CBT DR7 d          19.697  29.348  13.941  0.00  0.00     0.119 C 
BRANCH   5   6
ATOM      6  NBG DR7 d          20.820  28.654  13.325  0.00  0.00    -0.352 N 
ATOM      7  C   DR7 d          21.495  29.109  12.254  0.00  0.00     0.241 C 
ATOM      8  O   DR7 d          21.345  30.210  11.762  0.00  0.00    -0.271 OA
ATOM      9  H15 DR7 d          21.108  27.783  13.724  0.00  0.00     0.163 HD
BRANCH   7  10
ATOM     10  CA  DR7 d          22.432  28.138  11.554  0.00  0.00     0.186 C 
BRANCH  10  11
ATOM     11  N   DR7 d          21.879  27.211  10.590  0.00  0.00    -0.323 N 
ATOM     12  CBK DR7 d          21.654  25.904  10.661  0.00  0.00     0.360 C 
ATOM     13  OAI DR7 d          21.866  25.162  11.612  0.00  0.00    -0.239 OA
ATOM     14  H4  DR7 d          21.621  27.627   9.718  0.00  0.00     0.165 HD
BRANCH  12  15
ATOM     15  OBI DR7 d          21.102  25.362   9.434  0.00  0.00    -0.309 OA
ATOM     16  CAA DR7 d          21.475  24.053   8.988  0.00  0.00     0.215 C 
ENDBRANCH  12  15
ENDBRANCH  10  11
BRANCH  10  17
ATOM     17  CB  DR7 d          23.930  28.266  11.770  0.00  0.00    -0.022 C 
ATOM     18  CAE DR7 d          24.431  29.203  10.669  0.00  0.00     0.017 C 
ATOM     19  CG2 DR7 d          24.655  26.929  11.670  0.00  0.00     0.017 C 
ATOM     20  CG1 DR7 d          24.250  28.912  13.116  0.00  0.00     0.017 C 
ENDBRANCH  10  17
ENDBRANCH   7  10
ENDBRANCH   5   6
BRANCH   5  21
ATOM     21  CBA DR7 d          18.447  28.475  13.800  0.00  0.00     0.066 C 
BRANCH  21  22
ATOM     22  CBO DR7 d          18.173  28.173  12.341  0.00  0.00    -0.056 A 
ATOM     23  CAT DR7 d          18.563  26.953  11.794  0.00  0.00     0.007 A 
ATOM     24  CAP DR7 d          18.315  26.670  10.452  0.00  0.00     0.001 A 
ATOM     25  CAN DR7 d          17.665  27.604   9.653  0.00  0.00     0.000 A 
ATOM     26  CAQ DR7 d          17.272  28.823  10.195  0.00  0.00     0.001 A 
ATOM     27  CAU DR7 d          17.519  29.106  11.538  0.00  0.00     0.007 A 
ENDBRANCH  21  22
ENDBRANCH   5  21
ENDBRANCH   4   5
BRANCH   4  28
ATOM     28  OAM DR7 d          20.207  28.487  16.156  0.00  0.00    -0.392 OA
ATOM     29  H25 DR7 d          20.369  28.708  17.066  0.00  0.00     0.210 HD
ENDBRANCH   4  28
ENDBRANCH   3   4
ENDBRANCH   1   3
BRANCH   1  30
ATOM     30  NBH DR7 d          19.949  32.610  15.946  0.00  0.00    -0.184 N 
ATOM     31  CBN DR7 d          18.919  33.246  15.372  0.00  0.00     0.265 C 
ATOM     32  OAL DR7 d          18.772  33.341  14.166  0.00  0.00    -0.269 OA
ATOM     33  H29 DR7 d          19.999  32.575  16.944  0.00  0.00     0.197 HD
BRANCH  31  34
ATOM     34  CBV DR7 d          17.958  33.914  16.320  0.00  0.00     0.188 C 
BRANCH  34  35
ATOM     35  CBY DR7 d          16.516  33.985  15.809  0.00  0.00    -0.022 C 
ATOM     36  CAH DR7 d          16.387  34.883  14.586  0.00  0.00     0.017 C 
ATOM     37  CAF DR7 d          16.020  32.585  15.452  0.00  0.00     0.017 C 
ATOM     38  CAG DR7 d          15.631  34.571  16.914  0.00  0.00     0.017 C 
ENDBRANCH  34  35
BRANCH  34  39
ATOM     39  NBF DR7 d          18.486  35.238  16.556  0.00  0.00    -0.323 N 
ATOM     40  CBL DR7 d          18.569  35.817  17.748  0.00  0.00     0.360 C 
ATOM     41  OAJ DR7 d          18.183  35.314  18.802  0.00  0.00    -0.239 OA
ATOM     42  H40 DR7 d          18.812  35.755  15.765  0.00  0.00     0.165 HD
BRANCH  40  43
ATOM     43  OBJ DR7 d          19.172  37.137  17.739  0.00  0.00    -0.309 OA
ATOM     44  CAB DR7 d          19.609  37.743  18.959  0.00  0.00     0.215 C 
ENDBRANCH  40  43
ENDBRANCH  34  39
ENDBRANCH  31  34
ENDBRANCH   1  30
BRANCH   1  45
ATOM     45  CBB DR7 d          22.288  32.652  15.351  0.00  0.00     0.301 C 
BRANCH  45  46
ATOM     46  CBP DR7 d          22.231  34.103  15.780  0.00  0.00    -0.030 A 
ATOM     47  CAW DR7 d          22.184  35.110  14.821  0.00  0.00     0.010 A 
ATOM     48  CAY DR7 d          22.148  36.447  15.207  0.00  0.00     0.014 A 
ATOM     49  CBQ DR7 d          22.161  36.787  16.557  0.00  0.00    -0.007 A 
ATOM     50  CAZ DR7 d          22.221  35.777  17.517  0.00  0.00     0.014 A 
ATOM     51  CAX DR7 d          22.260  34.441  17.129  0.00  0.00     0.010 A 
BRANCH  49  52
ATOM     52  CBR DR7 d          22.134  38.214  16.991  0.00  0.00     0.066 A 
ATOM     53  CAV DR7 d          21.356  39.158  16.327  0.00  0.00     0.032 A 
ATOM     54  CAR DR7 d          21.368  40.478  16.766  0.00  0.00     0.004 A 
ATOM     55  CAO DR7 d          22.151  40.826  17.861  0.00  0.00     0.019 A 
ATOM     56  CAS DR7 d          22.913  39.850  18.498  0.00  0.00     0.117 A 
ATOM     57  NBD DR7 d          22.890  38.586  18.054  0.00  0.00    -0.260 NA
ENDBRANCH  49  52
ENDBRANCH  45  46
ENDBRANCH   1  45
TORSDOF 19
