REMARK  14 active torsions:
REMARK  status: ('A' for Active; 'I' for Inactive)
REMARK       I    between atoms: N1_26  and  C3_3 
REMARK    1  A    between atoms: C3_3  and  O1_29 
REMARK    2  A    between atoms: O1_29  and  C4_4 
REMARK    3  A    between atoms: C6_6  and  C5_5 
REMARK    4  A    between atoms: C5_5  and  C7_7 
REMARK    5  A    between atoms: C5_5  and  N1_26 
REMARK    6  A    between atoms: C14_14  and  C6_6 
REMARK    7  A    between atoms: C6_6  and  O3_31 
REMARK    8  A    between atoms: C7_7  and  C8_8 
REMARK    9  A    between atoms: N2_27  and  C14_14 
REMARK   10  A    between atoms: C15_15  and  C16_16 
REMARK   11  A    between atoms: N2_27  and  C15_15 
REMARK   12  A    between atoms: S1_35  and  C17_17 
REMARK   13  A    between atoms: C20_20  and  N3_28 
REMARK   14  A    between atoms: N2_27  and  S1_35 
ROOT
ATOM      1  C6  MOL d          20.884   9.383  16.969  0.00  0.00     0.155 C 
ENDROOT
BRANCH   1   2
ATOM      2  C5  MOL d          20.709  10.898  16.994  0.00  0.00     0.120 C 
BRANCH   2   3
ATOM      3  C7  MOL d          19.544  11.392  16.126  0.00  0.00     0.066 C 
BRANCH   3   4
ATOM      4  C8  MOL d          19.524  12.913  16.239  0.00  0.00    -0.056 C 
ATOM      5  C9  MOL d          20.209  13.666  15.293  0.00  0.00     0.007 C 
ATOM      6  C11 MOL d          20.244  15.036  15.503  0.00  0.00     0.001 C 
ATOM      7  C13 MOL d          19.636  15.585  16.622  0.00  0.00     0.000 C 
ATOM      8  C12 MOL d          18.827  14.913  17.513  0.00  0.00     0.001 C 
ATOM      9  C10 MOL d          18.859  13.546  17.274  0.00  0.00     0.007 C 
ENDBRANCH   3   4
ENDBRANCH   2   3
BRANCH   2  10
ATOM     10  N1  MOL d          21.935  11.524  16.482  0.00  0.00    -0.329 N 
ATOM     11  C3  MOL d          22.685  12.382  17.177  0.00  0.00     0.361 C 
ATOM     12  O2  MOL d          22.518  12.637  18.363  0.00  0.00    -0.238 OA
ATOM     13  H32 MOL d          22.226  11.293  15.554  0.00  0.00     0.165 HD
BRANCH  11  14
ATOM     14  O1  MOL d          23.682  12.986  16.493  0.00  0.00    -0.296 OA
BRANCH  14  15
ATOM     15  C4  MOL d          24.521  13.878  17.215  0.00  0.00     0.159 C 
ATOM     16  C1  MOL d          25.339  14.672  16.189  0.00  0.00     0.200 C 
ATOM     17  O6  MOL d          26.442  13.841  15.848  0.00  0.00    -0.389 OA
ATOM     18  C25 MOL d          26.742  12.993  16.951  0.00  0.00     0.170 C 
ATOM     19  C2  MOL d          25.590  13.085  17.953  0.00  0.00     0.061 C 
ENDBRANCH  14  15
ENDBRANCH  11  14
ENDBRANCH   2  10
ENDBRANCH   1   2
BRANCH   1  20
ATOM     20  C14 MOL d          19.705   8.655  17.629  0.00  0.00     0.141 C 
BRANCH  20  21
ATOM     21  N2  MOL d          19.798   8.918  19.074  0.00  0.00    -0.204 NA
BRANCH  21  22
ATOM     22  C15 MOL d          20.152   7.709  19.810  0.00  0.00     0.111 C 
BRANCH  22  23
ATOM     23  C16 MOL d          21.689   7.595  19.707  0.00  0.00    -0.009 C 
ATOM     24  C23 MOL d          22.323   8.908  20.192  0.00  0.00     0.011 C 
ATOM     25  C24 MOL d          22.180   6.397  20.533  0.00  0.00     0.011 C 
ENDBRANCH  22  23
ENDBRANCH  21  22
BRANCH  21  26
ATOM     26  S1  MOL d          18.499   9.679  19.690  0.00  0.00     0.243 S 
ATOM     27  O4  MOL d          18.116  10.745  18.715  0.00  0.00    -0.206 OA
ATOM     28  O5  MOL d          18.858  10.222  21.015  0.00  0.00    -0.206 OA
BRANCH  26  29
ATOM     29  C17 MOL d          17.161   8.572  19.836  0.00  0.00     0.074 A 
ATOM     30  C18 MOL d          16.261   8.547  18.770  0.00  0.00     0.027 A 
ATOM     31  C19 MOL d          15.206   7.647  18.820  0.00  0.00     0.030 A 
ATOM     32  C20 MOL d          15.070   6.796  19.904  0.00  0.00     0.025 A 
ATOM     33  C21 MOL d          15.965   6.836  20.968  0.00  0.00     0.030 A 
ATOM     34  C22 MOL d          17.048   7.729  20.925  0.00  0.00     0.027 A 
BRANCH  32  35
ATOM     35  N3  MOL d          14.070   5.920  19.879  0.00  0.00    -0.399 N 
ATOM     36  H33 MOL d          13.418   5.906  19.082  0.00  0.00     0.156 HD
ATOM     37  H34 MOL d          13.948   5.255  20.657  0.00  0.00     0.156 HD
ENDBRANCH  32  35
ENDBRANCH  26  29
ENDBRANCH  21  26
ENDBRANCH  20  21
ENDBRANCH   1  20
BRANCH   1  38
ATOM     38  O3  MOL d          21.074   8.885  15.646  0.00  0.00    -0.392 OA
ATOM     39  H35 MOL d          21.804   9.338  15.240  0.00  0.00     0.210 HD
ENDBRANCH   1  38
TORSDOF 14
