REMARK  18 active torsions:
REMARK  status: ('A' for Active; 'I' for Inactive)
REMARK    1  A    between atoms: CA_2  and  N_1 
REMARK    2  A    between atoms: C_3  and  CA_2 
REMARK    3  A    between atoms: CA_2  and  CB_5 
REMARK       I    between atoms: N_10  and  C_3 
REMARK    4  A    between atoms: CB_5  and  CG_6 
REMARK    5  A    between atoms: CG_6  and  CD_7 
REMARK    6  A    between atoms: CD_7  and  CE_8 
REMARK    7  A    between atoms: CE_8  and  NZ_9 
REMARK    8  A    between atoms: CA_11  and  N_10 
REMARK    9  A    between atoms: C_12  and  CA_11 
REMARK   10  A    between atoms: CA_11  and  CB_14 
REMARK       I    between atoms: C_12  and  N_20 
REMARK   11  A    between atoms: CB_14  and  CG_15 
REMARK   12  A    between atoms: N_20  and  CA_21 
REMARK   13  A    between atoms: CA_21  and  C_22 
REMARK   14  A    between atoms: CA_21  and  CB_24 
REMARK   15  A    between atoms: CB_24  and  CG_25 
REMARK   16  A    between atoms: CG_25  and  CD_26 
REMARK   17  A    between atoms: CD_26  and  CE_27 
REMARK   18  A    between atoms: CE_27  and  NZ_28 
ROOT
ATOM      1  CA  MOL d           3.806  20.252  16.297  0.00  0.00     0.182 C 
ENDROOT
BRANCH   1   2
ATOM      2  C   MOL d           2.557  20.193  15.423  0.00  0.00     0.241 C 
ATOM      3  O   MOL d           2.630  20.519  14.237  0.00  0.00    -0.271 OA
ATOM      4  N   MOL d           1.420  19.827  16.057  0.00  0.00    -0.345 N 
ATOM      5  H23 MOL d           1.435  19.551  17.018  0.00  0.00     0.163 HD
BRANCH   4   6
ATOM      6  CA  MOL d           0.164  19.844  15.301  0.00  0.00     0.185 C 
BRANCH   6   7
ATOM      7  C   MOL d          -0.852  20.763  16.008  0.00  0.00     0.196 C 
ATOM      8  OXT MOL d          -0.673  21.122  17.181  0.00  0.00    -0.646 OA
ATOM      9  O   MOL d          -1.833  21.152  15.354  0.00  0.00    -0.646 OA
ENDBRANCH   6   7
BRANCH   6  10
ATOM     10  CB  MOL d          -0.478  18.458  15.166  0.00  0.00     0.036 C 
BRANCH  10  11
ATOM     11  CG  MOL d          -1.592  18.464  14.111  0.00  0.00     0.004 C 
BRANCH  11  12
ATOM     12  CD  MOL d          -2.443  17.212  14.293  0.00  0.00     0.027 C 
BRANCH  12  13
ATOM     13  CE  MOL d          -3.667  17.253  13.428  0.00  0.00     0.229 C 
BRANCH  13  14
ATOM     14  NZ  MOL d          -3.378  17.531  11.998  0.00  0.00    -0.079 N 
ATOM     15  H33 MOL d          -4.241  17.544  11.477  0.00  0.00     0.274 HD
ATOM     16  H34 MOL d          -2.775  16.811  11.631  0.00  0.00     0.274 HD
ATOM     17  H35 MOL d          -2.922  18.426  11.915  0.00  0.00     0.274 HD
ENDBRANCH  13  14
ENDBRANCH  12  13
ENDBRANCH  11  12
ENDBRANCH  10  11
ENDBRANCH   6  10
ENDBRANCH   4   6
ENDBRANCH   1   2
BRANCH   1  18
ATOM     18  CB  MOL d           3.992  21.746  16.674  0.00  0.00     0.093 C 
BRANCH  18  19
ATOM     19  CG  MOL d           4.977  21.869  17.813  0.00  0.00     0.030 A 
ATOM     20  CD2 MOL d           6.194  22.458  17.774  0.00  0.00     0.143 A 
ATOM     21  NE2 MOL d           6.756  22.322  19.034  0.00  0.00    -0.254 NA
ATOM     22  CE1 MOL d           5.891  21.647  19.790  0.00  0.00     0.207 A 
ATOM     23  ND1 MOL d           4.814  21.360  19.071  0.00  0.00    -0.353 N 
ATOM     24  H20 MOL d           3.991  20.839  19.405  0.00  0.00     0.166 HD
ENDBRANCH  18  19
ENDBRANCH   1  18
BRANCH   1  25
ATOM     25  N   MOL d           5.007  19.744  15.604  0.00  0.00    -0.346 N 
ATOM     26  C   MOL d           5.148  18.430  15.447  0.00  0.00     0.248 C 
ATOM     27  O   MOL d           4.332  17.591  15.851  0.00  0.00    -0.271 OA
ATOM     28  H16 MOL d           5.701  20.376  15.259  0.00  0.00     0.163 HD
BRANCH  26  29
ATOM     29  CA  MOL d           6.413  17.944  14.750  0.00  0.00     0.274 C 
BRANCH  29  30
ATOM     30  CB  MOL d           6.220  17.906  13.223  0.00  0.00     0.042 C 
BRANCH  30  31
ATOM     31  CG  MOL d           5.286  16.789  12.753  0.00  0.00     0.004 C 
BRANCH  31  32
ATOM     32  CD  MOL d           5.280  16.704  11.217  0.00  0.00     0.027 C 
BRANCH  32  33
ATOM     33  CE  MOL d           6.593  16.098  10.661  0.00  0.00     0.229 C 
BRANCH  33  34
ATOM     34  NZ  MOL d           6.616  14.615  10.948  0.00  0.00    -0.079 N 
ATOM     35  H13 MOL d           7.469  14.216  10.588  0.00  0.00     0.274 HD
ATOM     36  H14 MOL d           5.825  14.175  10.504  0.00  0.00     0.274 HD
ATOM     37  H15 MOL d           6.569  14.465  11.944  0.00  0.00     0.274 HD
ENDBRANCH  33  34
ENDBRANCH  32  33
ENDBRANCH  31  32
ENDBRANCH  30  31
ENDBRANCH  29  30
BRANCH  29  38
ATOM     38  N   MOL d           6.914  16.645  15.296  0.00  0.00    -0.067 N 
ATOM     39  H1  MOL d           7.748  16.372  14.801  0.00  0.00     0.275 HD
ATOM     40  H2  MOL d           6.207  15.936  15.179  0.00  0.00     0.275 HD
ATOM     41  H3  MOL d           7.124  16.751  16.276  0.00  0.00     0.275 HD
ENDBRANCH  29  38
ENDBRANCH  26  29
ENDBRANCH   1  25
TORSDOF 18
