REMARK  9 active torsions:
REMARK  status: ('A' for Active; 'I' for Inactive)
REMARK    1  A    between atoms: C1_1  and  C2_2 
REMARK    2  A    between atoms: C4_4  and  N4_13 
REMARK    3  A    between atoms: C5_5  and  N5_12 
REMARK    4  A    between atoms: C6_6  and  C7_7 
REMARK    5  A    between atoms: C7_7  and  O7_20 
REMARK    6  A    between atoms: C7_7  and  C8_8 
REMARK    7  A    between atoms: C8_8  and  O8_21 
REMARK    8  A    between atoms: C8_8  and  C9_9 
REMARK    9  A    between atoms: C9_9  and  O9_22 
REMARK       I    between atoms: N5_12  and  C10_10 
REMARK       I    between atoms: N4_13  and  C12_14 
REMARK       I    between atoms: C12_14  and  N6_15 
ROOT
ATOM      1  C2  GNA d          24.303  18.762  64.084  0.00  0.00     0.144 C 
ATOM      2  C3  GNA d          23.674  17.624  63.569  0.00  0.00     0.045 C 
ATOM      3  C4  GNA d          24.348  16.653  62.602  0.00  0.00     0.150 C 
ATOM      4  C5  GNA d          25.865  16.736  62.842  0.00  0.00     0.143 C 
ATOM      5  C6  GNA d          26.300  18.203  62.787  0.00  0.00     0.185 C 
ATOM      6  O6  GNA d          25.683  18.910  63.882  0.00  0.00    -0.335 OA
ENDROOT
BRANCH   3   7
ATOM      7  N4  GNA d          23.824  15.299  62.734  0.00  0.00    -0.217 N 
ATOM      8  C12 GNA d          23.770  14.374  61.768  0.00  0.00     0.665 C 
ATOM      9  N7  GNA d          23.643  13.092  62.102  0.00  0.00    -0.235 N 
ATOM     10  N6  GNA d          23.875  14.712  60.478  0.00  0.00    -0.235 N 
ATOM     11  H16 GNA d          23.562  12.824  63.093  0.00  0.00     0.174 HD
ATOM     12  H17 GNA d          23.626  12.368  61.369  0.00  0.00     0.174 HD
ATOM     13  H14 GNA d          23.831  13.985  59.750  0.00  0.00     0.174 HD
ATOM     14  H15 GNA d          24.000  15.699  60.213  0.00  0.00     0.174 HD
ATOM     15  H13 GNA d          23.461  15.028  63.659  0.00  0.00     0.178 HD
ENDBRANCH   3   7
BRANCH   4  16
ATOM     16  N5  GNA d          26.540  16.010  61.740  0.00  0.00    -0.352 N 
ATOM     17  C10 GNA d          27.031  14.784  61.900  0.00  0.00     0.214 C 
ATOM     18  O10 GNA d          26.992  14.177  62.971  0.00  0.00    -0.274 OA
ATOM     19  C11 GNA d          27.680  14.203  60.639  0.00  0.00     0.117 C 
ATOM     20  H12 GNA d          26.629  16.455  60.849  0.00  0.00     0.163 HD
ENDBRANCH   4  16
BRANCH   1  21
ATOM     21  C1  GNA d          23.590  19.743  64.785  0.00  0.00     0.233 C 
ATOM     22  O1B GNA d          22.374  19.611  65.073  0.00  0.00    -0.642 OA
ATOM     23  O1A GNA d          24.194  20.796  65.046  0.00  0.00    -0.642 OA
ENDBRANCH   1  21
BRANCH   5  24
ATOM     24  C7  GNA d          27.816  18.348  62.915  0.00  0.00     0.180 C 
BRANCH  24  25
ATOM     25  O7  GNA d          28.232  17.694  64.055  0.00  0.00    -0.390 OA
ATOM     26  H18 GNA d          27.807  18.079  64.812  0.00  0.00     0.210 HD
ENDBRANCH  24  25
BRANCH  24  27
ATOM     27  C8  GNA d          28.225  19.838  63.009  0.00  0.00     0.173 C 
BRANCH  27  28
ATOM     28  O8  GNA d          27.818  20.371  61.823  0.00  0.00    -0.391 OA
ATOM     29  H19 GNA d          28.258  19.924  61.109  0.00  0.00     0.210 HD
ENDBRANCH  27  28
BRANCH  27  30
ATOM     30  C9  GNA d          29.732  20.125  63.109  0.00  0.00     0.198 C 
BRANCH  30  31
ATOM     31  O9  GNA d          30.429  19.452  62.141  0.00  0.00    -0.398 OA
ATOM     32  H20 GNA d          30.124  19.726  61.284  0.00  0.00     0.209 HD
ENDBRANCH  30  31
ENDBRANCH  27  30
ENDBRANCH  24  27
ENDBRANCH   5  24
TORSDOF 9
