REMARK  3 active torsions:
REMARK  status: ('A' for Active; 'I' for Inactive)
REMARK    1  A    between atoms: CAM_7  and  NAB_8 
REMARK    2  A    between atoms: NAR_11  and  CAI_12 
REMARK    3  A    between atoms: CAI_12  and  CAP_13 
ROOT
ATOM      1  CAH MOL d          12.289  -5.890   1.243  0.00  0.00     0.240 C 
ATOM      2  CAG MOL d          12.837  -4.630   0.544  0.00  0.00     0.067 C 
ATOM      3  CAO MOL d          11.977  -4.206  -0.506  0.00  0.00    -0.046 A 
ATOM      4  CAE MOL d          12.502  -3.316  -1.472  0.00  0.00     0.008 A 
ATOM      5  CAC MOL d          11.724  -2.860  -2.549  0.00  0.00     0.003 A 
ATOM      6  CAD MOL d          10.379  -3.282  -2.657  0.00  0.00     0.029 A 
ATOM      7  CAM MOL d           9.850  -4.158  -1.698  0.00  0.00     0.034 A 
ATOM      8  CAQ MOL d          10.621  -4.640  -0.608  0.00  0.00     0.000 A 
ATOM      9  CAJ MOL d          10.039  -5.549   0.368  0.00  0.00     0.276 C 
ATOM     10  NAR MOL d          10.865  -5.674   1.601  0.00  0.00    -0.062 N 
ATOM     11  H   MOL d          10.811  -4.796   2.094  0.00  0.00     0.280 HD
ENDROOT
BRANCH  10  12
ATOM     12  CAI MOL d          10.324  -6.721   2.516  0.00  0.00     0.294 C 
BRANCH  12  13
ATOM     13  CAP MOL d          11.095  -6.711   3.826  0.00  0.00     0.060 A 
ATOM     14  NAL MOL d          10.989  -5.735   4.714  0.00  0.00    -0.351 N 
ATOM     15  CAF MOL d          11.832  -6.037   5.719  0.00  0.00     0.207 A 
ATOM     16  H   MOL d          10.380  -4.907   4.649  0.00  0.00     0.166 HD
ATOM     17  NAK MOL d          12.446  -7.194   5.444  0.00  0.00    -0.247 NA
ATOM     18  CAN MOL d          11.981  -7.617   4.263  0.00  0.00     0.056 A 
ATOM     19  CAA MOL d          12.435  -8.904   3.543  0.00  0.00     0.072 C 
ENDBRANCH  12  13
ENDBRANCH  10  12
BRANCH   7  20
ATOM     20  NAB MOL d           8.548  -4.584  -1.814  0.00  0.00    -0.399 N 
ATOM     21  H   MOL d           7.965  -4.251  -2.595  0.00  0.00     0.156 HD
ATOM     22  H   MOL d           8.156  -5.236  -1.120  0.00  0.00     0.156 HD
ENDBRANCH   7  20
TORSDOF 3
