REMARK  11 active torsions:
REMARK  status: ('A' for Active; 'I' for Inactive)
REMARK    1  A    between atoms: N1_1  and  CA1_2 
REMARK    2  A    between atoms: CA1_2  and  C1_3 
REMARK    3  A    between atoms: CA1_2  and  CB1_6 
REMARK    4  A    between atoms: CB1_6  and  CG1_7 
REMARK    5  A    between atoms: CG1_7  and  CD1_8 
REMARK       I    between atoms: CD1_8  and  N2_10 
REMARK    6  A    between atoms: N2_10  and  CA2_11 
REMARK    7  A    between atoms: CA2_11  and  C2_12 
REMARK    8  A    between atoms: CA2_11  and  CB2_14 
REMARK       I    between atoms: C2_12  and  N3_16 
REMARK    9  A    between atoms: CB2_14  and  SG2_15 
REMARK   10  A    between atoms: N3_16  and  CA3_17 
REMARK   11  A    between atoms: CA3_17  and  C3_18 
ROOT
ATOM      1  CD1 GSH d         -43.180  -5.634  -5.135  0.00  0.00     0.218 C 
ATOM      2  OE1 GSH d         -43.849  -4.575  -4.960  0.00  0.00    -0.274 OA
ATOM      3  N2  GSH d         -43.653  -6.713  -5.809  0.00  0.00    -0.347 N 
ATOM      4  H9  GSH d         -43.077  -7.522  -5.921  0.00  0.00     0.163 HD
ENDROOT
BRANCH   3   5
ATOM      5  CA2 GSH d         -45.018  -6.696  -6.378  0.00  0.00     0.185 C 
BRANCH   5   6
ATOM      6  C2  GSH d         -45.767  -7.533  -5.323  0.00  0.00     0.241 C 
ATOM      7  O2  GSH d         -45.794  -8.763  -5.404  0.00  0.00    -0.271 OA
ATOM      8  N3  GSH d         -46.341  -6.833  -4.290  0.00  0.00    -0.349 N 
ATOM      9  H14 GSH d         -46.257  -5.837  -4.314  0.00  0.00     0.163 HD
BRANCH   8  10
ATOM     10  CA3 GSH d         -47.090  -7.435  -3.117  0.00  0.00     0.235 C 
BRANCH  10  11
ATOM     11  C3  GSH d         -47.136  -6.442  -1.904  0.00  0.00     0.191 C 
ATOM     12  O31 GSH d         -47.728  -6.843  -0.874  0.00  0.00    -0.647 OA
ATOM     13  O32 GSH d         -46.576  -5.274  -1.995  0.00  0.00    -0.647 OA
ENDBRANCH  10  11
ENDBRANCH   8  10
ENDBRANCH   5   6
BRANCH   5  14
ATOM     14  CB2 GSH d         -45.139  -7.427  -7.776  0.00  0.00     0.105 C 
BRANCH  14  15
ATOM     15  SG2 GSH d         -44.000  -6.721  -9.073  0.00  0.00    -0.180 SA
ATOM     16  H13 GSH d         -44.123  -7.226  -9.937  0.00  0.00     0.101 HD
ENDBRANCH  14  15
ENDBRANCH   5  14
ENDBRANCH   3   5
BRANCH   1  17
ATOM     17  CG1 GSH d         -41.723  -5.825  -4.512  0.00  0.00     0.105 C 
BRANCH  17  18
ATOM     18  CB1 GSH d         -41.341  -4.547  -3.745  0.00  0.00     0.053 C 
BRANCH  18  19
ATOM     19  CA1 GSH d         -40.016  -4.701  -2.974  0.00  0.00     0.283 C 
BRANCH  19  20
ATOM     20  N1  GSH d         -40.048  -3.656  -1.950  0.00  0.00    -0.065 N 
ATOM     21  H1  GSH d         -40.889  -3.748  -1.402  0.00  0.00     0.275 HD
ATOM     22  H2  GSH d         -40.034  -2.751  -2.393  0.00  0.00     0.275 HD
ATOM     23  H3  GSH d         -39.244  -3.749  -1.350  0.00  0.00     0.275 HD
ENDBRANCH  19  20
BRANCH  19  24
ATOM     24  C1  GSH d         -38.755  -4.576  -3.809  0.00  0.00     0.204 C 
ATOM     25  O11 GSH d         -38.452  -5.492  -4.616  0.00  0.00    -0.646 OA
ATOM     26  O12 GSH d         -38.020  -3.481  -3.574  0.00  0.00    -0.646 OA
ENDBRANCH  19  24
ENDBRANCH  18  19
ENDBRANCH  17  18
ENDBRANCH   1  17
TORSDOF 11
