REMARK  2 active torsions:
REMARK  status: ('A' for Active; 'I' for Inactive)
REMARK    1  A    between atoms: N_1  and  CA_2 
REMARK    2  A    between atoms: CA_2  and  C_3 
ROOT
ATOM      1  N   BET d          26.676  22.955  72.682  0.00  0.00    -0.069 N 
ATOM      2  C1  BET d          27.358  23.372  71.442  0.00  0.00     0.272 C 
ATOM      3  C2  BET d          27.014  23.919  73.746  0.00  0.00     0.272 C 
ATOM      4  C3  BET d          27.087  21.582  73.040  0.00  0.00     0.272 C 
ENDROOT
BRANCH   1   5
ATOM      5  CA  BET d          25.229  22.942  72.376  0.00  0.00     0.348 C 
BRANCH   5   6
ATOM      6  C   BET d          24.253  22.831  73.511  0.00  0.00     0.199 C 
ATOM      7  O1  BET d          23.098  23.186  73.311  0.00  0.00    -0.647 OA
ATOM      8  O2  BET d          24.627  22.377  74.658  0.00  0.00    -0.647 OA
ENDBRANCH   5   6
ENDBRANCH   1   5
TORSDOF 2
