4el0_ligand

Created by X-TOOL on Fri Sep 26 17:34:54 2014
 46 48  0  0  0  0  0  0  0  0999 V2000
   34.1150   23.5090   28.8320  N 0  0  0  1  0  3
   33.4930   24.1610   29.8630  C 0  0  0  1  0  3
   32.2660   24.2820   29.9480  O 0  0  0  1  0  1
   34.2580   24.7410   30.8480  N 0  0  0  2  0  3
   35.5710   24.2100   30.9890  C 0  0  0  2  0  4
   36.2260   23.8810   29.7780  C 0  0  0  1  0  3
   36.3880   25.1840   31.5140  O 0  0  0  1  0  2
   35.5310   23.3600   28.7730  C 0  0  0  2  0  3
   37.5340   23.9080   30.0980  C 0  0  0  2  0  3
   37.5890   24.5380   31.2840  C 0  0  0  1  0  3
   38.9010   24.8720   31.9550  C 0  0  0  3  0  4
   33.2510   22.9110   27.7980  C 0  0  0  2  0  4
   39.5960   23.6930   32.6340  C 0  0  0  3  0  4
   41.0530   24.1780   32.9320  C 0  0  0  4  0  4
   33.7420   23.1320   26.3880  C 0  0  0  2  0  4
   34.0300   24.5130   26.1740  O 0  0  0  2  0  2
   32.6530   22.5410   25.4430  C 0  0  0  2  0  4
   33.0610   22.6080   24.1280  O 0  0  0  2  0  2
   32.3800   21.0800   25.8260  C 0  0  0  2  0  4
   31.2260   20.6490   25.0680  O 0  0  0  2  0  2
   32.1410   20.9210   27.4000  C 0  0  0  2  0  4
   33.2190   21.4700   28.1290  O 0  0  0  1  0  2
   32.1570   19.4740   27.8990  C 0  0  0  3  0  4
   33.1850   18.6820   27.2410  O 0  0  0  2  0  2
   33.9159   25.4832   31.4243  H 0  0  0  1  0  1
   35.5274   23.3275   31.6443  H 0  0  0  1  0  1
   36.0184   22.8453   27.9463  H 0  0  0  1  0  1
   38.3660   23.5067   29.5213  H 0  0  0  1  0  1
   38.7084   25.6404   32.7182  H 0  0  0  1  0  1
   39.5819   25.2761   31.1915  H 0  0  0  1  0  1
   32.2398   23.3364   27.8778  H 0  0  0  1  0  1
   39.6113   22.8196   31.9655  H 0  0  0  1  0  1
   39.0801   23.4300   33.5692  H 0  0  0  1  0  1
   41.6144   23.3708   33.4252  H 0  0  0  1  0  1
   41.0190   25.0573   33.5920  H 0  0  0  1  0  1
   41.5502   24.4468   31.9883  H 0  0  0  1  0  1
   34.6751   22.5696   26.2363  H 0  0  0  1  0  1
   34.3376   24.6370   25.2837  H 0  0  0  1  0  1
   31.7266   23.1228   25.5585  H 0  0  0  1  0  1
   32.3849   22.2436   23.5689  H 0  0  0  1  0  1
   33.2473   20.4648   25.5445  H 0  0  0  1  0  1
   31.4129   20.7227   24.1394  H 0  0  0  1  0  1
   31.1910   21.4093   27.6628  H 0  0  0  1  0  1
   31.1758   19.0186   27.6994  H 0  0  0  1  0  1
   32.3478   19.4740   28.9823  H 0  0  0  1  0  1
   33.1623   17.7937   27.5770  H 0  0  0  1  0  1
  1  2  1  0  0  1
  1  8  1  0  0  1
  1 12  1  0  0  2
  2  3  2  0  0  2
  2  4  1  0  0  1
  4  5  1  0  0  1
  5  6  1  0  0  1
  5  7  1  0  0  1
  6  8  2  0  0  1
  6  9  1  0  0  1
  7 10  1  0  0  1
  9 10  2  0  0  1
 10 11  1  0  0  2
 11 13  1  0  0  2
 12 15  1  0  0  1
 12 22  1  0  0  1
 13 14  1  0  0  2
 15 16  1  0  0  2
 15 17  1  0  0  1
 17 18  1  0  0  2
 17 19  1  0  0  1
 19 20  1  0  0  2
 19 21  1  0  0  1
 21 22  1  0  0  1
 21 23  1  0  0  2
 23 24  1  0  0  2
  4 25  1  0  0  2
  5 26  1  0  0  2
  8 27  1  0  0  2
  9 28  1  0  0  2
 11 29  1  0  0  2
 11 30  1  0  0  2
 12 31  1  0  0  2
 13 32  1  0  0  2
 13 33  1  0  0  2
 14 34  1  0  0  2
 14 35  1  0  0  2
 14 36  1  0  0  2
 15 37  1  0  0  2
 16 38  1  0  0  2
 17 39  1  0  0  2
 18 40  1  0  0  2
 19 41  1  0  0  2
 20 42  1  0  0  2
 21 43  1  0  0  2
 23 44  1  0  0  2
 23 45  1  0  0  2
 24 46  1  0  0  2
M  END
> <MOLECULAR_FORMULA>
C15H22N2O7

> <MOLECULAR_WEIGHT>
342.2

> <NUM_HB_ATOMS>
8  

> <NUM_ROTOR>
4  

> <XLOGP2>
-1.75

$$$$
