REMARK  8 active torsions:
REMARK  status: ('A' for Active; 'I' for Inactive)
REMARK    1  A    between atoms: N1_1  and  C1'_12 
REMARK    2  A    between atoms: C8_10  and  C9_11 
REMARK    3  A    between atoms: C9_11  and  C10_13 
REMARK    4  A    between atoms: C2'_15  and  O2'_16 
REMARK    5  A    between atoms: C3'_17  and  O3'_18 
REMARK    6  A    between atoms: C4'_19  and  O4'_20 
REMARK    7  A    between atoms: C5'_21  and  C6'_23 
REMARK    8  A    between atoms: C6'_23  and  O6'_24 
ROOT
ATOM      1  C1' D1K d          33.251  22.911  27.798  0.00  0.00     0.263 C 
ATOM      2  C2' D1K d          33.742  23.132  26.388  0.00  0.00     0.198 C 
ATOM      3  C3' D1K d          32.653  22.541  25.443  0.00  0.00     0.182 C 
ATOM      4  C4' D1K d          32.380  21.080  25.826  0.00  0.00     0.180 C 
ATOM      5  C5' D1K d          32.141  20.921  27.400  0.00  0.00     0.179 C 
ATOM      6  O5' D1K d          33.219  21.470  28.129  0.00  0.00    -0.353 OA
ENDROOT
BRANCH   1   7
ATOM      7  N1  D1K d          34.115  23.509  28.832  0.00  0.00    -0.279 N 
ATOM      8  C2  D1K d          33.493  24.161  29.863  0.00  0.00     0.326 C 
ATOM      9  O2  D1K d          32.266  24.282  29.948  0.00  0.00    -0.247 OA
ATOM     10  N3  D1K d          34.258  24.741  30.848  0.00  0.00    -0.311 N 
ATOM     11  C4  D1K d          35.571  24.210  30.989  0.00  0.00     0.267 C 
ATOM     12  H1  D1K d          33.916  25.483  31.424  0.00  0.00     0.167 HD
ATOM     13  C5  D1K d          36.226  23.881  29.778  0.00  0.00     0.009 C 
ATOM     14  O5  D1K d          36.388  25.184  31.514  0.00  0.00    -0.326 OA
ATOM     15  C6  D1K d          35.531  23.360  28.773  0.00  0.00     0.110 C 
ATOM     16  C7  D1K d          37.534  23.908  30.098  0.00  0.00     0.045 C 
ATOM     17  C8  D1K d          37.589  24.538  31.284  0.00  0.00     0.050 C 
BRANCH  17  18
ATOM     18  C9  D1K d          38.901  24.872  31.955  0.00  0.00     0.064 C 
BRANCH  18  19
ATOM     19  C10 D1K d          39.596  23.693  32.634  0.00  0.00     0.002 C 
ATOM     20  C11 D1K d          41.053  24.178  32.932  0.00  0.00     0.005 C 
ENDBRANCH  18  19
ENDBRANCH  17  18
ENDBRANCH   1   7
BRANCH   2  21
ATOM     21  O2' D1K d          34.030  24.513  26.174  0.00  0.00    -0.388 OA
ATOM     22  H14 D1K d          34.338  24.637  25.284  0.00  0.00     0.210 HD
ENDBRANCH   2  21
BRANCH   3  23
ATOM     23  O3' D1K d          33.061  22.608  24.128  0.00  0.00    -0.390 OA
ATOM     24  H16 D1K d          32.385  22.244  23.569  0.00  0.00     0.210 HD
ENDBRANCH   3  23
BRANCH   5  25
ATOM     25  C6' D1K d          32.157  19.474  27.899  0.00  0.00     0.198 C 
BRANCH  25  26
ATOM     26  O6' D1K d          33.185  18.682  27.241  0.00  0.00    -0.398 OA
ATOM     27  H22 D1K d          33.162  17.794  27.577  0.00  0.00     0.209 HD
ENDBRANCH  25  26
ENDBRANCH   5  25
BRANCH   4  28
ATOM     28  O4' D1K d          31.226  20.649  25.068  0.00  0.00    -0.390 OA
ATOM     29  H18 D1K d          31.413  20.723  24.139  0.00  0.00     0.210 HD
ENDBRANCH   4  28
TORSDOF 8
