REMARK  14 active torsions:
REMARK  status: ('A' for Active; 'I' for Inactive)
REMARK    1  A    between atoms: N1_1  and  C31_39 
REMARK    2  A    between atoms: C2_3  and  C3_4 
REMARK       I    between atoms: C3_4  and  N2_6 
REMARK    3  A    between atoms: N2_6  and  C4_7 
REMARK    4  A    between atoms: N3_11  and  C10_14 
REMARK    5  A    between atoms: C10_14  and  C11_15 
REMARK    6  A    between atoms: C11_15  and  C12_17 
REMARK    7  A    between atoms: C11_15  and  O2_16 
REMARK    8  A    between atoms: C12_17  and  C13_18 
REMARK    9  A    between atoms: C13_18  and  C21_26 
REMARK   10  A    between atoms: C13_18  and  C14_19 
REMARK   11  A    between atoms: C14_19  and  C15_20 
REMARK   12  A    between atoms: N4_28  and  C22_29 
REMARK   13  A    between atoms: C23_30  and  O4_31 
REMARK   14  A    between atoms: C31_39  and  C32_40 
ROOT
ATOM      1  C11 XN2 d           5.037  -0.433  15.553  0.00  0.00     0.144 C 
ENDROOT
BRANCH   1   2
ATOM      2  C10 XN2 d           5.092  -1.507  16.561  0.00  0.00     0.267 C 
BRANCH   2   3
ATOM      3  N3  XN2 d           4.472  -2.771  16.007  0.00  0.00    -0.053 N 
ATOM      4  C2  XN2 d           5.384  -4.013  16.309  0.00  0.00     0.305 C 
ATOM      5  C1  XN2 d           4.586  -5.168  15.716  0.00  0.00     0.278 C 
ATOM      6  N1  XN2 d           3.118  -5.284  16.285  0.00  0.00    -0.063 N 
ATOM      7  C9  XN2 d           2.406  -4.057  15.871  0.00  0.00     0.263 C 
ATOM      8  H1  XN2 d           3.138  -5.372  17.289  0.00  0.00     0.280 HD
ATOM      9  C8  XN2 d           3.022  -2.764  16.440  0.00  0.00     0.263 C 
ATOM     10  H15 XN2 d           4.459  -2.693  15.002  0.00  0.00     0.281 HD
BRANCH   4  11
ATOM     11  C3  XN2 d           6.711  -4.050  15.650  0.00  0.00     0.251 C 
ATOM     12  N2  XN2 d           7.799  -4.446  16.411  0.00  0.00    -0.351 N 
ATOM     13  H5  XN2 d           7.581  -4.691  17.356  0.00  0.00     0.163 HD
ATOM     14  O1  XN2 d           6.784  -3.698  14.415  0.00  0.00    -0.271 OA
BRANCH  12  15
ATOM     15  C4  XN2 d           9.245  -4.568  16.053  0.00  0.00     0.022 C 
ATOM     16  C7  XN2 d           9.530  -5.506  14.912  0.00  0.00     0.037 C 
ATOM     17  C6  XN2 d           9.837  -3.326  15.749  0.00  0.00     0.037 C 
ATOM     18  C5  XN2 d          10.049  -5.068  17.284  0.00  0.00     0.037 C 
ENDBRANCH  12  15
ENDBRANCH   4  11
BRANCH   6  19
ATOM     19  C31 XN2 d           2.408  -6.407  15.697  0.00  0.00     0.273 C 
BRANCH  19  20
ATOM     20  C32 XN2 d           2.958  -7.777  16.044  0.00  0.00    -0.030 A 
ATOM     21  C36 XN2 d           3.702  -8.623  15.045  0.00  0.00     0.048 A 
ATOM     22  C35 XN2 d           4.219  -9.965  15.465  0.00  0.00     0.105 A 
ATOM     23  C34 XN2 d           3.975 -10.400  16.841  0.00  0.00     0.105 A 
ATOM     24  O6  XN2 d           4.922 -11.017  14.900  0.00  0.00    -0.323 OA
ATOM     25  C37 XN2 d           3.240  -9.621  17.906  0.00  0.00     0.040 A 
ATOM     26  O5  XN2 d           4.542 -11.657  16.990  0.00  0.00    -0.323 OA
ATOM     27  C33 XN2 d           2.752  -8.297  17.426  0.00  0.00     0.012 A 
ATOM     28  C38 XN2 d           5.209 -12.201  15.787  0.00  0.00     0.352 A 
ENDBRANCH  19  20
ENDBRANCH   6  19
ENDBRANCH   2   3
ENDBRANCH   1   2
BRANCH   1  29
ATOM     29  C12 XN2 d           6.197  -0.217  14.654  0.00  0.00     0.047 C 
BRANCH  29  30
ATOM     30  C13 XN2 d           6.150   0.869  13.593  0.00  0.00     0.074 C 
BRANCH  30  31
ATOM     31  C21 XN2 d           4.997   0.611  12.505  0.00  0.00     0.157 C 
ATOM     32  N4  XN2 d           4.461   1.752  12.151  0.00  0.00    -0.360 N 
ATOM     33  H33 XN2 d           4.793   2.583  12.598  0.00  0.00     0.162 HD
ATOM     34  O3  XN2 d           4.651  -0.542  12.012  0.00  0.00    -0.177 OA
BRANCH  32  35
ATOM     35  C22 XN2 d           3.419   1.890  11.155  0.00  0.00     0.146 C 
ATOM     36  C30 XN2 d           1.954   1.715  11.564  0.00  0.00    -0.027 A 
ATOM     37  C25 XN2 d           1.054   2.722  10.670  0.00  0.00    -0.047 A 
ATOM     38  C29 XN2 d           1.287   0.882  12.513  0.00  0.00     0.010 A 
ATOM     39  C24 XN2 d           2.100   3.384   9.835  0.00  0.00     0.073 C 
ATOM     40  C26 XN2 d          -0.360   2.771  10.835  0.00  0.00     0.008 A 
ATOM     41  C23 XN2 d           3.430   3.272  10.534  0.00  0.00     0.149 C 
ATOM     42  C27 XN2 d          -0.973   1.876  11.843  0.00  0.00     0.001 A 
ATOM     43  C28 XN2 d          -0.150   0.933  12.679  0.00  0.00     0.001 A 
BRANCH  41  44
ATOM     44  O4  XN2 d           3.710   4.288  11.495  0.00  0.00    -0.393 OA
ATOM     45  H36 XN2 d           4.565   4.132  11.879  0.00  0.00     0.210 HD
ENDBRANCH  41  44
ENDBRANCH  32  35
ENDBRANCH  30  31
BRANCH  30  46
ATOM     46  C14 XN2 d           7.587   0.864  12.798  0.00  0.00     0.026 C 
ATOM     47  C39 XN2 d           8.810   0.899  13.231  0.00  0.00     0.016 C 
BRANCH  46  48
ATOM     48  C15 XN2 d           7.548   1.976  11.672  0.00  0.00    -0.054 A 
ATOM     49  C20 XN2 d           7.711   1.532  10.253  0.00  0.00     0.007 A 
ATOM     50  C19 XN2 d           7.673   2.509   9.160  0.00  0.00     0.001 A 
ATOM     51  C18 XN2 d           7.467   3.973   9.458  0.00  0.00     0.000 A 
ATOM     52  C17 XN2 d           7.297   4.460  10.893  0.00  0.00     0.001 A 
ATOM     53  C16 XN2 d           7.335   3.476  11.991  0.00  0.00     0.007 A 
ENDBRANCH  46  48
ENDBRANCH  30  46
ENDBRANCH  29  30
ENDBRANCH   1  29
BRANCH   1  54
ATOM     54  O2  XN2 d           5.191   0.590  16.510  0.00  0.00    -0.394 OA
ATOM     55  H23 XN2 d           4.485   0.538  17.143  0.00  0.00     0.210 HD
ENDBRANCH   1  54
TORSDOF 14
