REMARK  3 active torsions:
REMARK  status: ('A' for Active; 'I' for Inactive)
REMARK    1  A    between atoms: C1_1  and  C2_4 
REMARK    2  A    between atoms: C3_6  and  C4_7 
REMARK    3  A    between atoms: C4_7  and  C5_8 
ROOT
ATOM      1  C2  AKG d         -42.900   3.313  11.753  0.00  0.00     0.228 C 
ATOM      2  O5  AKG d         -42.934   4.417  12.452  0.00  0.00    -0.213 OA
ATOM      3  C3  AKG d         -42.795   2.690  12.959  0.00  0.00     0.067 C 
ENDROOT
BRANCH   1   4
ATOM      4  C1  AKG d         -42.777   3.006  10.400  0.00  0.00     0.216 C 
ATOM      5  O1  AKG d         -42.311   1.963   9.975  0.00  0.00    -0.646 OA
ATOM      6  O2  AKG d         -43.228   3.974   9.679  0.00  0.00    -0.646 OA
ENDBRANCH   1   4
BRANCH   3   7
ATOM      7  C4  AKG d         -44.144   2.366  13.511  0.00  0.00     0.117 C 
BRANCH   7   8
ATOM      8  C5  AKG d         -43.834   1.514  14.705  0.00  0.00     0.172 C 
ATOM      9  O3  AKG d         -43.949   2.013  15.838  0.00  0.00    -0.648 OA
ATOM     10  O4  AKG d         -43.457   0.341  14.540  0.00  0.00    -0.648 OA
ENDBRANCH   7   8
ENDBRANCH   3   7
TORSDOF 3
