REMARK  21 active torsions:
REMARK  status: ('A' for Active; 'I' for Inactive)
REMARK    1  A    between atoms: N_1  and  C6_4 
REMARK       I    between atoms: C4_40  and  N_1 
REMARK    2  A    between atoms: C14_9  and  O_3 
REMARK    3  A    between atoms: O_3  and  C15_10 
REMARK    4  A    between atoms: C6_4  and  C8_5 
REMARK    5  A    between atoms: C6_4  and  C7_21 
REMARK    6  A    between atoms: C8_5  and  C9_6 
REMARK    7  A    between atoms: C15_10  and  P_11 
REMARK    8  A    between atoms: P_11  and  O3_12 
REMARK    9  A    between atoms: P_11  and  O1_16 
REMARK   10  A    between atoms: O3_12  and  C18_13 
REMARK   11  A    between atoms: O1_16  and  C16_17 
REMARK   12  A    between atoms: C7_21  and  O8_22 
REMARK   13  A    between atoms: C7_21  and  C20_23 
REMARK   14  A    between atoms: C20_23  and  N1_24 
REMARK   15  A    between atoms: N1_24  and  C21_25 
REMARK   16  A    between atoms: N1_24  and  S_29 
REMARK   17  A    between atoms: C21_25  and  C22_26 
REMARK   18  A    between atoms: S_29  and  C23_32 
REMARK   19  A    between atoms: C26_35  and  O5_36 
REMARK   20  A    between atoms: O6_42  and  C4_40 
REMARK   21  A    between atoms: O6_42  and  C5_43 
ROOT
ATOM      1  C6  KGQ d         -11.946  52.551   3.802  0.00  0.00     0.120 C 
ENDROOT
BRANCH   1   2
ATOM      2  N   KGQ d         -11.856  52.458   2.311  0.00  0.00    -0.329 N 
ATOM      3  C4  KGQ d         -12.753  52.858   1.386  0.00  0.00     0.361 C 
ATOM      4  O7  KGQ d         -13.875  53.364   1.596  0.00  0.00    -0.238 OA
ATOM      5  H   KGQ d         -11.019  52.044   1.952  0.00  0.00     0.165 HD
BRANCH   3   6
ATOM      6  O6  KGQ d         -12.354  52.603   0.088  0.00  0.00    -0.296 OA
BRANCH   6   7
ATOM      7  C5  KGQ d         -13.438  52.453  -0.874  0.00  0.00     0.166 C 
ATOM      8  C   KGQ d         -13.677  51.018  -1.399  0.00  0.00     0.075 C 
ATOM      9  C32 KGQ d         -12.593  50.815  -2.457  0.00  0.00     0.266 C 
ATOM     10  C1  KGQ d         -13.450  49.902  -0.365  0.00  0.00     0.038 C 
ATOM     11  O4  KGQ d         -12.045  52.152  -2.724  0.00  0.00    -0.358 OA
ATOM     12  O11 KGQ d         -11.590  49.951  -1.831  0.00  0.00    -0.361 OA
ATOM     13  C3  KGQ d         -12.947  53.128  -2.136  0.00  0.00     0.204 C 
ATOM     14  C2  KGQ d         -12.275  49.099  -0.882  0.00  0.00     0.171 C 
ENDBRANCH   6   7
ENDBRANCH   3   6
ENDBRANCH   1   2
BRANCH   1  15
ATOM     15  C8  KGQ d         -11.540  51.158   4.360  0.00  0.00     0.066 C 
BRANCH  15  16
ATOM     16  C9  KGQ d         -12.427  50.051   3.758  0.00  0.00    -0.056 A 
ATOM     17  C11 KGQ d         -11.869  48.990   3.026  0.00  0.00     0.010 A 
ATOM     18  C13 KGQ d         -12.679  48.005   2.467  0.00  0.00     0.037 A 
ATOM     19  C14 KGQ d         -14.062  48.088   2.633  0.00  0.00     0.069 A 
ATOM     20  C12 KGQ d         -14.623  49.148   3.346  0.00  0.00     0.037 A 
ATOM     21  C10 KGQ d         -13.808  50.121   3.922  0.00  0.00     0.010 A 
BRANCH  19  22
ATOM     22  O   KGQ d         -14.872  47.144   2.077  0.00  0.00    -0.340 OA
BRANCH  22  23
ATOM     23  C15 KGQ d         -15.851  47.839   1.298  0.00  0.00     0.307 C 
BRANCH  23  24
ATOM     24  P   KGQ d         -16.700  46.630   0.205  0.00  0.00     0.352 P 
ATOM     25  O2  KGQ d         -16.217  47.106  -1.270  0.00  0.00    -0.256 OA
BRANCH  24  26
ATOM     26  O3  KGQ d         -18.327  46.804   0.277  0.00  0.00    -0.313 OA
BRANCH  26  27
ATOM     27  C18 KGQ d         -19.218  46.068   1.140  0.00  0.00     0.174 C 
ATOM     28  C19 KGQ d         -20.097  47.059   1.953  0.00  0.00     0.034 C 
ENDBRANCH  26  27
ENDBRANCH  24  26
BRANCH  24  29
ATOM     29  O1  KGQ d         -16.084  45.144   0.405  0.00  0.00    -0.313 OA
BRANCH  29  30
ATOM     30  C16 KGQ d         -14.843  44.811  -0.245  0.00  0.00     0.174 C 
ATOM     31  C17 KGQ d         -14.570  43.307  -0.126  0.00  0.00     0.034 C 
ENDBRANCH  29  30
ENDBRANCH  24  29
ENDBRANCH  23  24
ENDBRANCH  22  23
ENDBRANCH  19  22
ENDBRANCH  15  16
ENDBRANCH   1  15
BRANCH   1  32
ATOM     32  C7  KGQ d         -10.919  53.574   4.266  0.00  0.00     0.155 C 
BRANCH  32  33
ATOM     33  O8  KGQ d          -9.688  52.854   4.221  0.00  0.00    -0.392 OA
ATOM     34  H   KGQ d          -8.979  53.423   4.499  0.00  0.00     0.210 HD
ENDBRANCH  32  33
BRANCH  32  35
ATOM     35  C20 KGQ d         -11.129  54.159   5.694  0.00  0.00     0.141 C 
BRANCH  35  36
ATOM     36  N1  KGQ d         -12.362  54.988   5.871  0.00  0.00    -0.204 NA
BRANCH  36  37
ATOM     37  C21 KGQ d         -12.877  55.439   4.551  0.00  0.00     0.111 C 
BRANCH  37  38
ATOM     38  C22 KGQ d         -12.664  56.936   4.305  0.00  0.00    -0.009 C 
ATOM     39  C30 KGQ d         -11.173  57.240   4.188  0.00  0.00     0.011 C 
ATOM     40  C29 KGQ d         -13.308  57.764   5.416  0.00  0.00     0.011 C 
ENDBRANCH  37  38
ENDBRANCH  36  37
BRANCH  36  41
ATOM     41  S   KGQ d         -13.538  54.111   6.767  0.00  0.00     0.243 S 
ATOM     42  O10 KGQ d         -14.937  54.479   6.346  0.00  0.00    -0.206 OA
ATOM     43  O9  KGQ d         -13.350  52.605   6.682  0.00  0.00    -0.206 OA
BRANCH  41  44
ATOM     44  C23 KGQ d         -13.309  54.419   8.519  0.00  0.00     0.074 A 
ATOM     45  C28 KGQ d         -12.394  53.636   9.243  0.00  0.00     0.027 A 
ATOM     46  C27 KGQ d         -12.199  53.887  10.600  0.00  0.00     0.038 A 
ATOM     47  C26 KGQ d         -12.928  54.905  11.237  0.00  0.00     0.068 A 
ATOM     48  C25 KGQ d         -13.834  55.667  10.519  0.00  0.00     0.038 A 
ATOM     49  C24 KGQ d         -14.027  55.429   9.158  0.00  0.00     0.027 A 
BRANCH  47  50
ATOM     50  O5  KGQ d         -12.768  55.163  12.572  0.00  0.00    -0.356 OA
ATOM     51  C31 KGQ d         -12.976  56.549  12.854  0.00  0.00     0.210 C 
ENDBRANCH  47  50
ENDBRANCH  41  44
ENDBRANCH  36  41
ENDBRANCH  35  36
ENDBRANCH  32  35
ENDBRANCH   1  32
TORSDOF 21
