REMARK  8 active torsions:
REMARK  status: ('A' for Active; 'I' for Inactive)
REMARK    1  A    between atoms: C2_2  and  C3_3 
REMARK    2  A    between atoms: C2_2  and  O6_6 
REMARK    3  A    between atoms: C3_3  and  C4_4 
REMARK    4  A    between atoms: C3_3  and  N7_7 
REMARK       I    between atoms: C4_4  and  N5_5 
REMARK    5  A    between atoms: N5_5  and  S9_9 
REMARK    6  A    between atoms: S9_9  and  C12_12 
REMARK    7  A    between atoms: C16_16  and  C18_18 
REMARK    8  A    between atoms: C27_27  and  N28_28 
ROOT
ATOM      1  C12 X16 d         -14.409 -37.304  17.765  0.00  0.00     0.080 A 
ATOM      2  C13 X16 d         -14.369 -36.766  19.053  0.00  0.00     0.025 A 
ATOM      3  C14 X16 d         -15.521 -36.525  19.809  0.00  0.00     0.002 A 
ATOM      4  C15 X16 d         -16.746 -36.838  19.249  0.00  0.00     0.012 A 
ATOM      5  C16 X16 d         -16.822 -37.440  18.003  0.00  0.00    -0.024 A 
ATOM      6  C17 X16 d         -15.661 -37.632  17.261  0.00  0.00     0.037 A 
ENDROOT
BRANCH   1   7
ATOM      7  S9  X16 d         -13.060 -37.591  16.906  0.00  0.00     0.265 S 
ATOM      8  O10 X16 d         -12.602 -38.829  17.293  0.00  0.00    -0.200 OA
ATOM      9  O11 X16 d         -13.294 -37.481  15.571  0.00  0.00    -0.200 OA
BRANCH   7  10
ATOM     10  N5  X16 d         -11.900 -36.585  17.331  0.00  0.00    -0.248 N 
ATOM     11  C4  X16 d         -11.958 -35.304  17.002  0.00  0.00     0.264 C 
ATOM     12  O8  X16 d         -12.872 -34.839  16.377  0.00  0.00    -0.270 OA
ATOM     13  H6  X16 d         -11.118 -36.926  17.853  0.00  0.00     0.182 HD
BRANCH  11  14
ATOM     14  C3  X16 d         -10.810 -34.418  17.408  0.00  0.00     0.303 C 
BRANCH  14  15
ATOM     15  C2  X16 d         -11.204 -33.683  18.692  0.00  0.00     0.153 C 
ATOM     16  C1  X16 d         -11.308 -34.616  19.901  0.00  0.00     0.042 C 
BRANCH  15  17
ATOM     17  O6  X16 d         -10.333 -32.633  19.065  0.00  0.00    -0.393 OA
ATOM     18  H7  X16 d         -10.647 -32.232  19.867  0.00  0.00     0.210 HD
ENDBRANCH  15  17
ENDBRANCH  14  15
BRANCH  14  19
ATOM     19  N7  X16 d         -10.649 -33.478  16.340  0.00  0.00    -0.064 N 
ATOM     20  H8  X16 d         -10.390 -33.968  15.498  0.00  0.00     0.275 HD
ATOM     21  H9  X16 d          -9.927 -32.817  16.580  0.00  0.00     0.275 HD
ATOM     22  H10 X16 d         -11.517 -32.988  16.190  0.00  0.00     0.275 HD
ENDBRANCH  14  19
ENDBRANCH  11  14
ENDBRANCH   7  10
ENDBRANCH   1   7
BRANCH   5  23
ATOM     23  C18 X16 d         -18.167 -37.725  17.401  0.00  0.00    -0.024 A 
ATOM     24  C19 X16 d         -19.294 -37.805  18.200  0.00  0.00     0.013 A 
ATOM     25  C20 X16 d         -20.562 -37.996  17.677  0.00  0.00     0.018 A 
ATOM     26  C21 X16 d         -20.700 -38.102  16.304  0.00  0.00     0.038 A 
ATOM     27  C22 X16 d         -19.525 -38.026  15.432  0.00  0.00     0.073 A 
ATOM     28  C27 X16 d         -22.009 -38.292  15.618  0.00  0.00     0.136 A 
ATOM     29  C23 X16 d         -18.292 -37.823  16.026  0.00  0.00     0.044 A 
ATOM     30  N24 X16 d         -19.706 -38.125  14.095  0.00  0.00    -0.233 NA
ATOM     31  C25 X16 d         -20.921 -38.300  13.548  0.00  0.00     0.125 A 
ATOM     32  N26 X16 d         -22.039 -38.373  14.292  0.00  0.00    -0.216 NA
ATOM     33  C29 X16 d         -21.007 -38.417  12.056  0.00  0.00     0.093 C 
BRANCH  28  34
ATOM     34  N28 X16 d         -23.098 -38.354  16.328  0.00  0.00    -0.383 N 
ATOM     35  H18 X16 d         -24.008 -38.485  15.864  0.00  0.00     0.157 HD
ATOM     36  H19 X16 d         -23.049 -38.272  17.354  0.00  0.00     0.157 HD
ENDBRANCH  28  34
ENDBRANCH   5  23
TORSDOF 8
