REMARK  3 active torsions:
REMARK  status: ('A' for Active; 'I' for Inactive)
REMARK    1  A    between atoms: C1_1  and  C7_2 
REMARK    2  A    between atoms: C8_3  and  C9_4 
REMARK    3  A    between atoms: C4_9  and  O1_10 
ROOT
ATOM      1  C1  FHC d          12.164   2.457  -4.448  0.00  0.00    -0.033 A 
ATOM      2  C6  FHC d          13.175   2.950  -5.285  0.00  0.00     0.014 A 
ATOM      3  C5  FHC d          12.923   3.891  -6.259  0.00  0.00     0.037 A 
ATOM      4  C4  FHC d          11.622   4.361  -6.428  0.00  0.00     0.065 A 
ATOM      5  C3  FHC d          10.623   3.872  -5.612  0.00  0.00     0.037 A 
ATOM      6  C2  FHC d          10.859   2.925  -4.637  0.00  0.00     0.014 A 
ENDROOT
BRANCH   1   7
ATOM      7  C7  FHC d          12.436   1.447  -3.428  0.00  0.00     0.060 C 
ATOM      8  C8  FHC d          13.488   1.310  -2.616  0.00  0.00     0.193 C 
ATOM      9  F1  FHC d          13.534   0.259  -1.754  0.00  0.00    -0.199 F 
BRANCH   8  10
ATOM     10  C9  FHC d          14.651   2.190  -2.569  0.00  0.00     0.239 C 
ATOM     11  O2  FHC d          14.392   3.501  -2.703  0.00  0.00    -0.642 OA
ATOM     12  O3  FHC d          15.785   1.783  -2.452  0.00  0.00    -0.642 OA
ENDBRANCH   8  10
ENDBRANCH   1   7
BRANCH   4  13
ATOM     13  O1  FHC d          11.354   5.315  -7.374  0.00  0.00    -0.361 OA
ATOM     14  H4  FHC d          12.153   5.531  -7.839  0.00  0.00     0.217 HD
ENDBRANCH   4  13
TORSDOF 3
