REMARK  14 active torsions:
REMARK  status: ('A' for Active; 'I' for Inactive)
REMARK    1  A    between atoms: C5_8  and  O4_9 
REMARK    2  A    between atoms: O4_9  and  C4_10 
REMARK       I    between atoms: C4_10  and  N1_12 
REMARK    3  A    between atoms: N1_12  and  C6_13 
REMARK    4  A    between atoms: C6_13  and  C8_14 
REMARK    5  A    between atoms: C6_13  and  C7_21 
REMARK    6  A    between atoms: C8_14  and  C9_15 
REMARK    7  A    between atoms: C7_21  and  O6_22 
REMARK    8  A    between atoms: C7_21  and  C15_23 
REMARK    9  A    between atoms: C15_23  and  N2_24 
REMARK   10  A    between atoms: N2_24  and  S_25 
REMARK   11  A    between atoms: N2_24  and  C16_36 
REMARK   12  A    between atoms: S_25  and  C18_28 
REMARK   13  A    between atoms: C21_31  and  O1_32 
REMARK   14  A    between atoms: C16_36  and  C17_37 
ROOT
ATOM      1  C6  DJR d          14.485  22.979  17.257  0.00  0.00     0.121 C 
ENDROOT
BRANCH   1   2
ATOM      2  N1  DJR d          13.543  22.149  17.953  0.00  0.00    -0.329 N 
ATOM      3  C4  DJR d          13.874  20.888  18.265  0.00  0.00     0.361 C 
ATOM      4  O5  DJR d          14.944  20.350  18.006  0.00  0.00    -0.238 OA
ATOM      5  H10 DJR d          12.645  22.510  18.204  0.00  0.00     0.165 HD
BRANCH   3   6
ATOM      6  O4  DJR d          12.833  20.315  18.884  0.00  0.00    -0.296 OA
BRANCH   6   7
ATOM      7  C5  DJR d          13.000  18.955  19.247  0.00  0.00     0.166 C 
ATOM      8  C   DJR d          11.933  18.193  18.530  0.00  0.00     0.075 C 
ATOM      9  C27 DJR d          10.619  18.152  19.264  0.00  0.00     0.266 C 
ATOM     10  C1  DJR d          11.733  18.569  17.069  0.00  0.00     0.038 C 
ATOM     11  O   DJR d          10.975  18.637  20.571  0.00  0.00    -0.358 OA
ATOM     12  O9  DJR d           9.874  19.073  18.455  0.00  0.00    -0.361 OA
ATOM     13  C3  DJR d          12.413  18.712  20.644  0.00  0.00     0.204 C 
ATOM     14  C2  DJR d          10.206  18.761  17.105  0.00  0.00     0.171 C 
ENDBRANCH   6   7
ENDBRANCH   3   6
ENDBRANCH   1   2
BRANCH   1  15
ATOM     15  C8  DJR d          13.846  23.549  15.964  0.00  0.00     0.066 C 
BRANCH  15  16
ATOM     16  C9  DJR d          13.352  22.415  15.070  0.00  0.00    -0.056 A 
ATOM     17  C11 DJR d          14.268  21.691  14.292  0.00  0.00     0.007 A 
ATOM     18  C13 DJR d          13.810  20.637  13.468  0.00  0.00     0.001 A 
ATOM     19  C14 DJR d          12.436  20.311  13.427  0.00  0.00     0.000 A 
ATOM     20  C12 DJR d          11.520  21.045  14.210  0.00  0.00     0.001 A 
ATOM     21  C10 DJR d          11.977  22.096  15.031  0.00  0.00     0.007 A 
ENDBRANCH  15  16
ENDBRANCH   1  15
BRANCH   1  22
ATOM     22  C7  DJR d          14.914  24.105  18.213  0.00  0.00     0.160 C 
BRANCH  22  23
ATOM     23  O6  DJR d          13.769  24.783  18.708  0.00  0.00    -0.392 OA
ATOM     24  H20 DJR d          14.043  25.476  19.297  0.00  0.00     0.210 HD
ENDBRANCH  22  23
BRANCH  22  25
ATOM     25  C15 DJR d          15.783  25.087  17.473  0.00  0.00     0.169 C 
BRANCH  25  26
ATOM     26  N2  DJR d          17.196  24.711  17.525  0.00  0.00    -0.304 N 
BRANCH  26  27
ATOM     27  S   DJR d          17.935  24.280  16.068  0.00  0.00     0.260 S 
ATOM     28  O8  DJR d          18.614  22.937  16.178  0.00  0.00    -0.200 OA
ATOM     29  O7  DJR d          16.843  24.053  15.051  0.00  0.00    -0.200 OA
BRANCH  27  30
ATOM     30  C18 DJR d          18.929  25.644  15.597  0.00  0.00     0.079 A 
ATOM     31  C23 DJR d          20.296  25.712  15.905  0.00  0.00     0.028 A 
ATOM     32  C22 DJR d          21.040  26.849  15.528  0.00  0.00     0.038 A 
ATOM     33  C21 DJR d          20.416  27.918  14.844  0.00  0.00     0.068 A 
ATOM     34  C20 DJR d          19.052  27.832  14.543  0.00  0.00     0.038 A 
ATOM     35  C19 DJR d          18.312  26.705  14.916  0.00  0.00     0.028 A 
BRANCH  33  36
ATOM     36  O1  DJR d          21.133  29.068  14.465  0.00  0.00    -0.356 OA
ATOM     37  C26 DJR d          22.528  29.097  14.813  0.00  0.00     0.210 C 
ENDBRANCH  33  36
ENDBRANCH  27  30
ENDBRANCH  26  27
BRANCH  26  38
ATOM     38  C16 DJR d          18.043  25.047  18.685  0.00  0.00     0.139 C 
BRANCH  38  39
ATOM     39  C17 DJR d          17.850  24.048  19.853  0.00  0.00    -0.004 C 
ATOM     40  C25 DJR d          18.868  24.374  20.959  0.00  0.00     0.011 C 
ATOM     41  C24 DJR d          18.074  22.601  19.374  0.00  0.00     0.011 C 
ENDBRANCH  38  39
ENDBRANCH  26  38
ENDBRANCH  25  26
ENDBRANCH  22  25
ENDBRANCH   1  22
TORSDOF 14
