REMARK  8 active torsions:
REMARK  status: ('A' for Active; 'I' for Inactive)
REMARK    1  A    between atoms: N7_7  and  C4_4 
REMARK    2  A    between atoms: C5_5  and  N18_18 
REMARK    3  A    between atoms: C6_6  and  O21_21 
REMARK    4  A    between atoms: C23_23  and  N7_7 
REMARK    5  A    between atoms: C24_24  and  C8_8 
REMARK    6  A    between atoms: C11_11  and  S14_14 
REMARK    7  A    between atoms: S14_14  and  N17_17 
REMARK    8  A    between atoms: C23_23  and  C24_24 
ROOT
ATOM      1  C23 JS7 d          -2.477   5.787  13.705  0.00  0.00     0.126 C 
ENDROOT
BRANCH   1   2
ATOM      2  N7  JS7 d          -2.127   6.908  12.936  0.00  0.00    -0.372 N 
ATOM      3  H2  JS7 d          -2.201   6.887  11.909  0.00  0.00     0.161 HD
BRANCH   2   4
ATOM      4  C4  JS7 d          -1.671   8.064  13.604  0.00  0.00     0.162 A 
ATOM      5  N3  JS7 d          -1.192   7.902  14.836  0.00  0.00    -0.222 NA
ATOM      6  C2  JS7 d          -0.728   8.931  15.516  0.00  0.00     0.238 A 
ATOM      7  N1  JS7 d          -0.712  10.154  14.995  0.00  0.00    -0.216 NA
ATOM      8  C6  JS7 d          -1.170  10.447  13.768  0.00  0.00     0.203 A 
ATOM      9  C5  JS7 d          -1.689   9.358  12.992  0.00  0.00     0.200 A 
BRANCH   8  10
ATOM     10  O21 JS7 d          -1.060  11.902  13.426  0.00  0.00    -0.337 OA
ATOM     11  C22 JS7 d           0.158  12.564  13.340  0.00  0.00     0.211 C 
ENDBRANCH   8  10
BRANCH   9  12
ATOM     12  N18 JS7 d          -2.266   9.462  11.573  0.00  0.00    -0.107 N 
ATOM     13  O19 JS7 d          -3.178  10.177  11.322  0.00  0.00    -0.531 OA
ATOM     14  O20 JS7 d          -1.731   8.733  10.576  0.00  0.00    -0.531 OA
ENDBRANCH   9  12
ENDBRANCH   2   4
ENDBRANCH   1   2
BRANCH   1  15
ATOM     15  C24 JS7 d          -3.996   5.841  13.776  0.00  0.00     0.058 C 
BRANCH  15  16
ATOM     16  C8  JS7 d          -4.378   4.592  14.508  0.00  0.00    -0.057 A 
ATOM     17  C9  JS7 d          -5.713   4.452  14.872  0.00  0.00     0.009 A 
ATOM     18  C10 JS7 d          -6.138   3.297  15.575  0.00  0.00     0.026 A 
ATOM     19  C11 JS7 d          -5.293   2.254  15.910  0.00  0.00     0.079 A 
ATOM     20  C12 JS7 d          -3.938   2.395  15.517  0.00  0.00     0.026 A 
ATOM     21  C13 JS7 d          -3.461   3.554  14.818  0.00  0.00     0.009 A 
BRANCH  19  22
ATOM     22  S14 JS7 d          -5.916   0.767  16.791  0.00  0.00     0.256 S 
ATOM     23  O15 JS7 d          -5.368   0.837  18.176  0.00  0.00    -0.201 OA
ATOM     24  O16 JS7 d          -7.479   0.865  16.618  0.00  0.00    -0.201 OA
BRANCH  22  25
ATOM     25  N17 JS7 d          -5.270  -0.493  15.929  0.00  0.00    -0.324 N 
ATOM     26  H7  JS7 d          -5.458  -1.436  16.204  0.00  0.00     0.169 HD
ATOM     27  H8  JS7 d          -4.692  -0.310  15.134  0.00  0.00     0.169 HD
ENDBRANCH  22  25
ENDBRANCH  19  22
ENDBRANCH  15  16
ENDBRANCH   1  15
TORSDOF 8
