REMARK  10 active torsions:
REMARK  status: ('A' for Active; 'I' for Inactive)
REMARK    1  A    between atoms: C17_6  and  C16_7 
REMARK    2  A    between atoms: C11_12  and  C10_13 
REMARK    3  A    between atoms: C10_13  and  N09_14 
REMARK    4  A    between atoms: N09_14  and  C03_15 
REMARK    5  A    between atoms: C03_15  and  C02_16 
REMARK    6  A    between atoms: C03_15  and  C04_19 
REMARK       I    between atoms: C02_16  and  N01_18 
REMARK    7  A    between atoms: C04_19  and  C05_20 
REMARK    8  A    between atoms: C05_20  and  C06_21 
REMARK    9  A    between atoms: C06_21  and  C07_22 
REMARK   10  A    between atoms: C07_22  and  N08_23 
ROOT
ATOM      1  N09 MOL d           2.791  37.015   9.797  0.00  0.00    -0.059 N 
ATOM      2  H11 MOL d           2.375  36.644   8.957  0.00  0.00     0.278 HD
ATOM      3  H12 MOL d           3.567  36.434  10.072  0.00  0.00     0.278 HD
ENDROOT
BRANCH   1   4
ATOM      4  C10 MOL d           1.796  37.097  10.876  0.00  0.00     0.271 C 
BRANCH   4   5
ATOM      5  C11 MOL d           1.306  35.858  11.230  0.00  0.00    -0.033 A 
ATOM      6  C14 MOL d           0.353  35.222  10.441  0.00  0.00     0.010 A 
ATOM      7  C15 MOL d          -0.133  33.976  10.832  0.00  0.00     0.013 A 
ATOM      8  C16 MOL d           0.323  33.396  12.012  0.00  0.00    -0.025 A 
ATOM      9  C13 MOL d           1.311  34.015  12.762  0.00  0.00     0.013 A 
ATOM     10  C12 MOL d           1.777  35.267  12.395  0.00  0.00     0.010 A 
BRANCH   8  11
ATOM     11  C17 MOL d          -0.118  32.137  12.387  0.00  0.00    -0.008 A 
ATOM     12  C18 MOL d           0.523  31.468  13.424  0.00  0.00     0.015 A 
ATOM     13  C19 MOL d           0.098  30.215  13.841  0.00  0.00     0.020 A 
ATOM     14  C20 MOL d          -1.032  29.653  13.260  0.00  0.00     0.116 A 
ATOM     15  N21 MOL d          -1.703  30.351  12.245  0.00  0.00    -0.272 NA
ATOM     16  C22 MOL d          -1.263  31.601  11.810  0.00  0.00     0.128 A 
ENDBRANCH   8  11
ENDBRANCH   4   5
ENDBRANCH   1   4
BRANCH   1  17
ATOM     17  C03 MOL d           3.230  38.403   9.589  0.00  0.00     0.277 C 
BRANCH  17  18
ATOM     18  C02 MOL d           3.798  38.951  10.920  0.00  0.00     0.246 C 
ATOM     19  O23 MOL d           3.242  39.880  11.511  0.00  0.00    -0.271 OA
ATOM     20  N01 MOL d           4.885  38.324  11.382  0.00  0.00    -0.368 N 
ATOM     21  H14 MOL d           5.309  38.622  12.237  0.00  0.00     0.159 HD
ATOM     22  H15 MOL d           5.274  37.557  10.872  0.00  0.00     0.159 HD
ENDBRANCH  17  18
BRANCH  17  23
ATOM     23  C04 MOL d           4.248  38.489   8.450  0.00  0.00     0.043 C 
BRANCH  23  24
ATOM     24  C05 MOL d           3.593  37.970   7.155  0.00  0.00     0.004 C 
BRANCH  24  25
ATOM     25  C06 MOL d           2.356  38.793   6.741  0.00  0.00     0.027 C 
BRANCH  25  26
ATOM     26  C07 MOL d           1.800  38.192   5.435  0.00  0.00     0.229 C 
BRANCH  26  27
ATOM     27  N08 MOL d           0.615  38.900   4.903  0.00  0.00    -0.079 N 
ATOM     28  H24 MOL d           0.310  38.452   4.053  0.00  0.00     0.274 HD
ATOM     29  H25 MOL d           0.856  39.860   4.710  0.00  0.00     0.274 HD
ATOM     30  H26 MOL d          -0.128  38.870   5.584  0.00  0.00     0.274 HD
ENDBRANCH  26  27
ENDBRANCH  25  26
ENDBRANCH  24  25
ENDBRANCH  23  24
ENDBRANCH  17  23
ENDBRANCH   1  17
TORSDOF 10
