REMARK  11 active torsions:
REMARK  status: ('A' for Active; 'I' for Inactive)
REMARK    1  A    between atoms: N_1  and  CA_2 
REMARK    2  A    between atoms: CA_2  and  C_3 
REMARK    3  A    between atoms: CA_2  and  CB_5 
REMARK       I    between atoms: C_3  and  N_9 
REMARK    4  A    between atoms: CB_5  and  CG_6 
REMARK    5  A    between atoms: CG_6  and  SD_7 
REMARK    6  A    between atoms: N_9  and  CA_10 
REMARK    7  A    between atoms: CA_10  and  C_11 
REMARK       I    between atoms: C_11  and  N_14 
REMARK    8  A    between atoms: N_14  and  CA_15 
REMARK    9  A    between atoms: CA_15  and  C_16 
REMARK   10  A    between atoms: CA_15  and  CB_18 
REMARK   11  A    between atoms: CB_18  and  OG_19 
ROOT
ATOM      1  C   MET d           8.944  -6.810 -16.849  0.00  0.00     0.249 C 
ATOM      2  O   MET d           8.803  -5.888 -16.055  0.00  0.00    -0.271 OA
ATOM      3  N   MET d           9.336  -6.619 -18.111  0.00  0.00    -0.346 N 
ATOM      4  H   MET d           9.496  -7.423 -18.684  0.00  0.00     0.163 HD
ENDROOT
BRANCH   3   5
ATOM      5  CA  MET d           9.548  -5.275 -18.711  0.00  0.00     0.172 C 
ATOM      6  CB  MET d           9.901  -5.481 -20.159  0.00  0.00     0.042 C 
BRANCH   5   7
ATOM      7  C   MET d           8.267  -4.473 -18.590  0.00  0.00     0.240 C 
ATOM      8  O   MET d           7.214  -5.052 -18.777  0.00  0.00    -0.271 OA
ATOM      9  N   MET d           8.343  -3.184 -18.280  0.00  0.00    -0.343 N 
ATOM     10  H   MET d           9.245  -2.759 -18.200  0.00  0.00     0.163 HD
BRANCH   9  11
ATOM     11  CA  MET d           7.159  -2.368 -18.052  0.00  0.00     0.209 C 
BRANCH  11  12
ATOM     12  C   MET d           6.685  -1.628 -19.291  0.00  0.00     0.198 C 
ATOM     13  O   MET d           7.342  -1.684 -20.350  0.00  0.00    -0.646 OA
ATOM     14  O1  MET d           5.622  -0.953 -19.249  0.00  0.00    -0.646 OA
ENDBRANCH  11  12
BRANCH  11  15
ATOM     15  CB  MET d           7.467  -1.309 -17.041  0.00  0.00     0.200 C 
BRANCH  15  16
ATOM     16  OG  MET d           8.170  -0.266 -17.662  0.00  0.00    -0.398 OA
ATOM     17  H   MET d           7.638   0.103 -18.358  0.00  0.00     0.209 HD
ENDBRANCH  15  16
ENDBRANCH  11  15
ENDBRANCH   9  11
ENDBRANCH   5   7
ENDBRANCH   3   5
BRANCH   1  18
ATOM     18  CA  MET d           8.680  -8.232 -16.392  0.00  0.00     0.275 C 
BRANCH  18  19
ATOM     19  N   MET d           9.008  -8.166 -14.972  0.00  0.00    -0.066 N 
ATOM     20  H   MET d           8.868  -9.072 -14.552  0.00  0.00     0.275 HD
ATOM     21  H   MET d           8.411  -7.491 -14.520  0.00  0.00     0.275 HD
ATOM     22  H   MET d           9.971  -7.890 -14.862  0.00  0.00     0.275 HD
ENDBRANCH  18  19
BRANCH  18  23
ATOM     23  CB  MET d           7.197  -8.595 -16.534  0.00  0.00     0.053 C 
BRANCH  23  24
ATOM     24  CG  MET d           6.921  -9.265 -17.833  0.00  0.00     0.076 C 
BRANCH  24  25
ATOM     25  SD  MET d           5.256  -9.779 -18.099  0.00  0.00    -0.173 SA
ATOM     26  CE  MET d           4.439  -8.225 -18.388  0.00  0.00     0.089 C 
ENDBRANCH  24  25
ENDBRANCH  23  24
ENDBRANCH  18  23
ENDBRANCH   1  18
TORSDOF 11
