REMARK  5 active torsions:
REMARK  status: ('A' for Active; 'I' for Inactive)
REMARK    1  A    between atoms: C1_1  and  N4_4 
REMARK       I    between atoms: N4_4  and  C7_7 
REMARK    2  A    between atoms: C5_5  and  N8_8 
REMARK       I    between atoms: C7_7  and  N9_9 
REMARK    3  A    between atoms: N9_9  and  C13_13 
REMARK    4  A    between atoms: C13_13  and  C14_14 
REMARK    5  A    between atoms: C19_19  and  O20_20 
ROOT
ATOM      1  N4  TMU d          23.817  23.186   6.822  0.00  0.00    -0.287 N 
ATOM      2  C7  TMU d          24.641  23.545   7.840  0.00  0.00     0.322 C 
ATOM      3  N9  TMU d          25.933  23.123   7.783  0.00  0.00    -0.339 N 
ATOM      4  O10 TMU d          24.236  24.233   8.780  0.00  0.00    -0.247 OA
ATOM      5  H1  TMU d          24.186  22.618   6.087  0.00  0.00     0.172 HD
ATOM      6  H3  TMU d          26.225  22.568   7.004  0.00  0.00     0.164 HD
ENDROOT
BRANCH   1   7
ATOM      7  C1  TMU d          22.489  23.571   6.756  0.00  0.00     0.176 A 
ATOM      8  S2  TMU d          21.537  24.434   7.929  0.00  0.00    -0.026 SA
ATOM      9  C5  TMU d          20.034  24.485   6.987  0.00  0.00     0.164 A 
ATOM     10  C6  TMU d          20.405  23.824   5.860  0.00  0.00     0.163 A 
ATOM     11  N3  TMU d          21.634  23.380   5.773  0.00  0.00    -0.234 NA
BRANCH   9  12
ATOM     12  N8  TMU d          18.749  25.091   7.353  0.00  0.00    -0.107 N 
ATOM     13  O11 TMU d          17.962  25.435   6.481  0.00  0.00    -0.531 OA
ATOM     14  O12 TMU d          18.481  25.265   8.527  0.00  0.00    -0.531 OA
ENDBRANCH   9  12
ENDBRANCH   1   7
BRANCH   3  15
ATOM     15  C13 TMU d          26.918  23.453   8.827  0.00  0.00     0.162 C 
BRANCH  15  16
ATOM     16  C14 TMU d          26.936  22.361   9.865  0.00  0.00    -0.040 A 
ATOM     17  C15 TMU d          26.823  21.002   9.475  0.00  0.00     0.011 A 
ATOM     18  C17 TMU d          26.836  19.985  10.450  0.00  0.00     0.037 A 
ATOM     19  C19 TMU d          26.964  20.324  11.825  0.00  0.00     0.068 A 
ATOM     20  C18 TMU d          27.076  21.691  12.207  0.00  0.00     0.037 A 
ATOM     21  C16 TMU d          27.062  22.701  11.227  0.00  0.00     0.011 A 
BRANCH  19  22
ATOM     22  O20 TMU d          26.971  19.338  12.779  0.00  0.00    -0.356 OA
ATOM     23  C21 TMU d          28.334  18.943  13.022  0.00  0.00     0.210 C 
ENDBRANCH  19  22
ENDBRANCH  15  16
ENDBRANCH   3  15
TORSDOF 5
