REMARK  4 active torsions:
REMARK  status: ('A' for Active; 'I' for Inactive)
REMARK    1  A    between atoms: C5_1  and  C3_7 
REMARK    2  A    between atoms: C7_3  and  O3_13 
REMARK    3  A    between atoms: C8_4  and  O2_19 
REMARK    4  A    between atoms: O3_13  and  C11_14 
ROOT
ATOM      1  C5  ROL d          32.388  75.367  22.066  0.00  0.00    -0.049 A 
ATOM      2  C6  ROL d          32.070  75.908  20.817  0.00  0.00     0.047 A 
ATOM      3  C7  ROL d          31.744  77.284  20.641  0.00  0.00     0.103 A 
ATOM      4  C8  ROL d          31.780  78.147  21.750  0.00  0.00     0.101 A 
ATOM      5  C9  ROL d          32.080  77.601  23.014  0.00  0.00     0.040 A 
ATOM      6  C10 ROL d          32.368  76.231  23.180  0.00  0.00     0.010 A 
ENDROOT
BRANCH   1   7
ATOM      7  C3  ROL d          32.714  73.882  22.146  0.00  0.00     0.045 C 
ATOM      8  C2  ROL d          34.024  73.489  22.868  0.00  0.00     0.113 C 
ATOM      9  C1  ROL d          33.570  72.439  23.895  0.00  0.00     0.218 C 
ATOM     10  O1  ROL d          34.276  71.994  24.798  0.00  0.00    -0.274 OA
ATOM     11  N1  ROL d          32.289  72.103  23.668  0.00  0.00    -0.360 N 
ATOM     12  C4  ROL d          31.612  73.095  22.846  0.00  0.00     0.132 C 
ATOM     13  H7  ROL d          31.855  71.274  24.020  0.00  0.00     0.162 HD
ENDBRANCH   1   7
BRANCH   3  14
ATOM     14  O3  ROL d          31.373  77.886  19.432  0.00  0.00    -0.343 OA
BRANCH  14  15
ATOM     15  C11 ROL d          31.164  77.076  18.268  0.00  0.00     0.129 C 
ATOM     16  C15 ROL d          32.503  76.793  17.587  0.00  0.00     0.032 C 
ATOM     17  C14 ROL d          32.832  78.118  16.910  0.00  0.00     0.002 C 
ATOM     18  C13 ROL d          31.486  78.666  16.447  0.00  0.00     0.002 C 
ATOM     19  C12 ROL d          30.415  77.902  17.218  0.00  0.00     0.032 C 
ENDBRANCH  14  15
ENDBRANCH   3  14
BRANCH   4  20
ATOM     20  O2  ROL d          31.502  79.488  21.488  0.00  0.00    -0.353 OA
ATOM     21  C16 ROL d          31.698  80.464  22.506  0.00  0.00     0.210 C 
ENDBRANCH   4  20
TORSDOF 4
