REMARK  16 active torsions:
REMARK  status: ('A' for Active; 'I' for Inactive)
REMARK    1  A    between atoms: C01_1  and  C10_13 
REMARK    2  A    between atoms: C03_3  and  O03_7 
REMARK    3  A    between atoms: C04_4  and  O04_9 
REMARK    4  A    between atoms: C05_5  and  O05_11 
REMARK    5  A    between atoms: C10_13  and  C11_14 
REMARK       I    between atoms: C11_14  and  N12_16 
REMARK    6  A    between atoms: C16_21  and  C17_22 
REMARK    7  A    between atoms: C17_22  and  O18_24 
REMARK    8  A    between atoms: O18_24  and  C18_25 
REMARK    9  A    between atoms: C18_25  and  C27_35 
REMARK   10  A    between atoms: C18_25  and  C19_26 
REMARK   11  A    between atoms: C19_26  and  C20_27 
REMARK   12  A    between atoms: C20_27  and  C21_28 
REMARK   13  A    between atoms: C21_28  and  C22_29 
REMARK   14  A    between atoms: C27_35  and  C28_36 
REMARK   15  A    between atoms: C28_36  and  C29_37 
REMARK   16  A    between atoms: C29_37  and  C30_38 
ROOT
ATOM      1  C11 MOL d          26.460  11.880  23.441  0.00  0.00     0.298 C 
ATOM      2  O11 MOL d          26.822  10.747  23.163  0.00  0.00    -0.266 OA
ATOM      3  N12 MOL d          26.958  12.941  22.761  0.00  0.00    -0.333 N 
ATOM      4  C12 MOL d          26.680  14.371  23.122  0.00  0.00     0.127 C 
ATOM      5  C13 MOL d          26.326  15.255  21.885  0.00  0.00     0.020 C 
ATOM      6  C14 MOL d          27.344  15.061  20.741  0.00  0.00     0.004 C 
ATOM      7  C15 MOL d          27.564  13.571  20.408  0.00  0.00     0.035 C 
ATOM      8  C16 MOL d          27.938  12.754  21.659  0.00  0.00     0.187 C 
ENDROOT
BRANCH   8   9
ATOM      9  C17 MOL d          29.320  13.158  22.147  0.00  0.00     0.282 C 
ATOM     10  O17 MOL d          30.235  13.267  21.354  0.00  0.00    -0.263 OA
BRANCH   9  11
ATOM     11  O18 MOL d          29.567  13.406  23.456  0.00  0.00    -0.314 OA
BRANCH  11  12
ATOM     12  C18 MOL d          30.921  13.770  23.757  0.00  0.00     0.132 C 
BRANCH  12  13
ATOM     13  C27 MOL d          30.983  15.038  24.632  0.00  0.00     0.033 C 
BRANCH  13  14
ATOM     14  C28 MOL d          29.607  15.614  24.881  0.00  0.00     0.007 C 
BRANCH  14  15
ATOM     15  C29 MOL d          29.219  15.326  26.330  0.00  0.00     0.038 C 
BRANCH  15  16
ATOM     16  C30 MOL d          28.253  16.389  26.784  0.00  0.00    -0.058 A 
ATOM     17  C35 MOL d          28.561  17.186  27.889  0.00  0.00     0.007 A 
ATOM     18  C34 MOL d          27.662  18.169  28.307  0.00  0.00     0.001 A 
ATOM     19  C33 MOL d          26.454  18.360  27.617  0.00  0.00     0.000 A 
ATOM     20  C32 MOL d          26.148  17.559  26.509  0.00  0.00     0.001 A 
ATOM     21  C31 MOL d          27.048  16.577  26.093  0.00  0.00     0.007 A 
ENDBRANCH  15  16
ENDBRANCH  14  15
ENDBRANCH  13  14
ENDBRANCH  12  13
BRANCH  12  22
ATOM     22  C19 MOL d          31.603  12.604  24.468  0.00  0.00     0.033 C 
BRANCH  22  23
ATOM     23  C20 MOL d          33.010  13.010  24.940  0.00  0.00     0.007 C 
BRANCH  23  24
ATOM     24  C21 MOL d          33.954  11.846  24.721  0.00  0.00     0.040 C 
BRANCH  24  25
ATOM     25  C22 MOL d          34.617  11.998  23.378  0.00  0.00    -0.041 A 
ATOM     26  C26 MOL d          34.371  11.062  22.354  0.00  0.00     0.010 A 
ATOM     27  C25 MOL d          35.064  11.161  21.140  0.00  0.00     0.020 A 
ATOM     28  C24 MOL d          35.987  12.205  20.983  0.00  0.00     0.116 A 
ATOM     29  N23 MOL d          36.204  13.109  21.980  0.00  0.00    -0.273 NA
ATOM     30  C23 MOL d          35.552  13.034  23.155  0.00  0.00     0.123 A 
ENDBRANCH  24  25
ENDBRANCH  23  24
ENDBRANCH  22  23
ENDBRANCH  12  22
ENDBRANCH  11  12
ENDBRANCH   9  11
ENDBRANCH   8   9
BRANCH   1  31
ATOM     31  C10 MOL d          25.502  12.055  24.548  0.00  0.00     0.350 C 
ATOM     32  F10 MOL d          24.509  12.877  24.144  0.00  0.00    -0.190 F 
ATOM     33  F11 MOL d          24.945  10.855  24.781  0.00  0.00    -0.190 F 
BRANCH  31  34
ATOM     34  C01 MOL d          26.108  12.501  25.848  0.00  0.00     0.028 A 
ATOM     35  C06 MOL d          27.300  11.861  26.289  0.00  0.00     0.053 A 
ATOM     36  C05 MOL d          27.879  12.190  27.538  0.00  0.00     0.105 A 
ATOM     37  C04 MOL d          27.271  13.166  28.347  0.00  0.00     0.135 A 
ATOM     38  C03 MOL d          26.077  13.812  27.910  0.00  0.00     0.105 A 
ATOM     39  C02 MOL d          25.498  13.476  26.660  0.00  0.00     0.053 A 
BRANCH  36  40
ATOM     40  O05 MOL d          29.004  11.523  28.001  0.00  0.00    -0.353 OA
ATOM     41  C09 MOL d          29.839  10.812  27.079  0.00  0.00     0.210 C 
ENDBRANCH  36  40
BRANCH  37  42
ATOM     42  O04 MOL d          27.862  13.516  29.556  0.00  0.00    -0.351 OA
ATOM     43  C08 MOL d          27.081  13.366  30.766  0.00  0.00     0.210 C 
ENDBRANCH  37  42
BRANCH  38  44
ATOM     44  O03 MOL d          25.493  14.769  28.709  0.00  0.00    -0.353 OA
ATOM     45  C07 MOL d          24.318  15.454  28.253  0.00  0.00     0.210 C 
ENDBRANCH  38  44
ENDBRANCH  31  34
ENDBRANCH   1  31
TORSDOF 16
