REMARK  3 active torsions:
REMARK  status: ('A' for Active; 'I' for Inactive)
REMARK    1  A    between atoms: C5C_2  and  C6_17 
REMARK    2  A    between atoms: C6C_3  and  C7C_4 
REMARK    3  A    between atoms: C1D_7  and  C7D_13 
ROOT
ATOM      1  N4C MOL d         -40.752  18.464  16.060  0.00  0.00    -0.333 N 
ATOM      2  C5C MOL d         -41.974  18.869  15.694  0.00  0.00     0.147 A 
ATOM      3  C6C MOL d         -42.219  18.406  14.384  0.00  0.00     0.169 A 
ATOM      4  C7D MOL d         -40.229  17.762  15.018  0.00  0.00     0.139 A 
ATOM      5  N3  MOL d         -41.144  17.706  14.010  0.00  0.00    -0.221 NA
ATOM      6  H1  MOL d         -40.292  18.649  16.963  0.00  0.00     0.168 HD
ENDROOT
BRANCH   4   7
ATOM      7  C1D MOL d         -38.999  17.096  14.963  0.00  0.00     0.010 A 
ATOM      8  C2D MOL d         -38.457  16.502  16.114  0.00  0.00     0.015 A 
ATOM      9  C3D MOL d         -37.250  15.798  16.070  0.00  0.00     0.001 A 
ATOM     10  C4D MOL d         -36.574  15.642  14.853  0.00  0.00     0.000 A 
ATOM     11  C5D MOL d         -37.136  16.212  13.711  0.00  0.00     0.001 A 
ATOM     12  C6D MOL d         -38.342  16.925  13.760  0.00  0.00     0.015 A 
ENDBRANCH   4   7
BRANCH   2  13
ATOM     13  C6  MOL d         -42.913  19.729  16.569  0.00  0.00     0.229 C 
ATOM     14  O   MOL d         -43.841  20.357  16.042  0.00  0.00    -0.643 OA
ATOM     15  O2  MOL d         -42.739  19.828  17.796  0.00  0.00    -0.643 OA
ENDBRANCH   2  13
BRANCH   3  16
ATOM     16  C7C MOL d         -43.481  18.587  13.493  0.00  0.00     0.231 C 
ATOM     17  O8C MOL d         -44.595  18.654  14.012  0.00  0.00    -0.643 OA
ATOM     18  O9C MOL d         -43.412  18.558  12.256  0.00  0.00    -0.643 OA
ENDBRANCH   3  16
TORSDOF 3
