REMARK  7 active torsions:
REMARK  status: ('A' for Active; 'I' for Inactive)
REMARK    1  A    between atoms: P_1  and  O5'_5 
REMARK    2  A    between atoms: O5'_5  and  C5'_6 
REMARK    3  A    between atoms: C5'_6  and  C4'_7 
REMARK    4  A    between atoms: C3'_9  and  O3'_10 
REMARK    5  A    between atoms: C1'_12  and  N1_13 
REMARK    6  A    between atoms: C5_19  and  C5A_20 
REMARK    7  A    between atoms: C5A_20  and  O5B_22 
ROOT
ATOM      1  C4' MOL d          23.937  12.428   7.521  0.00  0.00     0.177 C 
ATOM      2  O4' MOL d          23.831  11.013   7.711  0.00  0.00    -0.356 OA
ATOM      3  C3' MOL d          22.949  12.897   8.652  0.00  0.00     0.153 C 
ATOM      4  C2' MOL d          23.502  11.932   9.749  0.00  0.00     0.088 C 
ATOM      5  C1' MOL d          23.551  10.629   9.042  0.00  0.00     0.235 C 
ENDROOT
BRANCH   5   6
ATOM      6  N1  MOL d          24.582   9.632   9.383  0.00  0.00    -0.282 N 
ATOM      7  C2  MOL d          24.098   8.369   9.646  0.00  0.00     0.330 A 
ATOM      8  O2  MOL d          22.830   8.136   9.576  0.00  0.00    -0.246 OA
ATOM      9  N3  MOL d          24.918   7.363   9.978  0.00  0.00    -0.286 N 
ATOM     10  C4  MOL d          26.248   7.575  10.059  0.00  0.00     0.192 A 
ATOM     11  H9  MOL d          24.544   6.455  10.166  0.00  0.00     0.172 HD
ATOM     12  O4  MOL d          27.021   6.550  10.393  0.00  0.00    -0.171 OA
ATOM     13  C5  MOL d          26.801   8.851   9.795  0.00  0.00     0.035 A 
ATOM     14  C6  MOL d          25.923   9.880   9.454  0.00  0.00     0.112 A 
BRANCH  13  15
ATOM     15  C5A MOL d          28.283   9.041   9.890  0.00  0.00     0.208 C 
BRANCH  15  16
ATOM     16  O5B MOL d          28.639   8.853   8.917  0.00  0.00    -0.396 OA
ATOM     17  H13 MOL d          29.583   8.956   8.901  0.00  0.00     0.209 HD
ENDBRANCH  15  16
ENDBRANCH  13  15
ENDBRANCH   5   6
BRANCH   1  18
ATOM     18  C5' MOL d          25.344  13.054   7.345  0.00  0.00     0.217 C 
BRANCH  18  19
ATOM     19  O5' MOL d          25.351  14.179   8.129  0.00  0.00    -0.280 OA
BRANCH  19  20
ATOM     20  P   MOL d          26.429  15.281   8.373  0.00  0.00     0.422 P 
ATOM     21  O1P MOL d          27.421  14.840   9.555  0.00  0.00    -0.617 OA
ATOM     22  O2P MOL d          25.545  16.639   8.835  0.00  0.00    -0.617 OA
ATOM     23  O3P MOL d          27.272  15.644   6.985  0.00  0.00    -0.617 OA
ENDBRANCH  19  20
ENDBRANCH  18  19
ENDBRANCH   1  18
BRANCH   3  24
ATOM     24  O3' MOL d          21.484  13.119   8.436  0.00  0.00    -0.393 OA
ATOM     25  H5  MOL d          21.084  13.398   9.251  0.00  0.00     0.210 HD
ENDBRANCH   3  24
TORSDOF 7
