REMARK  23 active torsions:
REMARK  status: ('A' for Active; 'I' for Inactive)
REMARK       I    between atoms: C21_2  and  N3_3 
REMARK    1  A    between atoms: C21_2  and  C22_37 
REMARK    2  A    between atoms: N3_3  and  C20_4 
REMARK    3  A    between atoms: C20_4  and  C19_5 
REMARK    4  A    between atoms: C19_5  and  O8_6 
REMARK    5  A    between atoms: O8_6  and  C18_7 
REMARK    6  A    between atoms: C13_12  and  C_13 
REMARK       I    between atoms: C_13  and  N_14 
REMARK    7  A    between atoms: N_14  and  C1_15 
REMARK    8  A    between atoms: C1_15  and  C2_16 
REMARK    9  A    between atoms: C2_16  and  C3_17 
REMARK   10  A    between atoms: C3_17  and  C4_18 
REMARK   11  A    between atoms: C4_18  and  C5_19 
REMARK   12  A    between atoms: C5_19  and  N1_20 
REMARK   13  A    between atoms: C5_19  and  C6_33 
REMARK       I    between atoms: N1_20  and  C7_21 
REMARK       I    between atoms: C7_21  and  N2_23 
REMARK   14  A    between atoms: N2_23  and  C8_24 
REMARK   15  A    between atoms: C8_24  and  C12_25 
REMARK   16  A    between atoms: C8_24  and  C9_28 
REMARK   17  A    between atoms: C9_28  and  C10_29 
REMARK   18  A    between atoms: C10_29  and  C11_30 
REMARK   19  A    between atoms: C22_37  and  C23_38 
REMARK   20  A    between atoms: C23_38  and  O9_39 
REMARK   21  A    between atoms: O9_39  and  C24_40 
REMARK   22  A    between atoms: C24_40  and  C25_41 
REMARK   23  A    between atoms: C25_41  and  O10_42 
ROOT
ATOM      1  C   J31 d         -25.490 -16.656 -43.079  0.00  0.00     0.254 C 
ATOM      2  N   J31 d         -24.345 -17.268 -43.377  0.00  0.00    -0.357 N 
ATOM      3  O   J31 d         -25.769 -16.390 -41.895  0.00  0.00    -0.268 OA
ATOM      4  H   J31 d         -24.128 -17.401 -44.344  0.00  0.00     0.162 HD
ENDROOT
BRANCH   2   5
ATOM      5  C1  J31 d         -23.376 -17.762 -42.386  0.00  0.00     0.123 C 
BRANCH   5   6
ATOM      6  C2  J31 d         -23.119 -19.262 -42.470  0.00  0.00     0.020 C 
BRANCH   6   7
ATOM      7  C3  J31 d         -22.347 -19.640 -43.748  0.00  0.00     0.004 C 
BRANCH   7   8
ATOM      8  C4  J31 d         -20.874 -19.416 -43.589  0.00  0.00     0.036 C 
BRANCH   8   9
ATOM      9  C5  J31 d         -19.989 -20.108 -44.639  0.00  0.00     0.187 C 
BRANCH   9  10
ATOM     10  N1  J31 d         -18.670 -19.814 -44.196  0.00  0.00    -0.329 N 
ATOM     11  C7  J31 d         -17.936 -20.611 -43.427  0.00  0.00     0.317 C 
ATOM     12  O7  J31 d         -18.400 -21.656 -42.941  0.00  0.00    -0.247 OA
ATOM     13  N2  J31 d         -16.685 -20.233 -43.124  0.00  0.00    -0.329 N 
ATOM     14  H   J31 d         -16.182 -19.607 -43.720  0.00  0.00     0.165 HD
ATOM     15  H   J31 d         -18.266 -18.946 -44.484  0.00  0.00     0.165 HD
BRANCH  13  16
ATOM     16  C8  J31 d         -16.072 -20.756 -41.904  0.00  0.00     0.187 C 
BRANCH  16  17
ATOM     17  C12 J31 d         -17.010 -20.633 -40.716  0.00  0.00     0.196 C 
ATOM     18  O6  J31 d         -16.879 -21.393 -39.735  0.00  0.00    -0.646 OA
ATOM     19  O5  J31 d         -17.946 -19.724 -40.723  0.00  0.00    -0.646 OA
ENDBRANCH  16  17
BRANCH  16  20
ATOM     20  C9  J31 d         -14.751 -20.026 -41.519  0.00  0.00     0.046 C 
BRANCH  20  21
ATOM     21  C10 J31 d         -15.031 -18.505 -41.361  0.00  0.00     0.116 C 
BRANCH  21  22
ATOM     22  C11 J31 d         -13.874 -17.757 -40.782  0.00  0.00     0.172 C 
ATOM     23  O4  J31 d         -13.752 -16.525 -41.010  0.00  0.00    -0.648 OA
ATOM     24  O3  J31 d         -13.005 -18.374 -40.011  0.00  0.00    -0.648 OA
ENDBRANCH  21  22
ENDBRANCH  20  21
ENDBRANCH  16  20
ENDBRANCH  13  16
ENDBRANCH   9  10
BRANCH   9  25
ATOM     25  C6  J31 d         -20.201 -19.491 -45.999  0.00  0.00     0.196 C 
ATOM     26  O2  J31 d         -19.593 -18.365 -46.301  0.00  0.00    -0.646 OA
ATOM     27  O1  J31 d         -20.785 -20.064 -46.906  0.00  0.00    -0.646 OA
ENDBRANCH   9  25
ENDBRANCH   8   9
ENDBRANCH   7   8
ENDBRANCH   6   7
ENDBRANCH   5   6
ENDBRANCH   2   5
BRANCH   1  28
ATOM     28  C13 J31 d         -26.324 -16.255 -44.292  0.00  0.00     0.065 A 
ATOM     29  C18 J31 d         -26.302 -14.942 -44.765  0.00  0.00     0.084 A 
ATOM     30  C17 J31 d         -27.016 -14.555 -45.909  0.00  0.00     0.038 A 
ATOM     31  C16 J31 d         -27.760 -15.523 -46.612  0.00  0.00     0.003 A 
ATOM     32  C15 J31 d         -27.758 -16.831 -46.134  0.00  0.00     0.001 A 
ATOM     33  C14 J31 d         -27.056 -17.195 -44.989  0.00  0.00     0.020 A 
BRANCH  29  34
ATOM     34  O8  J31 d         -25.556 -14.049 -44.038  0.00  0.00    -0.348 OA
BRANCH  34  35
ATOM     35  C19 J31 d         -25.443 -12.673 -44.427  0.00  0.00     0.195 C 
BRANCH  35  36
ATOM     36  C20 J31 d         -24.702 -11.934 -43.346  0.00  0.00     0.149 C 
BRANCH  36  37
ATOM     37  N3  J31 d         -25.495 -11.786 -42.160  0.00  0.00    -0.359 N 
ATOM     38  C21 J31 d         -26.332 -10.757 -41.992  0.00  0.00     0.219 C 
ATOM     39  O23 J31 d         -26.532  -9.870 -42.842  0.00  0.00    -0.274 OA
ATOM     40  H   J31 d         -25.420 -12.473 -41.437  0.00  0.00     0.162 HD
BRANCH  38  41
ATOM     41  C22 J31 d         -27.047 -10.663 -40.665  0.00  0.00     0.129 C 
BRANCH  41  42
ATOM     42  C23 J31 d         -28.469 -10.119 -40.851  0.00  0.00     0.177 C 
BRANCH  42  43
ATOM     43  O9  J31 d         -29.034  -9.804 -39.568  0.00  0.00    -0.389 OA
BRANCH  43  44
ATOM     44  C24 J31 d         -30.480  -9.789 -39.498  0.00  0.00     0.193 C 
BRANCH  44  45
ATOM     45  C25 J31 d         -31.013  -8.736 -38.517  0.00  0.00     0.190 C 
BRANCH  45  46
ATOM     46  O10 J31 d         -30.137  -7.607 -38.418  0.00  0.00    -0.399 OA
ATOM     47  H   J31 d         -29.285  -7.895 -38.113  0.00  0.00     0.209 HD
ENDBRANCH  45  46
ENDBRANCH  44  45
ENDBRANCH  43  44
ENDBRANCH  42  43
ENDBRANCH  41  42
ENDBRANCH  38  41
ENDBRANCH  36  37
ENDBRANCH  35  36
ENDBRANCH  34  35
ENDBRANCH  29  34
ENDBRANCH   1  28
TORSDOF 23
