REMARK  7 active torsions:
REMARK  status: ('A' for Active; 'I' for Inactive)
REMARK    1  A    between atoms: N01_1  and  C02_2 
REMARK    2  A    between atoms: C05_5  and  C06_6 
REMARK       I    between atoms: C06_6  and  N07_7 
REMARK    3  A    between atoms: C08_8  and  C09_9 
REMARK       I    between atoms: C09_9  and  N10_10 
REMARK    4  A    between atoms: N10_10  and  C11_11 
REMARK    5  A    between atoms: C11_11  and  C12_12 
REMARK    6  A    between atoms: C15_15  and  C16_16 
REMARK    7  A    between atoms: C26_26  and  O27_27 
ROOT
ATOM      1  C06 TG0 d          -7.011  35.123  -0.603  0.00  0.00     0.255 C 
ATOM      2  N07 TG0 d          -7.455  34.119   0.346  0.00  0.00    -0.332 N 
ATOM      3  C08 TG0 d          -7.694  34.362   1.765  0.00  0.00     0.182 C 
ATOM      4  C25 TG0 d          -8.028  33.051   2.394  0.00  0.00     0.068 C 
ATOM      5  C26 TG0 d          -8.568  32.301   1.246  0.00  0.00     0.138 C 
ATOM      6  C28 TG0 d          -7.738  32.705   0.056  0.00  0.00     0.159 C 
ATOM      7  O29 TG0 d          -6.835  36.295  -0.260  0.00  0.00    -0.267 OA
ENDROOT
BRANCH   3   8
ATOM      8  C09 TG0 d          -6.461  34.910   2.474  0.00  0.00     0.241 C 
ATOM      9  N10 TG0 d          -6.659  35.847   3.549  0.00  0.00    -0.355 N 
ATOM     10  H7  TG0 d          -7.572  36.166   3.804  0.00  0.00     0.162 HD
ATOM     11  O24 TG0 d          -5.317  34.545   2.171  0.00  0.00    -0.271 OA
BRANCH   9  12
ATOM     12  C11 TG0 d          -5.472  36.308   4.246  0.00  0.00     0.161 C 
BRANCH  12  13
ATOM     13  C12 TG0 d          -5.233  35.392   5.445  0.00  0.00    -0.040 A 
ATOM     14  C13 TG0 d          -3.981  35.437   6.088  0.00  0.00     0.010 A 
ATOM     15  C14 TG0 d          -3.769  34.618   7.206  0.00  0.00     0.013 A 
ATOM     16  C15 TG0 d          -4.781  33.751   7.665  0.00  0.00    -0.017 A 
ATOM     17  C22 TG0 d          -6.010  33.679   6.999  0.00  0.00     0.013 A 
ATOM     18  C23 TG0 d          -6.251  34.539   5.926  0.00  0.00     0.010 A 
BRANCH  16  19
ATOM     19  C16 TG0 d          -4.574  32.924   8.912  0.00  0.00     0.036 A 
ATOM     20  C17 TG0 d          -4.037  33.418  10.152  0.00  0.00     0.044 A 
ATOM     21  C18 TG0 d          -3.510  34.791  10.449  0.00  0.00     0.071 C 
ATOM     22  N19 TG0 d          -4.042  32.335  11.146  0.00  0.00    -0.274 NA
ATOM     23  C20 TG0 d          -4.593  31.166  10.652  0.00  0.00     0.209 A 
ATOM     24  S21 TG0 d          -5.032  31.383   9.102  0.00  0.00    -0.096 SA
ENDBRANCH  16  19
ENDBRANCH  12  13
ENDBRANCH   9  12
ENDBRANCH   3   8
BRANCH   1  25
ATOM     25  C05 TG0 d          -6.791  34.697  -2.038  0.00  0.00     0.040 A 
ATOM     26  C03 TG0 d          -5.626  33.980  -2.421  0.00  0.00    -0.020 A 
ATOM     27  C02 TG0 d          -5.500  33.622  -3.789  0.00  0.00     0.032 A 
ATOM     28  C04 TG0 d          -4.544  33.659  -1.425  0.00  0.00     0.052 C 
ATOM     29  C32 TG0 d          -6.525  33.911  -4.687  0.00  0.00     0.029 A 
ATOM     30  C31 TG0 d          -7.659  34.627  -4.292  0.00  0.00     0.003 A 
ATOM     31  C30 TG0 d          -7.817  34.977  -2.949  0.00  0.00     0.018 A 
BRANCH  27  32
ATOM     32  N01 TG0 d          -4.361  32.901  -4.307  0.00  0.00    -0.399 N 
ATOM     33  H1  TG0 d          -4.314  32.663  -5.308  0.00  0.00     0.156 HD
ATOM     34  H2  TG0 d          -3.596  32.625  -3.675  0.00  0.00     0.156 HD
ENDBRANCH  27  32
ENDBRANCH   1  25
BRANCH   5  35
ATOM     35  O27 TG0 d          -9.910  32.630   1.031  0.00  0.00    -0.394 OA
ATOM     36  H21 TG0 d         -10.241  32.138   0.289  0.00  0.00     0.210 HD
ENDBRANCH   5  35
TORSDOF 7
