REMARK  3 active torsions:
REMARK  status: ('A' for Active; 'I' for Inactive)
REMARK    1  A    between atoms: C1_1  and  C8_8 
REMARK    2  A    between atoms: C4_4  and  C7_7 
REMARK    3  A    between atoms: C7_7  and  N_9 
ROOT
ATOM      1  C1  AMH d          21.909  -3.567  40.823  0.00  0.00     0.087 C 
ATOM      2  C2  AMH d          22.052  -2.298  40.092  0.00  0.00     0.015 C 
ATOM      3  C3  AMH d          20.743  -1.600  39.902  0.00  0.00     0.007 C 
ATOM      4  C4  AMH d          19.841  -1.657  41.062  0.00  0.00     0.011 C 
ATOM      5  C5  AMH d          19.730  -2.992  41.789  0.00  0.00     0.007 C 
ATOM      6  C6  AMH d          21.041  -3.686  42.022  0.00  0.00     0.015 C 
ENDROOT
BRANCH   4   7
ATOM      7  C7  AMH d          18.371  -1.016  40.859  0.00  0.00     0.234 C 
BRANCH   7   8
ATOM      8  N   AMH d          18.128  -0.502  42.164  0.00  0.00    -0.079 N 
ATOM      9  H13 AMH d          17.222  -0.061  42.188  0.00  0.00     0.274 HD
ATOM     10  H14 AMH d          18.837   0.176  42.396  0.00  0.00     0.274 HD
ATOM     11  H15 AMH d          18.153  -1.256  42.832  0.00  0.00     0.274 HD
ENDBRANCH   7   8
ENDBRANCH   4   7
BRANCH   1  12
ATOM     12  C8  AMH d          23.001  -4.615  40.747  0.00  0.00     0.177 C 
ATOM     13  O2  AMH d          22.578  -5.763  40.366  0.00  0.00    -0.648 OA
ATOM     14  O1  AMH d          24.200  -4.464  40.957  0.00  0.00    -0.648 OA
ENDBRANCH   1  12
TORSDOF 3
