REMARK  0 active torsions:
REMARK  status: ('A' for Active; 'I' for Inactive)
ROOT
ATOM      1  O01 KKN d          88.879 -54.054 -28.390  0.00  0.00    -0.357 OA
ATOM      2  C02 KKN d          88.384 -53.032 -27.511  0.00  0.00     0.240 A 
ATOM      3  C03 KKN d          87.151 -53.335 -26.703  0.00  0.00     0.088 A 
ATOM      4  C04 KKN d          86.502 -54.587 -26.808  0.00  0.00    -0.011 A 
ATOM      5  C05 KKN d          86.999 -55.618 -27.692  0.00  0.00     0.034 A 
ATOM      6  C06 KKN d          88.209 -55.327 -28.487  0.00  0.00     0.135 A 
ATOM      7  C07 KKN d          85.357 -54.613 -25.932  0.00  0.00     0.117 A 
ATOM      8  C08 KKN d          85.342 -53.306 -25.284  0.00  0.00     0.272 A 
ATOM      9  O09 KKN d          84.534 -52.907 -24.462  0.00  0.00    -0.264 OA
ATOM     10  O10 KKN d          86.487 -52.457 -25.761  0.00  0.00    -0.280 OA
ATOM     11  C11 KKN d          84.396 -55.741 -25.734  0.00  0.00     0.025 C 
ENDROOT
TORSDOF 0
