REMARK  14 active torsions:
REMARK  status: ('A' for Active; 'I' for Inactive)
REMARK    1  A    between atoms: C2_2  and  N1_1 
REMARK    2  A    between atoms: S8_8  and  C5_5 
REMARK    3  A    between atoms: N11_11  and  S8_8 
REMARK    4  A    between atoms: N11_11  and  C12_12 
REMARK    5  A    between atoms: C16_16  and  N11_11 
REMARK    6  A    between atoms: C12_12  and  C13_13 
REMARK    7  A    between atoms: C17_17  and  C16_16 
REMARK    8  A    between atoms: C17_17  and  O18_18 
REMARK    9  A    between atoms: C19_19  and  C17_17 
REMARK   10  A    between atoms: C19_19  and  N20_20 
REMARK   11  A    between atoms: C32_32  and  C19_19 
REMARK       I    between atoms: N20_20  and  C21_21 
REMARK   12  A    between atoms: C21_21  and  O23_23 
REMARK   13  A    between atoms: O23_23  and  C24_24 
REMARK   14  A    between atoms: C38_38  and  C32_32 
ROOT
ATOM      1  C17 MOL d          19.898  29.257  15.584  0.00  0.00     0.155 C 
ENDROOT
BRANCH   1   2
ATOM      2  C16 MOL d          19.037  30.405  16.098  0.00  0.00     0.141 C 
BRANCH   2   3
ATOM      3  N11 MOL d          19.342  31.668  15.393  0.00  0.00    -0.204 NA
BRANCH   3   4
ATOM      4  S8  MOL d          18.060  32.275  14.601  0.00  0.00     0.243 S 
ATOM      5  O9  MOL d          17.387  31.172  13.976  0.00  0.00    -0.206 OA
ATOM      6  O10 MOL d          18.604  33.218  13.667  0.00  0.00    -0.206 OA
BRANCH   4   7
ATOM      7  C5  MOL d          16.995  33.006  15.593  0.00  0.00     0.074 A 
ATOM      8  C4  MOL d          15.924  32.287  16.136  0.00  0.00     0.027 A 
ATOM      9  C3  MOL d          14.982  32.870  16.991  0.00  0.00     0.030 A 
ATOM     10  C2  MOL d          15.140  34.197  17.364  0.00  0.00     0.025 A 
ATOM     11  C7  MOL d          16.198  34.932  16.831  0.00  0.00     0.030 A 
ATOM     12  C6  MOL d          17.128  34.335  15.976  0.00  0.00     0.027 A 
BRANCH  10  13
ATOM     13  N1  MOL d          14.259  34.787  18.209  0.00  0.00    -0.399 N 
ATOM     14  H1  MOL d          13.478  34.242  18.602  0.00  0.00     0.156 HD
ATOM     15  H2  MOL d          14.371  35.780  18.458  0.00  0.00     0.156 HD
ENDBRANCH  10  13
ENDBRANCH   4   7
ENDBRANCH   3   4
BRANCH   3  16
ATOM     16  C12 MOL d          20.012  32.682  16.237  0.00  0.00     0.111 C 
BRANCH  16  17
ATOM     17  C13 MOL d          21.495  32.365  16.441  0.00  0.00    -0.009 C 
ATOM     18  C14 MOL d          22.242  32.255  15.113  0.00  0.00     0.011 C 
ATOM     19  C15 MOL d          22.199  33.405  17.304  0.00  0.00     0.011 C 
ENDBRANCH  16  17
ENDBRANCH   3  16
ENDBRANCH   2   3
ENDBRANCH   1   2
BRANCH   1  20
ATOM     20  O18 MOL d          19.855  28.113  16.462  0.00  0.00    -0.392 OA
ATOM     21  H19 MOL d          20.175  28.362  17.321  0.00  0.00     0.210 HD
ENDBRANCH   1  20
BRANCH   1  22
ATOM     22  C19 MOL d          19.535  28.811  14.165  0.00  0.00     0.120 C 
BRANCH  22  23
ATOM     23  N20 MOL d          20.635  28.018  13.682  0.00  0.00    -0.329 N 
ATOM     24  C21 MOL d          21.524  28.364  12.742  0.00  0.00     0.361 C 
ATOM     25  O22 MOL d          21.599  29.404  12.117  0.00  0.00    -0.238 OA
ATOM     26  H21 MOL d          20.747  27.113  14.092  0.00  0.00     0.165 HD
BRANCH  24  27
ATOM     27  O23 MOL d          22.519  27.347  12.531  0.00  0.00    -0.296 OA
BRANCH  27  28
ATOM     28  C24 MOL d          23.385  27.459  11.405  0.00  0.00     0.166 C 
ATOM     29  C25 MOL d          24.709  26.909  11.894  0.00  0.00     0.204 C 
ATOM     30  O26 MOL d          24.531  25.492  11.820  0.00  0.00    -0.358 OA
ATOM     31  C27 MOL d          23.664  25.199  10.723  0.00  0.00     0.266 C 
ATOM     32  O28 MOL d          22.644  24.271  11.072  0.00  0.00    -0.361 OA
ATOM     33  C31 MOL d          22.980  26.492  10.315  0.00  0.00     0.075 C 
ATOM     34  C29 MOL d          21.352  24.887  11.062  0.00  0.00     0.171 C 
ATOM     35  C30 MOL d          21.502  26.131  10.202  0.00  0.00     0.038 C 
ENDBRANCH  27  28
ENDBRANCH  24  27
ENDBRANCH  22  23
BRANCH  22  36
ATOM     36  C32 MOL d          18.258  27.987  14.043  0.00  0.00     0.066 C 
BRANCH  36  37
ATOM     37  C38 MOL d          18.023  27.634  12.578  0.00  0.00    -0.056 A 
ATOM     38  C33 MOL d          17.694  28.601  11.643  0.00  0.00     0.007 A 
ATOM     39  C34 MOL d          17.488  28.254  10.301  0.00  0.00     0.001 A 
ATOM     40  C35 MOL d          17.625  26.938   9.897  0.00  0.00     0.000 A 
ATOM     41  C36 MOL d          17.963  25.973  10.815  0.00  0.00     0.001 A 
ATOM     42  C37 MOL d          18.148  26.316  12.149  0.00  0.00     0.007 A 
ENDBRANCH  36  37
ENDBRANCH  22  36
ENDBRANCH   1  22
TORSDOF 14
