REMARK  13 active torsions:
REMARK  status: ('A' for Active; 'I' for Inactive)
REMARK       I    between atoms: C25_2  and  N24_4 
REMARK    1  A    between atoms: N24_4  and  C22_5 
REMARK    2  A    between atoms: C22_5  and  C21_7 
REMARK       I    between atoms: C21_7  and  N20_9 
REMARK    3  A    between atoms: N20_9  and  C19_10 
REMARK    4  A    between atoms: C19_10  and  C32_11 
REMARK    5  A    between atoms: C19_10  and  C17_18 
REMARK    6  A    between atoms: C32_11  and  C38_12 
REMARK    7  A    between atoms: C17_18  and  O18_19 
REMARK    8  A    between atoms: C17_18  and  C16_20 
REMARK    9  A    between atoms: C16_20  and  N11_21 
REMARK   10  A    between atoms: N11_21  and  S8_22 
REMARK   11  A    between atoms: N11_21  and  C12_34 
REMARK   12  A    between atoms: S8_22  and  C5_25 
REMARK   13  A    between atoms: C12_34  and  C15_35 
ROOT
ATOM      1  C17 MZ1 d          20.074  29.772  15.845  0.00  0.00     0.155 C 
ENDROOT
BRANCH   1   2
ATOM      2  C19 MZ1 d          19.708  29.384  14.403  0.00  0.00     0.118 C 
BRANCH   2   3
ATOM      3  N20 MZ1 d          20.785  28.560  13.835  0.00  0.00    -0.352 N 
ATOM      4  C21 MZ1 d          21.496  28.905  12.754  0.00  0.00     0.240 C 
ATOM      5  O22 MZ1 d          21.321  29.968  12.147  0.00  0.00    -0.271 OA
ATOM      6  H9  MZ1 d          20.999  27.691  14.282  0.00  0.00     0.163 HD
BRANCH   4   7
ATOM      7  C22 MZ1 d          22.558  27.920  12.282  0.00  0.00     0.172 C 
ATOM      8  C23 MZ1 d          23.906  28.610  12.071  0.00  0.00     0.042 C 
BRANCH   7   9
ATOM      9  N24 MZ1 d          22.082  27.294  11.052  0.00  0.00    -0.349 N 
ATOM     10  C25 MZ1 d          21.956  25.970  10.907  0.00  0.00     0.214 C 
ATOM     11  O26 MZ1 d          22.254  25.183  11.800  0.00  0.00    -0.274 OA
ATOM     12  C27 MZ1 d          21.455  25.412   9.586  0.00  0.00     0.117 C 
ATOM     13  H4  MZ1 d          21.839  27.883  10.281  0.00  0.00     0.163 HD
ENDBRANCH   7   9
ENDBRANCH   4   7
ENDBRANCH   2   3
BRANCH   2  14
ATOM     14  C32 MZ1 d          18.432  28.536  14.314  0.00  0.00     0.066 C 
BRANCH  14  15
ATOM     15  C38 MZ1 d          18.128  28.189  12.853  0.00  0.00    -0.056 A 
ATOM     16  C37 MZ1 d          17.564  29.134  12.000  0.00  0.00     0.007 A 
ATOM     17  C36 MZ1 d          17.296  28.820  10.669  0.00  0.00     0.001 A 
ATOM     18  C35 MZ1 d          17.601  27.560  10.174  0.00  0.00     0.000 A 
ATOM     19  C34 MZ1 d          18.172  26.613  11.013  0.00  0.00     0.001 A 
ATOM     20  C33 MZ1 d          18.434  26.926  12.347  0.00  0.00     0.007 A 
ENDBRANCH  14  15
ENDBRANCH   2  14
ENDBRANCH   1   2
BRANCH   1  21
ATOM     21  O18 MZ1 d          20.076  28.616  16.692  0.00  0.00    -0.392 OA
ATOM     22  H19 MZ1 d          20.304  28.874  17.578  0.00  0.00     0.210 HD
ENDBRANCH   1  21
BRANCH   1  23
ATOM     23  C16 MZ1 d          19.117  30.848  16.420  0.00  0.00     0.141 C 
BRANCH  23  24
ATOM     24  N11 MZ1 d          19.430  32.151  15.772  0.00  0.00    -0.199 NA
BRANCH  24  25
ATOM     25  S8  MZ1 d          18.190  32.861  14.987  0.00  0.00     0.247 S 
ATOM     26  O9  MZ1 d          18.841  33.698  14.041  0.00  0.00    -0.206 OA
ATOM     27  O10 MZ1 d          17.487  31.825  14.300  0.00  0.00    -0.206 OA
BRANCH  25  28
ATOM     28  C5  MZ1 d          17.167  33.764  15.893  0.00  0.00     0.116 A 
ATOM     29  C6  MZ1 d          17.226  35.163  15.881  0.00  0.00     0.073 A 
ATOM     30  C7  MZ1 d          16.355  35.957  16.651  0.00  0.00     0.156 A 
ATOM     31  F1  MZ1 d          16.426  37.307  16.651  0.00  0.00    -0.203 F 
ATOM     32  C2  MZ1 d          15.390  35.359  17.449  0.00  0.00     0.157 A 
ATOM     33  C3  MZ1 d          15.302  33.976  17.473  0.00  0.00     0.089 A 
ATOM     34  F2  MZ1 d          14.558  36.131  18.184  0.00  0.00    -0.203 F 
ATOM     35  C4  MZ1 d          16.181  33.192  16.706  0.00  0.00     0.142 A 
ATOM     36  F3  MZ1 d          16.037  31.871  16.773  0.00  0.00    -0.204 F 
ENDBRANCH  25  28
ENDBRANCH  24  25
BRANCH  24  37
ATOM     37  C12 MZ1 d          20.209  33.108  16.612  0.00  0.00     0.153 C 
BRANCH  37  38
ATOM     38  C15 MZ1 d          21.648  33.138  16.106  0.00  0.00    -0.004 A 
ATOM     39  C18 MZ1 d          22.704  33.260  16.947  0.00  0.00     0.016 A 
ATOM     40  C14 MZ1 d          23.898  33.221  16.176  0.00  0.00     0.008 A 
ATOM     41  C13 MZ1 d          23.661  33.077  14.864  0.00  0.00     0.050 A 
ATOM     42  S1  MZ1 d          22.049  32.986  14.480  0.00  0.00    -0.105 SA
ENDBRANCH  37  38
ENDBRANCH  24  37
ENDBRANCH  23  24
ENDBRANCH   1  23
TORSDOF 13
