REMARK  6 active torsions:
REMARK  status: ('A' for Active; 'I' for Inactive)
REMARK    1  A    between atoms: P_2  and  O5'_5 
REMARK    2  A    between atoms: O5'_5  and  C5'_6 
REMARK    3  A    between atoms: C5'_6  and  C4'_7 
REMARK    4  A    between atoms: C3'_9  and  O3'_10 
REMARK    5  A    between atoms: C2'_11  and  O2'_12 
REMARK    6  A    between atoms: C1'_13  and  N1_14 
ROOT
ATOM      1  C4'   U d          22.056  -0.045  10.120  0.00  0.00     0.180 C 
ATOM      2  O4'   U d          20.988   0.808   9.653  0.00  0.00    -0.353 OA
ATOM      3  C3'   U d          21.387  -0.883  11.202  0.00  0.00     0.182 C 
ATOM      4  C2'   U d          19.972  -1.002  10.735  0.00  0.00     0.198 C 
ATOM      5  C1'   U d          19.729   0.344  10.099  0.00  0.00     0.263 C 
ENDROOT
BRANCH   5   6
ATOM      6  N1    U d          18.797   0.421   8.957  0.00  0.00    -0.280 N 
ATOM      7  C2    U d          18.950  -0.390   7.796  0.00  0.00     0.331 A 
ATOM      8  O2    U d          19.906  -1.116   7.639  0.00  0.00    -0.246 OA
ATOM      9  N3    U d          17.929  -0.271   6.873  0.00  0.00    -0.275 N 
ATOM     10  C4    U d          16.855   0.642   6.888  0.00  0.00     0.250 A 
ATOM     11  H9    U d          17.955  -0.908   6.103  0.00  0.00     0.173 HD
ATOM     12  O4    U d          16.116   0.669   5.923  0.00  0.00    -0.268 OA
ATOM     13  C5    U d          16.771   1.459   8.083  0.00  0.00     0.092 A 
ATOM     14  C6    U d          17.721   1.350   9.038  0.00  0.00     0.104 A 
ENDBRANCH   5   6
BRANCH   4  15
ATOM     15  O2'   U d          19.057  -1.336  11.776  0.00  0.00    -0.388 OA
ATOM     16  H7    U d          19.081  -0.662  12.445  0.00  0.00     0.210 HD
ENDBRANCH   4  15
BRANCH   1  17
ATOM     17  C5'   U d          22.699  -0.762   8.950  0.00  0.00     0.217 C 
BRANCH  17  18
ATOM     18  O5'   U d          23.822  -1.483   9.476  0.00  0.00    -0.280 OA
BRANCH  18  19
ATOM     19  P     U d          24.837  -2.265   8.556  0.00  0.00     0.422 P 
ATOM     20  OP3   U d          25.869  -1.215   7.916  0.00  0.00    -0.617 OA
ATOM     21  OP1   U d          24.113  -3.085   7.519  0.00  0.00    -0.617 OA
ATOM     22  OP2   U d          25.611  -3.138   9.506  0.00  0.00    -0.617 OA
ENDBRANCH  18  19
ENDBRANCH  17  18
ENDBRANCH   1  17
BRANCH   3  23
ATOM     23  O3'   U d          21.458  -0.227  12.469  0.00  0.00    -0.390 OA
ATOM     24  H5    U d          21.036  -0.766  13.127  0.00  0.00     0.210 HD
ENDBRANCH   3  23
TORSDOF 6
