REMARK  5 active torsions:
REMARK  status: ('A' for Active; 'I' for Inactive)
REMARK    1  A    between atoms: C1_17  and  N1_1 
REMARK    2  A    between atoms: C5_10  and  O5_9 
REMARK    3  A    between atoms: C4_11  and  C5_10 
REMARK    4  A    between atoms: C3_13  and  O3_14 
REMARK    5  A    between atoms: O3_14  and  P_19 
ROOT
ATOM      1  C4  UMF d          38.775   0.120  13.308  0.00  0.00     0.180 C 
ATOM      2  O4  UMF d          38.402  -1.142  12.960  0.00  0.00    -0.353 OA
ATOM      3  C3  UMF d          37.641   1.061  13.201  0.00  0.00     0.205 C 
ATOM      4  C2  UMF d          36.503   0.312  12.301  0.00  0.00     0.251 C 
ATOM      5  F2  UMF d          36.246   1.313  11.543  0.00  0.00    -0.242 F 
ATOM      6  C1  UMF d          37.174  -1.115  11.870  0.00  0.00     0.269 C 
ENDROOT
BRANCH   6   7
ATOM      7  N1  UMF d          36.225  -2.366  12.158  0.00  0.00    -0.279 N 
ATOM      8  C2  UMF d          35.029  -2.555  11.421  0.00  0.00     0.331 A 
ATOM      9  O2  UMF d          34.700  -1.798  10.587  0.00  0.00    -0.246 OA
ATOM     10  N3  UMF d          34.327  -3.712  11.794  0.00  0.00    -0.275 N 
ATOM     11  C4  UMF d          34.675  -4.667  12.796  0.00  0.00     0.250 A 
ATOM     12  H1  UMF d          33.478  -3.889  11.296  0.00  0.00     0.173 HD
ATOM     13  O4  UMF d          33.925  -5.605  12.958  0.00  0.00    -0.268 OA
ATOM     14  C5  UMF d          35.924  -4.390  13.518  0.00  0.00     0.092 A 
ATOM     15  C6  UMF d          36.645  -3.283  13.194  0.00  0.00     0.104 A 
ENDBRANCH   6   7
BRANCH   1  16
ATOM     16  C5  UMF d          40.002  -0.165  14.210  0.00  0.00     0.198 C 
BRANCH  16  17
ATOM     17  O5  UMF d          39.253  -0.499  15.546  0.00  0.00    -0.398 OA
ATOM     18  H4  UMF d          38.683  -1.247  15.410  0.00  0.00     0.209 HD
ENDBRANCH  16  17
ENDBRANCH   1  16
BRANCH   3  19
ATOM     19  O3  UMF d          37.542   2.532  12.911  0.00  0.00    -0.272 OA
BRANCH  19  20
ATOM     20  P   UMF d          37.016   3.503  13.630  0.00  0.00     0.422 P 
ATOM     21  O3P UMF d          35.468   3.125  13.520  0.00  0.00    -0.617 OA
ATOM     22  O1P UMF d          37.341   3.681  15.091  0.00  0.00    -0.617 OA
ATOM     23  O2P UMF d          37.471   4.666  12.834  0.00  0.00    -0.617 OA
ENDBRANCH  19  20
ENDBRANCH   3  19
TORSDOF 5
