REMARK  7 active torsions:
REMARK  status: ('A' for Active; 'I' for Inactive)
REMARK    1  A    between atoms: C1_1  and  C2_4 
REMARK    2  A    between atoms: C4_6  and  N4_20 
REMARK    3  A    between atoms: C5_7  and  N5_8 
REMARK       I    between atoms: N5_8  and  C10_9 
REMARK    4  A    between atoms: C6_12  and  O7_14 
REMARK    5  A    between atoms: O7_14  and  C8_15 
REMARK    6  A    between atoms: C8_15  and  C9_16 
REMARK    7  A    between atoms: C8_15  and  C81_17 
ROOT
ATOM      1  C2  G39 d          29.372  -6.982  12.171  0.00  0.00     0.091 C 
ATOM      2  C3  G39 d          30.780  -6.954  12.695  0.00  0.00     0.050 C 
ATOM      3  C4  G39 d          31.062  -7.839  13.868  0.00  0.00     0.209 C 
ATOM      4  C5  G39 d          30.177  -9.036  13.898  0.00  0.00     0.143 C 
ATOM      5  C6  G39 d          28.745  -8.633  14.039  0.00  0.00     0.147 C 
ATOM      6  C7  G39 d          28.326  -7.559  13.085  0.00  0.00     0.049 C 
ENDROOT
BRANCH   5   7
ATOM      7  O7  G39 d          27.912  -9.756  13.885  0.00  0.00    -0.379 OA
BRANCH   7   8
ATOM      8  C8  G39 d          27.136 -10.216  14.968  0.00  0.00     0.121 C 
BRANCH   8   9
ATOM      9  C9  G39 d          26.161  -9.181  15.529  0.00  0.00     0.027 C 
ATOM     10  C91 G39 d          25.059  -8.695  14.630  0.00  0.00     0.007 C 
ENDBRANCH   8   9
BRANCH   8  11
ATOM     11  C81 G39 d          26.508 -11.576  14.716  0.00  0.00     0.027 C 
ATOM     12  C82 G39 d          27.442 -12.756  14.627  0.00  0.00     0.007 C 
ENDBRANCH   8  11
ENDBRANCH   7   8
ENDBRANCH   5   7
BRANCH   4  13
ATOM     13  N5  G39 d          30.529  -9.866  15.046  0.00  0.00    -0.352 N 
ATOM     14  C10 G39 d          30.997 -11.222  14.876  0.00  0.00     0.214 C 
ATOM     15  O10 G39 d          31.111 -11.698  13.761  0.00  0.00    -0.274 OA
ATOM     16  C11 G39 d          31.345 -12.041  16.093  0.00  0.00     0.117 C 
ATOM     17  H6  G39 d          30.445  -9.489  15.968  0.00  0.00     0.163 HD
ENDBRANCH   4  13
BRANCH   3  18
ATOM     18  N4  G39 d          32.455  -8.269  13.831  0.00  0.00    -0.073 N 
ATOM     19  H24 G39 d          33.056  -7.460  13.811  0.00  0.00     0.274 HD
ATOM     20  H25 G39 d          32.613  -8.826  13.006  0.00  0.00     0.274 HD
ATOM     21  H26 G39 d          32.659  -8.818  14.651  0.00  0.00     0.274 HD
ENDBRANCH   3  18
BRANCH   1  22
ATOM     22  C1  G39 d          28.934  -5.565  11.832  0.00  0.00     0.177 C 
ATOM     23  O1A G39 d          29.784  -4.673  11.603  0.00  0.00    -0.648 OA
ATOM     24  O1B G39 d          27.701  -5.285  11.791  0.00  0.00    -0.648 OA
ENDBRANCH   1  22
TORSDOF 7
