REMARK  5 active torsions:
REMARK  status: ('A' for Active; 'I' for Inactive)
REMARK    1  A    between atoms: C4_4  and  O1_13 
REMARK    2  A    between atoms: C6_5  and  C1_7 
REMARK    3  A    between atoms: C2_6  and  C5_10 
REMARK    4  A    between atoms: C1_7  and  O3_8 
REMARK    5  A    between atoms: C5_10  and  O2_11 
ROOT
ATOM      1  C8  GT0 d          28.731   8.124  39.588  0.00  0.00     0.127 A 
ATOM      2  N1  GT0 d          29.626   8.826  38.749  0.00  0.00    -0.262 NA
ATOM      3  C7  GT0 d          30.567   8.151  37.962  0.00  0.00     0.064 A 
ATOM      4  C4  GT0 d          30.638   6.733  38.008  0.00  0.00     0.099 A 
ATOM      5  C6  GT0 d          29.743   6.007  38.858  0.00  0.00     0.010 A 
ATOM      6  C2  GT0 d          28.776   6.714  39.659  0.00  0.00    -0.006 A 
ATOM      7  C9  GT0 d          31.498   8.962  37.080  0.00  0.00     0.073 C 
ENDROOT
BRANCH   5   8
ATOM      8  C1  GT0 d          29.843   4.461  38.900  0.00  0.00     0.209 C 
BRANCH   8   9
ATOM      9  O3  GT0 d          30.372   4.011  40.177  0.00  0.00    -0.391 OA
ATOM     10  C3  GT0 d          31.794   4.242  40.282  0.00  0.00     0.201 C 
ENDBRANCH   8   9
ENDBRANCH   5   8
BRANCH   4  11
ATOM     11  O1  GT0 d          31.570   6.048  37.230  0.00  0.00    -0.358 OA
ATOM     12  H13 GT0 d          32.082   6.672  36.728  0.00  0.00     0.217 HD
ENDBRANCH   4  11
BRANCH   6  13
ATOM     13  C5  GT0 d          27.789   5.966  40.582  0.00  0.00     0.205 C 
BRANCH  13  14
ATOM     14  O2  GT0 d          26.923   6.890  41.271  0.00  0.00    -0.396 OA
ATOM     15  H9  GT0 d          26.327   6.406  41.831  0.00  0.00     0.209 HD
ENDBRANCH  13  14
ENDBRANCH   6  13
TORSDOF 5
