REMARK  5 active torsions:
REMARK  status: ('A' for Active; 'I' for Inactive)
REMARK    1  A    between atoms: C20_10  and  S19_11 
REMARK    2  A    between atoms: S19_11  and  C10_12 
REMARK    3  A    between atoms: C8_16  and  N13_17 
REMARK    4  A    between atoms: C16_19  and  N18_20 
REMARK    5  A    between atoms: C5_26  and  C6_28 
ROOT
ATOM      1  C10 19X d           9.965   1.911 -10.526  0.00  0.00     0.197 A 
ATOM      2  N11 19X d          11.187   2.185 -10.026  0.00  0.00    -0.204 NA
ATOM      3  C2  19X d          11.335   2.663  -8.791  0.00  0.00     0.146 A 
ATOM      4  N9  19X d           8.818   2.022  -9.844  0.00  0.00    -0.204 NA
ATOM      5  C8  19X d           8.781   2.443  -8.569  0.00  0.00     0.144 A 
ATOM      6  C3  19X d          10.102   2.792  -7.982  0.00  0.00     0.080 A 
ATOM      7  C4  19X d          10.717   3.317  -6.777  0.00  0.00     0.074 A 
ATOM      8 CL1  19X d           9.836   3.924  -5.339  0.00  0.00    -0.081 Cl
ATOM      9  C5  19X d          12.169   3.481  -6.874  0.00  0.00     0.033 A 
ATOM     10  N1  19X d          12.437   3.066  -8.114  0.00  0.00    -0.342 N 
ATOM     11  H17 19X d          13.386   3.053  -8.515  0.00  0.00     0.167 HD
ENDROOT
BRANCH   1  12
ATOM     12  S19 19X d           9.935   1.479 -12.175  0.00  0.00    -0.050 SA
BRANCH  12  13
ATOM     13  C20 19X d           8.467   0.725 -12.578  0.00  0.00     0.009 A 
ATOM     14  C21 19X d           7.998   0.898 -13.891  0.00  0.00     0.036 A 
ATOM     15  C22 19X d           6.842   0.225 -14.208  0.00  0.00     0.041 A 
ATOM     16  C28 19X d           5.995   0.129 -15.405  0.00  0.00     0.252 A 
ATOM     17  C23 19X d           6.097  -0.613 -13.265  0.00  0.00    -0.025 A 
ATOM     18  O29 19X d           6.345   0.769 -16.474  0.00  0.00    -0.268 OA
ATOM     19  N27 19X d           4.892  -0.661 -15.249  0.00  0.00    -0.353 N 
ATOM     20  C26 19X d           4.881  -1.176 -13.854  0.00  0.00     0.162 A 
ATOM     21  H2  19X d           4.209  -0.859 -15.952  0.00  0.00     0.163 HD
ATOM     22  C24 19X d           6.580  -0.757 -11.976  0.00  0.00     0.011 A 
ATOM     23  C25 19X d           7.789  -0.101 -11.670  0.00  0.00     0.019 A 
ENDBRANCH  12  13
ENDBRANCH   1  12
BRANCH   5  24
ATOM     24  N13 19X d           7.578   2.326  -7.916  0.00  0.00    -0.363 N 
ATOM     25  C17 19X d           7.469   2.202  -6.447  0.00  0.00     0.157 C 
ATOM     26  C16 19X d           6.314   1.220  -6.249  0.00  0.00     0.203 C 
ATOM     27  C15 19X d           5.523   1.342  -7.552  0.00  0.00     0.054 C 
ATOM     28  C14 19X d           6.390   1.941  -8.653  0.00  0.00     0.127 C 
BRANCH  26  29
ATOM     29  N18 19X d           6.773  -0.189  -6.117  0.00  0.00    -0.073 N 
ATOM     30  H10 19X d           5.975  -0.792  -5.989  0.00  0.00     0.274 HD
ATOM     31  H11 19X d           7.386  -0.270  -5.321  0.00  0.00     0.274 HD
ATOM     32  H12 19X d           7.269  -0.461  -6.952  0.00  0.00     0.274 HD
ENDBRANCH  26  29
ENDBRANCH   5  24
BRANCH   9  33
ATOM     33  C6  19X d          13.105   3.935  -5.760  0.00  0.00     0.054 C 
ATOM     34  C7  19X d          14.090   4.979  -6.247  0.00  0.00     0.011 C 
ENDBRANCH   9  33
TORSDOF 5
