REMARK  1 active torsions:
REMARK  status: ('A' for Active; 'I' for Inactive)
REMARK    1  A    between atoms: C1_1  and  O1_7 
ROOT
ATOM      1  C1  IPH d          10.012  35.433  32.635  0.00  0.00     0.065 A 
ATOM      2  C2  IPH d          10.550  36.484  31.896  0.00  0.00     0.036 A 
ATOM      3  C3  IPH d          11.640  37.094  32.487  0.00  0.00     0.003 A 
ATOM      4  C4  IPH d          12.126  36.714  33.723  0.00  0.00     0.000 A 
ATOM      5  C5  IPH d          11.535  35.669  34.406  0.00  0.00     0.003 A 
ATOM      6  C6  IPH d          10.442  35.013  33.900  0.00  0.00     0.036 A 
ENDROOT
BRANCH   1   7
ATOM      7  O1  IPH d           8.955  34.745  32.078  0.00  0.00    -0.361 OA
ATOM      8  H6  IPH d           8.752  35.114  31.227  0.00  0.00     0.217 HD
ENDBRANCH   1   7
TORSDOF 1
