REMARK  2 active torsions:
REMARK  status: ('A' for Active; 'I' for Inactive)
REMARK    1  A    between atoms: C1_1  and  N1_2 
REMARK    2  A    between atoms: C4_9  and  O3_8 
ROOT
ATOM      1  C1  HNQ d         -35.277 -12.125 -47.116  0.00  0.00     0.115 A 
ATOM      2  C2  HNQ d         -34.566 -11.570 -47.952  0.00  0.00     0.040 A 
ATOM      3  N2  HNQ d         -34.693 -10.225 -44.245  0.00  0.00    -0.257 NA
ATOM      4  C3  HNQ d         -33.809 -10.503 -47.616  0.00  0.00     0.041 A 
ATOM      5  C4  HNQ d         -33.855 -10.043 -46.377  0.00  0.00     0.095 A 
ATOM      6  C5  HNQ d         -34.649 -10.674 -45.507  0.00  0.00     0.102 A 
ATOM      7  C6  HNQ d         -35.462 -10.820 -43.439  0.00  0.00     0.117 A 
ATOM      8  C7  HNQ d         -36.217 -11.878 -43.794  0.00  0.00     0.020 A 
ATOM      9  C8  HNQ d         -36.164 -12.311 -44.966  0.00  0.00     0.018 A 
ATOM     10  C9  HNQ d         -35.353 -11.701 -45.882  0.00  0.00     0.029 A 
ENDROOT
BRANCH   1  11
ATOM     11  N1  HNQ d         -35.926 -13.197 -47.494  0.00  0.00    -0.115 N 
ATOM     12  O1  HNQ d         -35.741 -14.206 -46.977  0.00  0.00    -0.532 OA
ATOM     13  O2  HNQ d         -36.593 -13.061 -48.211  0.00  0.00    -0.532 OA
ENDBRANCH   1  11
BRANCH   5  14
ATOM     14  O3  HNQ d         -33.110  -8.935 -45.984  0.00  0.00    -0.358 OA
ATOM     15  H3  HNQ d         -33.272  -8.756 -45.065  0.00  0.00     0.217 HD
ENDBRANCH   5  14
TORSDOF 2
