REMARK  3 active torsions:
REMARK  status: ('A' for Active; 'I' for Inactive)
REMARK    1  A    between atoms: C7_7  and  C1_1 
REMARK    2  A    between atoms: C7_7  and  N1_8 
REMARK    3  A    between atoms: C8_12  and  C1'_13 
ROOT
ATOM      1  C1  MOL d           8.963   0.794  25.018  0.00  0.00     0.009 A 
ATOM      2  C2  MOL d           9.561   1.009  23.750  0.00  0.00     0.017 A 
ATOM      3  C3  MOL d           9.990   2.267  23.338  0.00  0.00     0.033 A 
ATOM      4  C4  MOL d           9.815   3.318  24.204  0.00  0.00     0.062 A 
ATOM      5  C5  MOL d           9.255   3.178  25.414  0.00  0.00     0.086 A 
ATOM      6  C6  MOL d           8.817   1.933  25.850  0.00  0.00     0.049 A 
ATOM      7  N3  MOL d          10.110   4.566  24.115  0.00  0.00    -0.338 N 
ATOM      8  N4  MOL d           9.189   4.305  26.085  0.00  0.00    -0.228 NA
ATOM      9  C8  MOL d           9.741   5.153  25.224  0.00  0.00     0.144 A 
ATOM     10  H8  MOL d          10.559   5.024  23.309  0.00  0.00     0.167 HD
ENDROOT
BRANCH   9  11
ATOM     11  C1' MOL d           9.879   6.527  25.462  0.00  0.00     0.078 A 
ATOM     12  C6' MOL d          10.221   7.472  24.450  0.00  0.00     0.259 A 
ATOM     13  N5' MOL d          10.339   8.761  24.740  0.00  0.00    -0.333 N 
ATOM     14  O6' MOL d          10.393   7.097  23.308  0.00  0.00    -0.267 OA
ATOM     15  C4' MOL d          10.148   9.236  25.956  0.00  0.00     0.091 A 
ATOM     16  H12 MOL d          10.582   9.398  24.008  0.00  0.00     0.168 HD
ATOM     17  C3' MOL d           9.811   8.374  26.985  0.00  0.00     0.018 A 
ATOM     18  C2' MOL d           9.677   7.027  26.740  0.00  0.00     0.022 A 
ENDBRANCH   9  11
BRANCH   1  19
ATOM     19  C7  MOL d           8.542  -0.487  25.426  0.00  0.00     0.102 C 
ATOM     20  N2  MOL d           8.856  -1.539  24.712  0.00  0.00    -0.385 N 
ATOM     21  H6  MOL d           9.409  -1.430  23.850  0.00  0.00     0.157 HD
ATOM     22  H7  MOL d           8.550  -2.475  25.012  0.00  0.00     0.157 HD
BRANCH  19  23
ATOM     23  N1  MOL d           7.838  -0.620  26.524  0.00  0.00    -0.385 N 
ATOM     24  H4  MOL d           7.528  -1.554  26.827  0.00  0.00     0.157 HD
ATOM     25  H5  MOL d           7.595   0.210  27.084  0.00  0.00     0.157 HD
ENDBRANCH  19  23
ENDBRANCH   1  19
TORSDOF 3
