REMARK  5 active torsions:
REMARK  status: ('A' for Active; 'I' for Inactive)
REMARK    1  A    between atoms: C3_3  and  O3_10 
REMARK    2  A    between atoms: C4_4  and  O4_12 
REMARK    3  A    between atoms: C5_5  and  C6_6 
REMARK    4  A    between atoms: C6_6  and  O6_14 
REMARK    5  A    between atoms: C2_13  and  O2_11 
ROOT
ATOM      1  C1  MVL d           8.658  12.458  13.404  0.00  0.00     0.138 A 
ATOM      2  N10 MVL d           9.056  13.072  12.308  0.00  0.00    -0.332 N 
ATOM      3  C3  MVL d           8.731  10.209  12.354  0.00  0.00     0.185 C 
ATOM      4  C4  MVL d           8.981  11.015  11.059  0.00  0.00     0.175 C 
ATOM      5  C5  MVL d           9.817  12.284  11.299  0.00  0.00     0.145 C 
ATOM      6  C7  MVL d           7.950  14.529  13.517  0.00  0.00     0.136 A 
ATOM      7  C8  MVL d           8.644  14.353  12.333  0.00  0.00     0.112 A 
ATOM      8  N1  MVL d           7.987  13.340  14.171  0.00  0.00    -0.243 NA
ATOM      9  C2  MVL d           8.998  11.023  13.633  0.00  0.00     0.219 C 
ENDROOT
BRANCH   5  10
ATOM     10  C6  MVL d          10.125  13.095  10.044  0.00  0.00     0.192 C 
BRANCH  10  11
ATOM     11  O6  MVL d           8.929  13.666   9.511  0.00  0.00    -0.399 OA
ATOM     12  H12 MVL d           8.320  12.972   9.289  0.00  0.00     0.209 HD
ENDBRANCH  10  11
ENDBRANCH   5  10
BRANCH   4  13
ATOM     13  O4  MVL d           9.618  10.162  10.106  0.00  0.00    -0.391 OA
ATOM     14  H10 MVL d           9.715  10.626   9.283  0.00  0.00     0.210 HD
ENDBRANCH   4  13
BRANCH   3  15
ATOM     15  O3  MVL d           7.371   9.756  12.384  0.00  0.00    -0.390 OA
ATOM     16  H8  MVL d           6.788  10.506  12.361  0.00  0.00     0.210 HD
ENDBRANCH   3  15
BRANCH   9  17
ATOM     17  O2  MVL d           8.308  10.506  14.778  0.00  0.00    -0.385 OA
ATOM     18  H9  MVL d           8.507  11.043  15.536  0.00  0.00     0.210 HD
ENDBRANCH   9  17
TORSDOF 5
