3bf1_ligand

Created by X-TOOL on Fri Sep 26 17:34:40 2014
 39 41  0  0  0  0  0  0  0  0999 V2000
    4.0940   15.7490   24.2380  P 0  0  0  1  0  4
    4.2600   15.2290   22.8310  O 0  0  0  1  0  1
    2.8110   16.5190   24.4500  O 0  0  0  1  0  1
    4.4090   14.7240   25.3090  O 0  0  0  1  0  1
    5.6210   17.6790   25.7150  P 0  0  0  1  0  4
    4.4830   17.5230   26.6930  O 0  0  0  1  0  1
    6.0960   19.0640   25.3410  O 0  0  0  1  0  1
    5.2430   16.8900   24.3510  O 0  0  0  1  0  2
    6.8820   16.8350   26.2610  O 0  0  0  1  0  2
    8.2060   17.3630   26.2400  C 0  0  0  3  0  4
    8.4760   18.0270   27.5840  C 0  0  0  2  0  4
    8.8030   17.0340   28.5570  O 0  0  0  1  0  2
    9.6460   18.9900   27.5270  C 0  0  0  2  0  4
    9.2220   20.2150   28.1400  O 0  0  0  2  0  2
   10.7670   18.3080   28.3050  C 0  0  0  2  0  4
   11.5430   19.2400   29.0740  O 0  0  0  2  0  2
   10.0590   17.2880   29.1880  C 0  0  0  2  0  4
   10.7970   16.0040   29.2820  N 0  0  0  1  0  3
   10.6940   14.9900   28.3980  C 0  0  0  2  0  3
   11.4820   13.9430   28.7460  N 0  0  0  1  0  2
   12.1060   14.2780   29.8880  C 0  0  0  1  0  3
   13.0870   13.6220   30.7890  C 0  0  0  1  0  3
   13.5560   12.3750   30.5200  N 0  0  0  3  0  3
   13.4970   14.3180   31.8740  N 0  0  0  1  0  2
   13.0430   15.5600   32.1390  C 0  0  0  2  0  3
   12.1540   16.2160   31.3650  N 0  0  0  1  0  2
   11.6540   15.6390   30.2410  C 0  0  0  1  0  3
    8.2981   18.1050   25.4332  H 0  0  0  1  0  1
    8.9283   16.5500   26.0748  H 0  0  0  1  0  1
    7.5726   18.5714   27.8963  H 0  0  0  1  0  1
    9.9602   19.1786   26.4898  H 0  0  0  1  0  1
    9.9359   20.8415   28.1199  H 0  0  0  1  0  1
   11.4418   17.7910   27.6069  H 0  0  0  1  0  1
   10.9785   19.6819   29.6973  H 0  0  0  1  0  1
    9.9138   17.7019   30.1967  H 0  0  0  1  0  1
   10.0572   15.0100   27.5148  H 0  0  0  1  0  1
   14.2363   11.9327   31.1544  H 0  0  0  1  0  1
   13.2311   11.8723   29.6818  H 0  0  0  1  0  1
   13.4142   16.0605   33.0260  H 0  0  0  1  0  1
  1  2  2  0  0  2
  1  3  2  0  0  2
  1  4  2  0  0  2
  8  1  1  0  0  2
  5  6  2  0  0  2
  5  7  2  0  0  2
  5  8  1  0  0  2
  5  9  1  0  0  2
  9 10  1  0  0  2
 10 11  1  0  0  2
 11 12  1  0  0  1
 11 13  1  0  0  1
 12 17  1  0  0  1
 13 14  1  0  0  2
 13 15  1  0  0  1
 15 16  1  0  0  2
 15 17  1  0  0  1
 17 18  1  0  0  2
 18 19  1  0  0  1
 18 27  1  0  0  1
 19 20  2  0  0  1
 20 21  1  0  0  1
 21 22  4  0  0  1
 21 27  4  0  0  1
 22 23  1  0  0  2
 22 24  4  0  0  1
 24 25  4  0  0  1
 25 26  4  0  0  1
 26 27  4  0  0  1
 10 28  1  0  0  2
 10 29  1  0  0  2
 11 30  1  0  0  2
 13 31  1  0  0  2
 14 32  1  0  0  2
 15 33  1  0  0  2
 16 34  1  0  0  2
 17 35  1  0  0  2
 19 36  1  0  0  2
 23 37  1  0  0  2
 23 38  1  0  0  2
 25 39  1  0  0  2
M  END
> <MOLECULAR_FORMULA>
C10H12N5O10P2

> <MOLECULAR_WEIGHT>
424.1

> <NUM_HB_ATOMS>
15 

> <NUM_ROTOR>
5  

> <XLOGP2>
-3.21

$$$$
