REMARK  6 active torsions:
REMARK  status: ('A' for Active; 'I' for Inactive)
REMARK    1  A    between atoms: N1_1  and  C3_2 
REMARK    2  A    between atoms: C3_2  and  C4_4 
REMARK    3  A    between atoms: C7_7  and  C10_10 
REMARK    4  A    between atoms: C17_17  and  C18_29 
REMARK    5  A    between atoms: N19_18  and  C23_22 
REMARK    6  A    between atoms: C23_22  and  C24_23 
ROOT
ATOM      1  C10 ESH d          15.793 -11.301  19.991  0.00  0.00     0.235 C 
ATOM      2  N11 ESH d          15.646 -12.372  18.970  0.00  0.00    -0.057 N 
ATOM      3  C12 ESH d          14.603 -12.051  17.951  0.00  0.00     0.236 C 
ATOM      4  C13 ESH d          15.328 -11.704  16.659  0.00  0.00     0.030 C 
ATOM      5  C14 ESH d          16.816 -11.611  16.989  0.00  0.00     0.035 C 
ATOM      6  C15 ESH d          16.940 -12.438  18.267  0.00  0.00     0.196 C 
ATOM      7  C16 ESH d          17.975 -12.019  19.300  0.00  0.00     0.055 C 
ATOM      8  C17 ESH d          18.940 -13.139  19.735  0.00  0.00     0.098 C 
ATOM      9  N19 ESH d          18.518 -13.453  21.088  0.00  0.00    -0.342 N 
ATOM     10  C20 ESH d          17.394 -12.689  21.514  0.00  0.00     0.227 C 
ATOM     11  O21 ESH d          16.800 -12.924  22.522  0.00  0.00    -0.273 OA
ATOM     12  C22 ESH d          17.201 -11.570  20.530  0.00  0.00     0.121 C 
ATOM     13  H10 ESH d          15.429 -13.249  19.417  0.00  0.00     0.281 HD
ENDROOT
BRANCH   1  14
ATOM     14  C7  ESH d          14.684 -11.228  20.987  0.00  0.00    -0.027 A 
ATOM     15  C8  ESH d          14.429 -10.025  21.658  0.00  0.00     0.010 A 
ATOM     16  C9  ESH d          13.416  -9.942  22.597  0.00  0.00     0.016 A 
ATOM     17  C4  ESH d          12.583 -11.007  22.877  0.00  0.00     0.007 A 
ATOM     18  C5  ESH d          12.808 -12.204  22.178  0.00  0.00     0.016 A 
ATOM     19  C6  ESH d          13.831 -12.301  21.255  0.00  0.00     0.010 A 
BRANCH  17  20
ATOM     20  C3  ESH d          11.469 -10.910  23.858  0.00  0.00     0.102 C 
ATOM     21  N2  ESH d          10.698 -11.981  24.128  0.00  0.00    -0.385 N 
ATOM     22  H3  ESH d          10.872 -12.875  23.647  0.00  0.00     0.157 HD
ATOM     23  H4  ESH d           9.935 -11.906  24.816  0.00  0.00     0.157 HD
BRANCH  20  24
ATOM     24  N1  ESH d          11.213  -9.781  24.497  0.00  0.00    -0.385 N 
ATOM     25  H1  ESH d          11.784  -8.944  24.313  0.00  0.00     0.157 HD
ATOM     26  H2  ESH d          10.442  -9.739  25.179  0.00  0.00     0.157 HD
ENDBRANCH  20  24
ENDBRANCH  17  20
ENDBRANCH   1  14
BRANCH   8  27
ATOM     27  C18 ESH d          20.407 -12.696  19.752  0.00  0.00     0.001 C 
ATOM     28  C41 ESH d          20.695 -11.525  20.691  0.00  0.00     0.011 C 
ATOM     29  C42 ESH d          20.859 -12.413  18.341  0.00  0.00     0.011 C 
ENDBRANCH   8  27
BRANCH   9  30
ATOM     30  C23 ESH d          18.717 -14.800  21.670  0.00  0.00     0.164 C 
BRANCH  30  31
ATOM     31  C24 ESH d          19.709 -14.587  22.808  0.00  0.00    -0.040 A 
ATOM     32  C32 ESH d          19.272 -14.215  24.060  0.00  0.00     0.010 A 
ATOM     33  C31 ESH d          20.144 -13.981  25.115  0.00  0.00     0.024 A 
ATOM     34  C30 ESH d          21.501 -14.139  24.887  0.00  0.00     0.034 A 
ATOM     35  C26 ESH d          21.975 -14.513  23.641  0.00  0.00     0.024 A 
ATOM     36 CL30 ESH d          22.648 -13.883  26.223  0.00  0.00    -0.084 Cl
ATOM     37  C25 ESH d          21.081 -14.734  22.596  0.00  0.00     0.010 A 
ENDBRANCH  30  31
ENDBRANCH   9  30
TORSDOF 6
