REMARK  11 active torsions:
REMARK  status: ('A' for Active; 'I' for Inactive)
REMARK    1  A    between atoms: CAK_3  and  CAQ_2 
REMARK    2  A    between atoms: CAM_4  and  CAK_3 
REMARK    3  A    between atoms: CAU_5  and  CAM_4 
REMARK    4  A    between atoms: CAU_5  and  CAS_8 
REMARK    5  A    between atoms: N_11  and  CAU_5 
REMARK    6  A    between atoms: CA_12  and  N_11 
REMARK    7  A    between atoms: CA_12  and  C_13 
REMARK    8  A    between atoms: CA_12  and  CB_15 
REMARK    9  A    between atoms: CB_15  and  CG_16 
REMARK   10  A    between atoms: CG_16  and  CD_17 
REMARK   11  A    between atoms: CD_17  and  NE_18 
REMARK       I    between atoms: NE_18  and  CZ_19 
REMARK       I    between atoms: CZ_19  and  NH2_20 
ROOT
ATOM      1  CA  MOL d          18.056  -6.241  -1.957  0.00  0.00     0.290 C 
ENDROOT
BRANCH   1   2
ATOM      2  N   MOL d          18.822  -7.139  -1.051  0.00  0.00    -0.047 N 
ATOM      3  H   MOL d          18.300  -7.188  -0.190  0.00  0.00     0.279 HD
ATOM      4  H   MOL d          18.832  -8.046  -1.490  0.00  0.00     0.279 HD
BRANCH   2   5
ATOM      5  CAU MOL d          20.208  -6.842  -0.680  0.00  0.00     0.287 C 
BRANCH   5   6
ATOM      6  CAM MOL d          20.697  -7.850   0.340  0.00  0.00     0.055 C 
BRANCH   6   7
ATOM      7  CAK MOL d          20.223  -7.725   1.757  0.00  0.00     0.116 C 
BRANCH   7   8
ATOM      8  CAQ MOL d          18.852  -8.192   2.160  0.00  0.00     0.172 C 
ATOM      9  OAC MOL d          17.857  -8.102   1.389  0.00  0.00    -0.648 OA
ATOM     10  OAF MOL d          18.687  -8.666   3.317  0.00  0.00    -0.648 OA
ENDBRANCH   7   8
ENDBRANCH   6   7
ENDBRANCH   5   6
BRANCH   5  11
ATOM     11  CAS MOL d          20.438  -5.436  -0.229  0.00  0.00     0.204 C 
ATOM     12  OAH MOL d          19.497  -4.784   0.299  0.00  0.00    -0.646 OA
ATOM     13  OAE MOL d          21.578  -4.893  -0.375  0.00  0.00    -0.646 OA
ENDBRANCH   5  11
ENDBRANCH   2   5
ENDBRANCH   1   2
BRANCH   1  14
ATOM     14  C   MOL d          16.686  -6.865  -2.222  0.00  0.00     0.205 C 
ATOM     15  OXT MOL d          16.478  -8.039  -1.830  0.00  0.00    -0.646 OA
ATOM     16  O   MOL d          15.798  -6.211  -2.826  0.00  0.00    -0.646 OA
ENDBRANCH   1  14
BRANCH   1  17
ATOM     17  CB  MOL d          18.728  -5.847  -3.266  0.00  0.00     0.072 C 
BRANCH  17  18
ATOM     18  CG  MOL d          19.430  -6.943  -4.008  0.00  0.00    -0.006 C 
BRANCH  18  19
ATOM     19  CD  MOL d          19.387  -6.973  -5.496  0.00  0.00     0.102 C 
BRANCH  19  20
ATOM     20  NE  MOL d          20.139  -8.086  -6.043  0.00  0.00    -0.203 N 
ATOM     21  CZ  MOL d          20.948  -7.968  -7.240  0.00  0.00     0.669 C 
ATOM     22  NH2 MOL d          21.601  -9.023  -7.646  0.00  0.00    -0.235 N 
ATOM     23  NH1 MOL d          21.033  -6.867  -7.916  0.00  0.00    -0.235 N 
ATOM     24  H   MOL d          22.185  -8.973  -8.493  0.00  0.00     0.174 HD
ATOM     25  H   MOL d          21.532  -9.905  -7.119  0.00  0.00     0.174 HD
ATOM     26  H   MOL d          20.521  -6.030  -7.603  0.00  0.00     0.174 HD
ATOM     27  H   MOL d          21.612  -6.828  -8.767  0.00  0.00     0.174 HD
ATOM     28  H   MOL d          20.096  -8.996  -5.562  0.00  0.00     0.183 HD
ENDBRANCH  19  20
ENDBRANCH  18  19
ENDBRANCH  17  18
ENDBRANCH   1  17
TORSDOF 11
