REMARK  3 active torsions:
REMARK  status: ('A' for Active; 'I' for Inactive)
REMARK    1  A    between atoms: C2_2  and  C11_13 
REMARK    2  A    between atoms: C6_6  and  N6_7 
REMARK    3  A    between atoms: C11_13  and  O4_14 
ROOT
ATOM      1  N1  PH2 d           3.468   5.550   6.956  0.00  0.00    -0.244 NA
ATOM      2  C2  PH2 d           3.280   5.613   8.245  0.00  0.00     0.054 A 
ATOM      3  C3  PH2 d           3.207   6.982   9.001  0.00  0.00     0.178 A 
ATOM      4  N4  PH2 d           3.363   7.990   8.150  0.00  0.00    -0.367 N 
ATOM      5  N5  PH2 d           3.698   9.112   6.076  0.00  0.00    -0.045 NA
ATOM      6  C6  PH2 d           3.884   9.152   4.811  0.00  0.00     0.703 A 
ATOM      7  N7  PH2 d           3.942   7.817   4.167  0.00  0.00    -0.152 N 
ATOM      8  C8  PH2 d           3.811   6.648   4.839  0.00  0.00     0.292 A 
ATOM      9  O8  PH2 d           3.884   5.580   4.138  0.00  0.00    -0.265 OA
ATOM     10  C9  PH2 d           3.613   6.672   6.186  0.00  0.00     0.171 A 
ATOM     11  C10 PH2 d           3.557   8.044   6.838  0.00  0.00     0.177 A 
ATOM     12  H3  PH2 d           3.326   8.916   8.599  0.00  0.00     0.161 HD
ATOM     13  H6  PH2 d           4.086   7.778   3.178  0.00  0.00     0.187 HD
ENDROOT
BRANCH   2  14
ATOM     14  C11 PH2 d           3.134   4.374   9.071  0.00  0.00     0.220 C 
BRANCH  14  15
ATOM     15  O4  PH2 d           3.223   3.187   8.407  0.00  0.00    -0.395 OA
ATOM     16  H9  PH2 d           3.117   2.472   9.023  0.00  0.00     0.209 HD
ENDBRANCH  14  15
ENDBRANCH   2  14
BRANCH   6  17
ATOM     17  N6  PH2 d           4.024  10.126   4.038  0.00  0.00    -0.233 N 
ATOM     18  H4  PH2 d           3.996  11.086   4.409  0.00  0.00     0.174 HD
ATOM     19  H5  PH2 d           4.168   9.967   3.030  0.00  0.00     0.174 HD
ENDBRANCH   6  17
TORSDOF 3
