REMARK  7 active torsions:
REMARK  status: ('A' for Active; 'I' for Inactive)
REMARK    1  A    between atoms: C1_1  and  S1_12 
REMARK    2  A    between atoms: C2_2  and  O2_3 
REMARK    3  A    between atoms: C3_4  and  O3_5 
REMARK    4  A    between atoms: C4_6  and  O4_7 
REMARK    5  A    between atoms: C5_8  and  C6_10 
REMARK    6  A    between atoms: C6_10  and  O6_11 
REMARK    7  A    between atoms: S1_12  and  C1'_13 
ROOT
ATOM      1  C1  IPT d         -13.422 -28.745 -27.567  0.00  0.00     0.215 C 
ATOM      2  C2  IPT d         -12.180 -28.548 -26.712  0.00  0.00     0.188 C 
ATOM      3  C3  IPT d         -10.960 -28.351 -27.582  0.00  0.00     0.181 C 
ATOM      4  C4  IPT d         -10.835 -29.489 -28.609  0.00  0.00     0.180 C 
ATOM      5  C5  IPT d         -12.180 -29.530 -29.341  0.00  0.00     0.178 C 
ATOM      6  O5  IPT d         -13.204 -29.853 -28.413  0.00  0.00    -0.363 OA
ENDROOT
BRANCH   1   7
ATOM      7  S1  IPT d         -14.733 -29.264 -26.429  0.00  0.00    -0.131 SA
BRANCH   7   8
ATOM      8  C1' IPT d         -16.274 -28.749 -27.319  0.00  0.00     0.041 C 
ATOM      9  C2' IPT d         -17.453 -28.777 -26.355  0.00  0.00     0.021 C 
ATOM     10  C3' IPT d         -16.563 -29.681 -28.518  0.00  0.00     0.021 C 
ENDBRANCH   7   8
ENDBRANCH   1   7
BRANCH   2  11
ATOM     11  O2  IPT d         -12.324 -27.394 -25.873  0.00  0.00    -0.389 OA
ATOM     12  H3  IPT d         -11.540 -27.287 -25.347  0.00  0.00     0.210 HD
ENDBRANCH   2  11
BRANCH   3  13
ATOM     13  O3  IPT d          -9.779 -28.352 -26.744  0.00  0.00    -0.390 OA
ATOM     14  H5  IPT d          -9.717 -29.183 -26.287  0.00  0.00     0.210 HD
ENDBRANCH   3  13
BRANCH   5  15
ATOM     15  C6  IPT d         -12.340 -30.778 -30.185  0.00  0.00     0.198 C 
BRANCH  15  16
ATOM     16  O6  IPT d         -11.319 -30.616 -31.207  0.00  0.00    -0.398 OA
ATOM     17  H11 IPT d         -11.340 -31.362 -31.795  0.00  0.00     0.209 HD
ENDBRANCH  15  16
ENDBRANCH   5  15
BRANCH   4  18
ATOM     18  O4  IPT d         -10.640 -30.735 -27.907  0.00  0.00    -0.390 OA
ATOM     19  H7  IPT d         -11.383 -30.896 -27.338  0.00  0.00     0.210 HD
ENDBRANCH   4  18
TORSDOF 7
