REMARK  7 active torsions:
REMARK  status: ('A' for Active; 'I' for Inactive)
REMARK    1  A    between atoms: SAU_21  and  NAE_5 
REMARK    2  A    between atoms: CAN_14  and  CAM_13 
REMARK    3  A    between atoms: CAS_19  and  CAN_14 
REMARK       I    between atoms: CAP_16  and  NAO_15 
REMARK    4  A    between atoms: NAO_15  and  CAQ_17 
REMARK    5  A    between atoms: CAS_19  and  CAP_16 
REMARK    6  A    between atoms: CAR_18  and  SAU_21 
REMARK    7  A    between atoms: CAS_19  and  CAT_20 
ROOT
ATOM      1  CAI OY0 d          -3.091   3.255  14.858  0.00  0.00     0.031 A 
ATOM      2  CAJ OY0 d          -5.138   4.449  14.558  0.00  0.00     0.031 A 
ATOM      3  CAK OY0 d          -3.751   2.280  15.599  0.00  0.00     0.027 A 
ATOM      4  CAL OY0 d          -5.818   3.447  15.274  0.00  0.00     0.027 A 
ATOM      5  CAQ OY0 d          -3.753   4.363  14.354  0.00  0.00     0.034 A 
ATOM      6  CAR OY0 d          -5.115   2.341  15.807  0.00  0.00     0.079 A 
ENDROOT
BRANCH   5   7
ATOM      7  NAO OY0 d          -2.938   5.307  13.604  0.00  0.00    -0.327 N 
ATOM      8  CAP OY0 d          -3.491   6.463  12.935  0.00  0.00     0.227 C 
ATOM      9  OAF OY0 d          -4.684   6.693  13.019  0.00  0.00    -0.273 OA
ATOM     10  H23 OY0 d          -1.952   5.149  13.549  0.00  0.00     0.169 HD
BRANCH   8  11
ATOM     11  CAS OY0 d          -2.656   7.423  12.132  0.00  0.00     0.085 C 
BRANCH  11  12
ATOM     12  CAN OY0 d          -1.435   7.754  12.918  0.00  0.00     0.014 C 
BRANCH  12  13
ATOM     13  CAM OY0 d          -1.630   8.119  14.354  0.00  0.00    -0.004 C 
ATOM     14  CAA OY0 d          -0.763   9.203  14.893  0.00  0.00     0.005 C 
ENDBRANCH  12  13
ENDBRANCH  11  12
BRANCH  11  15
ATOM     15  CAT OY0 d          -2.354   6.951  10.723  0.00  0.00    -0.039 C 
ATOM     16  CAB OY0 d          -0.966   6.422  10.607  0.00  0.00     0.015 C 
ATOM     17  CAC OY0 d          -2.471   8.106   9.782  0.00  0.00     0.015 C 
ATOM     18  CAD OY0 d          -3.333   5.895  10.297  0.00  0.00     0.015 C 
ENDBRANCH  11  15
ENDBRANCH   8  11
ENDBRANCH   5   7
BRANCH   6  19
ATOM     19  SAU OY0 d          -5.858   1.013  16.743  0.00  0.00     0.256 S 
ATOM     20  OAG OY0 d          -7.316   1.206  16.632  0.00  0.00    -0.201 OA
ATOM     21  OAH OY0 d          -5.382   1.219  18.121  0.00  0.00    -0.201 OA
BRANCH  19  22
ATOM     22  NAE OY0 d          -5.337  -0.429  16.128  0.00  0.00    -0.324 N 
ATOM     23  H13 OY0 d          -5.589  -0.696  15.198  0.00  0.00     0.169 HD
ATOM     24  H14 OY0 d          -4.770  -1.035  16.686  0.00  0.00     0.169 HD
ENDBRANCH  19  22
ENDBRANCH   6  19
TORSDOF 7
