3qyy_ligand

Created by X-TOOL on Fri Sep 26 17:34:52 2014
 70 76  0  0  0  0  0  0  0  0999 V2000
   66.7230   25.1930   44.4860  P 0  0  0  1  0  4
   66.2450   24.9050   45.8830  O 0  0  0  1  0  1
   65.6480   25.3720   43.4520  O 0  0  0  1  0  1
   67.5990   26.5080   44.4360  O 0  0  0  1  0  2
   68.1470   26.9600   43.1810  C 0  0  0  3  0  4
   68.9550   28.2170   43.4860  C 0  0  0  2  0  4
   68.2450   29.2580   44.1340  O 0  0  0  1  0  2
   70.1490   27.9170   44.3890  C 0  0  0  2  0  4
   71.2480   27.4100   43.6300  O 0  0  0  1  0  2
   70.3720   29.2500   45.0300  C 0  0  0  2  0  4
   71.2830   29.9990   44.2080  O 0  0  0  2  0  2
   69.0220   29.9440   45.1130  C 0  0  0  2  0  4
   68.4190   29.7450   46.4570  N 0  0  0  1  0  3
   67.3260   29.0080   46.7500  C 0  0  0  2  0  3
   67.0370   29.0510   48.0670  N 0  0  0  1  0  2
   67.9450   29.8310   48.6430  C 0  0  0  1  0  3
   68.2160   30.3130   50.0220  C 0  0  0  1  0  3
   67.4710   29.9700   50.9730  O 0  0  0  1  0  1
   69.2770   31.1350   50.2260  N 0  0  0  2  0  3
   70.0970   31.5280   49.2140  C 0  3  0  1  0  3
   71.1320   32.3460   49.4850  N 0  0  0  3  0  3
   69.9040   31.1150   47.9110  N 0  0  0  2  0  3
   68.8640   30.2850   47.5820  C 0  0  0  1  0  3
   72.1450   26.3440   44.4360  P 0  0  0  1  0  4
   72.6260   26.9380   45.7190  O 0  0  0  1  0  1
   73.2460   26.0000   43.4950  O 0  0  0  1  0  1
   71.2940   25.0510   44.7360  O 0  0  0  1  0  2
   70.7590   24.3230   43.6300  C 0  0  0  3  0  4
   69.9580   23.1570   44.1230  C 0  0  0  2  0  4
   70.6760   22.2850   45.0380  O 0  0  0  1  0  2
   68.6810   23.5510   44.8640  C 0  0  0  2  0  4
   67.6180   23.9370   43.9700  O 0  0  0  1  0  2
   68.4010   22.2960   45.6320  C 0  0  0  2  0  4
   67.6190   21.4150   44.8080  O 0  0  0  2  0  2
   69.7570   21.6980   45.9680  C 0  0  0  2  0  4
   70.1000   21.9680   47.3830  N 0  0  0  1  0  3
   70.7470   23.0380   47.9080  C 0  0  0  2  0  3
   70.8700   22.9190   49.2520  N 0  0  0  1  0  2
   70.2950   21.7560   49.6040  C 0  0  0  1  0  3
   70.0610   20.9930   50.8620  C 0  0  0  1  0  3
   70.4460   21.4190   51.9650  O 0  0  0  1  0  1
   69.4090   19.8000   50.7850  N 0  0  0  2  0  3
   68.9650   19.2810   49.5980  C 0  3  0  1  0  3
   68.3210   18.0870   49.5930  N 0  0  0  3  0  3
   69.1510   19.9340   48.4130  N 0  0  0  2  0  3
   69.7960   21.1480   48.3650  C 0  0  0  1  0  3
   67.3365   27.1920   42.4745  H 0  0  0  1  0  1
   68.7984   26.1853   42.7503  H 0  0  0  1  0  1
   69.3237   28.6017   42.5237  H 0  0  0  1  0  1
   69.8868   27.1708   45.1535  H 0  0  0  1  0  1
   70.7944   29.1273   46.0382  H 0  0  0  1  0  1
   72.1054   29.5284   44.1388  H 0  0  0  1  0  1
   69.1050   31.0175   44.8878  H 0  0  0  1  0  1
   66.7496   28.4486   46.0146  H 0  0  0  1  0  1
   69.4623   31.4630   51.1523  H 0  0  0  1  0  1
   71.7598   32.6505   48.7274  H 0  0  0  1  0  1
   71.2957   32.6671   50.4499  H 0  0  0  1  0  1
   70.5505   31.4350   47.1758  H 0  0  0  1  0  1
   71.5841   23.9580   43.0008  H 0  0  0  1  0  1
   70.1111   24.9853   43.0372  H 0  0  0  1  0  1
   69.6769   22.5707   43.2358  H 0  0  0  1  0  1
   68.8724   24.3880   45.5516  H 0  0  0  1  0  1
   67.8488   22.5214   46.5563  H 0  0  0  1  0  1
   66.8020   21.8413   44.5770  H 0  0  0  1  0  1
   69.7342   20.6085   45.8184  H 0  0  0  1  0  1
   71.1183   23.8807   47.3267  H 0  0  0  1  0  1
   69.2485   19.2838   51.6263  H 0  0  0  1  0  1
   67.9831   17.6878   48.7057  H 0  0  0  1  0  1
   68.1700   17.5796   50.4765  H 0  0  0  1  0  1
   68.8026   19.5106   47.5411  H 0  0  0  1  0  1
  1  2  2  0  0  2
  1  3  2  0  0  2
  1  4  1  0  0  1
  1 32  1  0  0  1
  4  5  1  0  0  1
  5  6  1  0  0  1
  6  7  1  0  0  1
  6  8  1  0  0  1
  7 12  1  0  0  1
  8  9  1  0  0  1
  8 10  1  0  0  1
  9 24  1  0  0  1
 10 11  1  0  0  2
 10 12  1  0  0  1
 12 13  1  0  0  2
 13 14  1  0  0  1
 13 23  1  0  0  1
 14 15  2  0  0  1
 15 16  1  0  0  1
 16 17  1  0  0  1
 16 23  2  0  0  1
 17 18  2  0  0  2
 17 19  1  0  0  1
 19 20  4  0  0  1
 20 21  2  0  0  2
 20 22  4  0  0  1
 22 23  1  0  0  1
 24 25  2  0  0  2
 24 26  2  0  0  2
 24 27  1  0  0  1
 27 28  1  0  0  1
 28 29  1  0  0  1
 29 30  1  0  0  1
 29 31  1  0  0  1
 30 35  1  0  0  1
 31 32  1  0  0  1
 31 33  1  0  0  1
 33 34  1  0  0  2
 33 35  1  0  0  1
 35 36  1  0  0  2
 36 37  1  0  0  1
 36 46  1  0  0  1
 37 38  2  0  0  1
 38 39  1  0  0  1
 39 40  1  0  0  1
 39 46  2  0  0  1
 40 41  2  0  0  2
 40 42  1  0  0  1
 42 43  4  0  0  1
 43 44  2  0  0  2
 43 45  4  0  0  1
 45 46  1  0  0  1
  5 47  1  0  0  2
  5 48  1  0  0  2
  6 49  1  0  0  2
  8 50  1  0  0  2
 10 51  1  0  0  2
 11 52  1  0  0  2
 12 53  1  0  0  2
 14 54  1  0  0  2
 19 55  1  0  0  2
 21 56  1  0  0  2
 21 57  1  0  0  2
 22 58  1  0  0  2
 28 59  1  0  0  2
 28 60  1  0  0  2
 29 61  1  0  0  2
 31 62  1  0  0  2
 33 63  1  0  0  2
 34 64  1  0  0  2
 35 65  1  0  0  2
 37 66  1  0  0  2
 42 67  1  0  0  2
 44 68  1  0  0  2
 44 69  1  0  0  2
 45 70  1  0  0  2
M  END
> <MOLECULAR_FORMULA>
C20H24N10O14P2

> <MOLECULAR_WEIGHT>
690.2

> <NUM_HB_ATOMS>
24 

> <NUM_ROTOR>
2  

> <XLOGP2>
-5.53

$$$$
