REMARK  6 active torsions:
REMARK  status: ('A' for Active; 'I' for Inactive)
REMARK    1  A    between atoms: C2'_10  and  O2'_11 
REMARK    2  A    between atoms: C1'_12  and  N9_13 
REMARK    3  A    between atoms: C2_20  and  N2_21 
REMARK    4  A    between atoms: C2A_33  and  O2A_34 
REMARK    5  A    between atoms: C1A_35  and  N91_36 
REMARK    6  A    between atoms: C21_43  and  N21_44 
ROOT
ATOM      1  P1  C2E d          66.723  25.193  44.486  0.00  0.00     0.408 P 
ATOM      2  O2P C2E d          66.245  24.905  45.883  0.00  0.00    -0.624 OA
ATOM      3  O1P C2E d          65.648  25.372  43.452  0.00  0.00    -0.624 OA
ATOM      4  O5' C2E d          67.599  26.508  44.436  0.00  0.00    -0.287 OA
ATOM      5  C5' C2E d          68.147  26.960  43.181  0.00  0.00     0.216 C 
ATOM      6  C4' C2E d          68.955  28.217  43.486  0.00  0.00     0.180 C 
ATOM      7  O4' C2E d          68.245  29.258  44.134  0.00  0.00    -0.353 OA
ATOM      8  C3' C2E d          70.149  27.917  44.389  0.00  0.00     0.198 C 
ATOM      9  O3' C2E d          71.248  27.410  43.630  0.00  0.00    -0.279 OA
ATOM     10  C2' C2E d          70.372  29.250  45.030  0.00  0.00     0.199 C 
ATOM     11  C1' C2E d          69.022  29.944  45.113  0.00  0.00     0.262 C 
ATOM     12  P11 C2E d          72.145  26.344  44.436  0.00  0.00     0.408 P 
ATOM     13  O21 C2E d          72.626  26.938  45.719  0.00  0.00    -0.624 OA
ATOM     14  O11 C2E d          73.246  26.000  43.495  0.00  0.00    -0.624 OA
ATOM     15  O5A C2E d          71.294  25.051  44.736  0.00  0.00    -0.287 OA
ATOM     16  C5A C2E d          70.759  24.323  43.630  0.00  0.00     0.216 C 
ATOM     17  C4A C2E d          69.958  23.157  44.123  0.00  0.00     0.180 C 
ATOM     18  O4A C2E d          70.676  22.285  45.038  0.00  0.00    -0.353 OA
ATOM     19  C3A C2E d          68.681  23.551  44.864  0.00  0.00     0.198 C 
ATOM     20  O3A C2E d          67.618  23.937  43.970  0.00  0.00    -0.279 OA
ATOM     21  C2A C2E d          68.401  22.296  45.632  0.00  0.00     0.199 C 
ATOM     22  C1A C2E d          69.757  21.698  45.968  0.00  0.00     0.262 C 
ENDROOT
BRANCH  11  23
ATOM     23  N9  C2E d          68.419  29.745  46.457  0.00  0.00    -0.295 N 
ATOM     24  C8  C2E d          67.326  29.008  46.750  0.00  0.00     0.214 A 
ATOM     25  N7  C2E d          67.037  29.051  48.067  0.00  0.00    -0.234 NA
ATOM     26  C5  C2E d          67.945  29.831  48.643  0.00  0.00     0.171 A 
ATOM     27  C6  C2E d          68.216  30.313  50.022  0.00  0.00     0.292 A 
ATOM     28  C4  C2E d          68.864  30.285  47.582  0.00  0.00     0.161 A 
ATOM     29  O6  C2E d          67.471  29.970  50.973  0.00  0.00    -0.265 OA
ATOM     30  N1  C2E d          69.277  31.135  50.226  0.00  0.00    -0.154 N 
ATOM     31  C2  C2E d          70.097  31.528  49.214  0.00  0.00     0.680 A 
ATOM     32  H9  C2E d          69.462  31.463  51.152  0.00  0.00     0.187 HD
ATOM     33  N3  C2E d          69.904  31.115  47.911  0.00  0.00    -0.174 N 
ATOM     34  H12 C2E d          70.550  31.435  47.176  0.00  0.00     0.186 HD
BRANCH  31  35
ATOM     35  N2  C2E d          71.132  32.346  49.485  0.00  0.00    -0.234 N 
ATOM     36  H10 C2E d          71.760  32.651  48.727  0.00  0.00     0.174 HD
ATOM     37  H11 C2E d          71.296  32.667  50.450  0.00  0.00     0.174 HD
ENDBRANCH  31  35
ENDBRANCH  11  23
BRANCH  10  38
ATOM     38  O2' C2E d          71.283  29.999  44.208  0.00  0.00    -0.388 OA
ATOM     39  H6  C2E d          72.105  29.528  44.139  0.00  0.00     0.210 HD
ENDBRANCH  10  38
BRANCH  21  40
ATOM     40  O2A C2E d          67.619  21.415  44.808  0.00  0.00    -0.388 OA
ATOM     41  H18 C2E d          66.802  21.841  44.577  0.00  0.00     0.210 HD
ENDBRANCH  21  40
BRANCH  22  42
ATOM     42  N91 C2E d          70.100  21.968  47.383  0.00  0.00    -0.295 N 
ATOM     43  C81 C2E d          70.747  23.038  47.908  0.00  0.00     0.214 A 
ATOM     44  N71 C2E d          70.870  22.919  49.252  0.00  0.00    -0.234 NA
ATOM     45  C51 C2E d          70.295  21.756  49.604  0.00  0.00     0.171 A 
ATOM     46  C61 C2E d          70.061  20.993  50.862  0.00  0.00     0.292 A 
ATOM     47  C41 C2E d          69.796  21.148  48.365  0.00  0.00     0.161 A 
ATOM     48  O61 C2E d          70.446  21.419  51.965  0.00  0.00    -0.265 OA
ATOM     49  N11 C2E d          69.409  19.800  50.785  0.00  0.00    -0.154 N 
ATOM     50  C21 C2E d          68.965  19.281  49.598  0.00  0.00     0.680 A 
ATOM     51  H21 C2E d          69.249  19.284  51.626  0.00  0.00     0.187 HD
ATOM     52  N31 C2E d          69.151  19.934  48.413  0.00  0.00    -0.174 N 
ATOM     53  H24 C2E d          68.803  19.511  47.541  0.00  0.00     0.186 HD
BRANCH  50  54
ATOM     54  N21 C2E d          68.321  18.087  49.593  0.00  0.00    -0.234 N 
ATOM     55  H22 C2E d          67.983  17.688  48.706  0.00  0.00     0.174 HD
ATOM     56  H23 C2E d          68.170  17.580  50.477  0.00  0.00     0.174 HD
ENDBRANCH  50  54
ENDBRANCH  22  42
TORSDOF 6
