REMARK  28 active torsions:
REMARK  status: ('A' for Active; 'I' for Inactive)
REMARK    1  A    between atoms: N4B_30  and  C1A_1 
REMARK    2  A    between atoms: O4C_32  and  C1B_2 
REMARK    3  A    between atoms: O4D_34  and  C1C_3 
REMARK    4  A    between atoms: O4E_36  and  C1D_4 
REMARK    5  A    between atoms: C1E_5  and  O1E_6 
REMARK    6  A    between atoms: C2A_7  and  O2A_8 
REMARK    7  A    between atoms: C2B_9  and  O2B_10 
REMARK    8  A    between atoms: C2C_11  and  O2C_12 
REMARK    9  A    between atoms: C2D_13  and  O2D_14 
REMARK   10  A    between atoms: C2E_15  and  O2E_16 
REMARK   11  A    between atoms: C3A_17  and  O3A_18 
REMARK   12  A    between atoms: C3B_19  and  O3B_20 
REMARK   13  A    between atoms: C3C_21  and  O3C_22 
REMARK   14  A    between atoms: C3D_23  and  O3D_24 
REMARK   15  A    between atoms: C3E_25  and  O3E_26 
REMARK   16  A    between atoms: C4A_27  and  O4A_28 
REMARK   17  A    between atoms: C4B_29  and  N4B_30 
REMARK   18  A    between atoms: C4C_31  and  O4C_32 
REMARK   19  A    between atoms: C4D_33  and  O4D_34 
REMARK   20  A    between atoms: C4E_35  and  O4E_36 
REMARK   21  A    between atoms: C5A_37  and  C6A_46 
REMARK   22  A    between atoms: C5C_40  and  C6C_49 
REMARK   23  A    between atoms: C5D_42  and  C6D_51 
REMARK   24  A    between atoms: C5E_44  and  C6E_53 
REMARK   25  A    between atoms: C6A_46  and  O6A_47 
REMARK   26  A    between atoms: C6C_49  and  O6C_50 
REMARK   27  A    between atoms: C6D_51  and  O6D_52 
REMARK   28  A    between atoms: C6E_53  and  O6E_54 
ROOT
ATOM      1  C1C TXT d          -4.549  -6.651  23.986  0.00  0.00     0.292 C 
ATOM      2  C2C TXT d          -3.599  -7.690  24.590  0.00  0.00     0.204 C 
ATOM      3  C3C TXT d          -3.603  -8.905  23.674  0.00  0.00     0.183 C 
ATOM      4  C4C TXT d          -5.027  -9.513  23.548  0.00  0.00     0.187 C 
ATOM      5  C5C TXT d          -6.046  -8.419  23.180  0.00  0.00     0.180 C 
ATOM      6  O5C TXT d          -5.870  -7.204  23.944  0.00  0.00    -0.348 OA
ENDROOT
BRANCH   1   7
ATOM      7  O4D TXT d          -4.111  -6.317  22.647  0.00  0.00    -0.348 OA
BRANCH   7   8
ATOM      8  C4D TXT d          -4.217  -4.899  22.318  0.00  0.00     0.187 C 
ATOM      9  C3D TXT d          -2.877  -4.427  21.692  0.00  0.00     0.183 C 
ATOM     10  C2D TXT d          -3.021  -2.945  21.299  0.00  0.00     0.204 C 
ATOM     11  C1D TXT d          -4.249  -2.701  20.426  0.00  0.00     0.292 C 
ATOM     12  O5D TXT d          -5.431  -3.193  21.035  0.00  0.00    -0.348 OA
ATOM     13  C5D TXT d          -5.391  -4.577  21.391  0.00  0.00     0.180 C 
BRANCH   9  14
ATOM     14  O3D TXT d          -1.783  -4.567  22.575  0.00  0.00    -0.390 OA
ATOM     15  H24 TXT d          -0.990  -4.272  22.144  0.00  0.00     0.210 HD
ENDBRANCH   9  14
BRANCH  10  16
ATOM     16  O2D TXT d          -1.851  -2.458  20.620  0.00  0.00    -0.388 OA
ATOM     17  H14 TXT d          -1.751  -2.917  19.794  0.00  0.00     0.210 HD
ENDBRANCH  10  16
BRANCH  11  18
ATOM     18  O4E TXT d          -4.068  -3.393  19.178  0.00  0.00    -0.348 OA
BRANCH  18  19
ATOM     19  C4E TXT d          -4.368  -2.625  18.004  0.00  0.00     0.187 C 
ATOM     20  C3E TXT d          -3.069  -2.157  17.330  0.00  0.00     0.183 C 
ATOM     21  C2E TXT d          -3.368  -1.633  15.920  0.00  0.00     0.204 C 
ATOM     22  C1E TXT d          -4.110  -2.671  15.099  0.00  0.00     0.288 C 
ATOM     23  O5E TXT d          -5.366  -2.968  15.742  0.00  0.00    -0.349 OA
ATOM     24  C5E TXT d          -5.218  -3.492  17.084  0.00  0.00     0.180 C 
BRANCH  20  25
ATOM     25  O3E TXT d          -2.370  -1.189  18.124  0.00  0.00    -0.390 OA
ATOM     26  H26 TXT d          -2.204  -1.550  18.987  0.00  0.00     0.210 HD
ENDBRANCH  20  25
BRANCH  21  27
ATOM     27  O2E TXT d          -2.142  -1.182  15.312  0.00  0.00    -0.388 OA
ATOM     28  H16 TXT d          -1.730  -0.537  15.874  0.00  0.00     0.210 HD
ENDBRANCH  21  27
BRANCH  22  29
ATOM     29  O1E TXT d          -3.289  -3.850  15.034  0.00  0.00    -0.369 OA
ATOM     30  H6  TXT d          -2.466  -3.639  14.608  0.00  0.00     0.212 HD
ENDBRANCH  22  29
BRANCH  24  31
ATOM     31  C6E TXT d          -6.650  -3.718  17.595  0.00  0.00     0.198 C 
BRANCH  31  32
ATOM     32  O6E TXT d          -7.356  -2.463  17.649  0.00  0.00    -0.398 OA
ATOM     33  H53 TXT d          -7.390  -2.082  16.779  0.00  0.00     0.209 HD
ENDBRANCH  31  32
ENDBRANCH  24  31
ENDBRANCH  18  19
ENDBRANCH  11  18
BRANCH  13  34
ATOM     34  C6D TXT d          -6.766  -4.842  22.000  0.00  0.00     0.198 C 
BRANCH  34  35
ATOM     35  O6D TXT d          -7.828  -4.692  21.056  0.00  0.00    -0.398 OA
ATOM     36  H50 TXT d          -7.826  -3.804  20.717  0.00  0.00     0.209 HD
ENDBRANCH  34  35
ENDBRANCH  13  34
ENDBRANCH   7   8
ENDBRANCH   1   7
BRANCH   2  37
ATOM     37  O2C TXT d          -2.294  -7.159  24.821  0.00  0.00    -0.388 OA
ATOM     38  H12 TXT d          -1.740  -7.834  25.195  0.00  0.00     0.210 HD
ENDBRANCH   2  37
BRANCH   3  39
ATOM     39  O3C TXT d          -2.571  -9.806  24.143  0.00  0.00    -0.390 OA
ATOM     40  H22 TXT d          -1.729  -9.367  24.109  0.00  0.00     0.210 HD
ENDBRANCH   3  39
BRANCH   5  41
ATOM     41  C6C TXT d          -7.471  -8.895  23.437  0.00  0.00     0.198 C 
BRANCH  41  42
ATOM     42  O6C TXT d          -8.358  -8.175  22.618  0.00  0.00    -0.398 OA
ATOM     43  H47 TXT d          -9.246  -8.471  22.778  0.00  0.00     0.209 HD
ENDBRANCH  41  42
ENDBRANCH   5  41
BRANCH   4  44
ATOM     44  O4C TXT d          -5.137 -10.537  22.532  0.00  0.00    -0.348 OA
BRANCH  44  45
ATOM     45  C1B TXT d          -5.337 -11.935  22.895  0.00  0.00     0.292 C 
ATOM     46  C2B TXT d          -4.570 -12.885  21.942  0.00  0.00     0.204 C 
ATOM     47  C3B TXT d          -5.316 -13.508  20.724  0.00  0.00     0.184 C 
ATOM     48  C4B TXT d          -6.853 -13.386  20.747  0.00  0.00     0.246 C 
ATOM     49  C5B TXT d          -7.444 -12.374  21.746  0.00  0.00     0.154 C 
ATOM     50  O5B TXT d          -6.707 -12.349  22.964  0.00  0.00    -0.351 OA
ATOM     51  C6B TXT d          -8.883 -12.728  22.120  0.00  0.00     0.042 C 
BRANCH  46  52
ATOM     52  O2B TXT d          -3.337 -12.263  21.557  0.00  0.00    -0.388 OA
ATOM     53  H10 TXT d          -3.522 -11.444  21.113  0.00  0.00     0.210 HD
ENDBRANCH  46  52
BRANCH  47  54
ATOM     54  O3B TXT d          -4.785 -13.225  19.386  0.00  0.00    -0.391 OA
ATOM     55  H20 TXT d          -5.324 -13.658  18.735  0.00  0.00     0.210 HD
ENDBRANCH  47  54
BRANCH  48  56
ATOM     56  N4B TXT d          -7.401 -13.281  19.389  0.00  0.00    -0.056 N 
ATOM     57  H30 TXT d          -7.925 -12.422  19.332  0.00  0.00     0.278 HD
ATOM     58  H31 TXT d          -6.627 -13.246  18.744  0.00  0.00     0.278 HD
BRANCH  56  59
ATOM     59  C1A TXT d          -8.275 -14.364  18.979  0.00  0.00     0.240 C 
ATOM     60  C2A TXT d          -7.629 -15.732  18.792  0.00  0.00     0.184 C 
ATOM     61  C3A TXT d          -8.778 -16.568  19.317  0.00  0.00     0.182 C 
ATOM     62  C4A TXT d          -9.884 -16.596  18.249  0.00  0.00     0.180 C 
ATOM     63  C5A TXT d         -10.143 -15.194  17.690  0.00  0.00    -0.027 C 
ATOM     64  C7A TXT d          -9.218 -14.207  17.802  0.00  0.00     0.016 C 
BRANCH  60  65
ATOM     65  O2A TXT d          -6.444 -15.944  19.563  0.00  0.00    -0.390 OA
ATOM     66  H8  TXT d          -5.791 -15.297  19.323  0.00  0.00     0.210 HD
ENDBRANCH  60  65
BRANCH  61  67
ATOM     67  O3A TXT d          -8.312 -17.864  19.706  0.00  0.00    -0.390 OA
ATOM     68  H18 TXT d          -7.657 -17.772  20.388  0.00  0.00     0.210 HD
ENDBRANCH  61  67
BRANCH  62  69
ATOM     69  O4A TXT d         -11.088 -17.188  18.802  0.00  0.00    -0.388 OA
ATOM     70  H28 TXT d         -11.767 -17.202  18.137  0.00  0.00     0.210 HD
ENDBRANCH  62  69
BRANCH  63  71
ATOM     71  C6A TXT d         -11.446 -14.891  16.986  0.00  0.00     0.201 C 
BRANCH  71  72
ATOM     72  O6A TXT d         -11.970 -16.068  16.357  0.00  0.00    -0.397 OA
ATOM     73  H41 TXT d         -12.125 -16.735  17.015  0.00  0.00     0.209 HD
ENDBRANCH  71  72
ENDBRANCH  63  71
ENDBRANCH  56  59
ENDBRANCH  48  56
ENDBRANCH  44  45
ENDBRANCH   4  44
TORSDOF 28
