REMARK  16 active torsions:
REMARK  status: ('A' for Active; 'I' for Inactive)
REMARK    1  A    between atoms: N_1  and  CA_2 
REMARK    2  A    between atoms: CA_2  and  C_3 
REMARK    3  A    between atoms: CA_2  and  CB_5 
REMARK       I    between atoms: C_3  and  N_8 
REMARK    4  A    between atoms: N_8  and  CA_9 
REMARK    5  A    between atoms: CA_9  and  C_10 
REMARK    6  A    between atoms: CA_9  and  CB_12 
REMARK       I    between atoms: C_10  and  N_15 
REMARK    7  A    between atoms: N_15  and  CA_16 
REMARK    8  A    between atoms: CA_16  and  C_17 
REMARK    9  A    between atoms: CA_16  and  CB_19 
REMARK       I    between atoms: C_17  and  N_27 
REMARK   10  A    between atoms: CB_19  and  CG_20 
REMARK   11  A    between atoms: CZ_25  and  OH_26 
REMARK   12  A    between atoms: CA_28  and  C_29 
REMARK       I    between atoms: C_29  and  N_34 
REMARK   13  A    between atoms: N_34  and  CA_35 
REMARK   14  A    between atoms: CA_35  and  C_36 
REMARK   15  A    between atoms: CA_35  and  CB_38 
REMARK   16  A    between atoms: CB_38  and  CG_39 
ROOT
ATOM      1  CA  VAL d          19.681  20.248  51.037  0.00  0.00     0.181 C 
ENDROOT
BRANCH   1   2
ATOM      2  N   VAL d          20.095  18.986  51.634  0.00  0.00    -0.346 N 
ATOM      3  C   VAL d          19.900  18.704  52.920  0.00  0.00     0.241 C 
ATOM      4  O   VAL d          19.654  19.562  53.767  0.00  0.00    -0.271 OA
ATOM      5  H21 VAL d          20.543  18.305  51.055  0.00  0.00     0.163 HD
BRANCH   3   6
ATOM      6  CA  VAL d          20.058  17.234  53.311  0.00  0.00     0.180 C 
BRANCH   6   7
ATOM      7  N   VAL d          20.501  17.051  54.684  0.00  0.00    -0.346 N 
ATOM      8  C   VAL d          21.682  16.519  54.961  0.00  0.00     0.249 C 
ATOM      9  O   VAL d          22.549  16.348  54.105  0.00  0.00    -0.271 OA
ATOM     10  H12 VAL d          19.902  17.332  55.434  0.00  0.00     0.163 HD
BRANCH   8  11
ATOM     11  CA  VAL d          21.922  16.140  56.423  0.00  0.00     0.278 C 
BRANCH  11  12
ATOM     12  N   VAL d          22.662  14.887  56.556  0.00  0.00    -0.066 N 
ATOM     13  H1  VAL d          22.163  14.150  56.083  0.00  0.00     0.275 HD
ATOM     14  H2  VAL d          22.758  14.655  57.532  0.00  0.00     0.275 HD
ATOM     15  H3  VAL d          23.576  14.991  56.144  0.00  0.00     0.275 HD
ENDBRANCH  11  12
BRANCH  11  16
ATOM     16  CB  VAL d          22.634  17.300  57.124  0.00  0.00     0.017 C 
ATOM     17  CG1 VAL d          21.832  18.563  56.945  0.00  0.00     0.012 C 
ATOM     18  CG2 VAL d          22.812  16.993  58.599  0.00  0.00     0.012 C 
ENDBRANCH  11  16
ENDBRANCH   8  11
ENDBRANCH   6   7
BRANCH   6  19
ATOM     19  CB  VAL d          18.728  16.479  53.085  0.00  0.00     0.009 C 
ATOM     20  CG1 VAL d          17.877  17.176  52.056  0.00  0.00     0.012 C 
ATOM     21  CG2 VAL d          18.994  15.018  52.704  0.00  0.00     0.012 C 
ENDBRANCH   6  19
ENDBRANCH   3   6
ENDBRANCH   1   2
BRANCH   1  22
ATOM     22  C   VAL d          18.599  19.951  50.002  0.00  0.00     0.243 C 
ATOM     23  O   VAL d          18.874  19.325  48.977  0.00  0.00    -0.271 OA
ATOM     24  N   VAL d          17.360  20.387  50.271  0.00  0.00    -0.337 N 
ATOM     25  CA  VAL d          16.220  20.125  49.389  0.00  0.00     0.179 C 
ATOM     26  CD  VAL d          16.973  21.222  51.422  0.00  0.00     0.127 C 
ATOM     27  CB  VAL d          15.029  20.456  50.281  0.00  0.00     0.037 C 
ATOM     28  CG  VAL d          15.533  21.574  51.124  0.00  0.00     0.022 C 
BRANCH  25  29
ATOM     29  C   VAL d          16.212  21.049  48.178  0.00  0.00     0.241 C 
ATOM     30  O   VAL d          16.776  22.139  48.235  0.00  0.00    -0.271 OA
ATOM     31  N   VAL d          15.569  20.628  47.098  0.00  0.00    -0.344 N 
ATOM     32  H37 VAL d          15.196  19.701  47.071  0.00  0.00     0.163 HD
BRANCH  31  33
ATOM     33  CA  VAL d          15.404  21.510  45.951  0.00  0.00     0.190 C 
BRANCH  33  34
ATOM     34  C   VAL d          14.112  22.303  46.101  0.00  0.00     0.197 C 
ATOM     35  O   VAL d          13.618  22.453  47.219  0.00  0.00    -0.646 OA
ATOM     36  OXT VAL d          13.543  22.818  45.135  0.00  0.00    -0.646 OA
ENDBRANCH  33  34
BRANCH  33  37
ATOM     37  CB  VAL d          15.424  20.726  44.637  0.00  0.00     0.077 C 
BRANCH  37  38
ATOM     38  CG  VAL d          14.581  19.496  44.652  0.00  0.00    -0.028 A 
ATOM     39  CD1 VAL d          14.978  18.237  44.994  0.00  0.00     0.096 A 
ATOM     40  NE1 VAL d          13.923  17.362  44.887  0.00  0.00    -0.365 N 
ATOM     41  CE2 VAL d          12.816  18.051  44.469  0.00  0.00     0.042 A 
ATOM     42  H42 VAL d          13.959  16.352  45.089  0.00  0.00     0.165 HD
ATOM     43  CD2 VAL d          13.193  19.401  44.312  0.00  0.00    -0.002 A 
ATOM     44  CZ2 VAL d          11.523  17.602  44.220  0.00  0.00     0.030 A 
ATOM     45  CE3 VAL d          12.232  20.327  43.892  0.00  0.00     0.014 A 
ATOM     46  CZ3 VAL d          10.945  19.880  43.646  0.00  0.00     0.001 A 
ATOM     47  CH2 VAL d          10.603  18.529  43.808  0.00  0.00     0.002 A 
ENDBRANCH  37  38
ENDBRANCH  33  37
ENDBRANCH  31  33
ENDBRANCH  25  29
ENDBRANCH   1  22
BRANCH   1  48
ATOM     48  CB  VAL d          20.858  20.952  50.366  0.00  0.00     0.073 C 
BRANCH  48  49
ATOM     49  CG  VAL d          20.533  22.352  49.883  0.00  0.00    -0.056 A 
ATOM     50  CD1 VAL d          20.933  23.469  50.607  0.00  0.00     0.010 A 
ATOM     51  CE1 VAL d          20.635  24.745  50.171  0.00  0.00     0.037 A 
ATOM     52  CZ  VAL d          19.925  24.917  48.997  0.00  0.00     0.065 A 
ATOM     53  CE2 VAL d          19.515  23.824  48.264  0.00  0.00     0.037 A 
ATOM     54  CD2 VAL d          19.815  22.555  48.709  0.00  0.00     0.010 A 
BRANCH  52  55
ATOM     55  OH  VAL d          19.622  26.186  48.554  0.00  0.00    -0.361 OA
ATOM     56  H29 VAL d          19.971  26.825  49.164  0.00  0.00     0.217 HD
ENDBRANCH  52  55
ENDBRANCH  48  49
ENDBRANCH   1  48
TORSDOF 16
