REMARK  8 active torsions:
REMARK  status: ('A' for Active; 'I' for Inactive)
REMARK    1  A    between atoms: CAF_6  and  OAA_1 
REMARK    2  A    between atoms: CAG_7  and  OAB_2 
REMARK    3  A    between atoms: CAJ_10  and  OAC_3 
REMARK    4  A    between atoms: CAK_11  and  OAD_4 
REMARK    5  A    between atoms: CAL_12  and  OAE_5 
REMARK    6  A    between atoms: CAH_8  and  CAF_6 
REMARK    7  A    between atoms: CAM_13  and  CAG_7 
REMARK    8  A    between atoms: NAN_14  and  CAH_8 
ROOT
ATOM      1  CAI MIG d          45.380  91.695  33.478  0.00  0.00     0.269 C 
ATOM      2  CAJ MIG d          46.570  92.656  33.252  0.00  0.00     0.175 C 
ATOM      3  CAK MIG d          47.393  92.821  34.536  0.00  0.00     0.179 C 
ATOM      4  CAL MIG d          46.463  93.333  35.654  0.00  0.00     0.182 C 
ATOM      5  CAM MIG d          45.251  92.390  35.835  0.00  0.00     0.242 C 
ATOM      6  NAN MIG d          44.550  92.283  34.517  0.00  0.00    -0.058 N 
ATOM      7  H18 MIG d          44.392  93.236  34.228  0.00  0.00     0.280 HD
ENDROOT
BRANCH   6   8
ATOM      8  CAH MIG d          43.204  91.670  34.575  0.00  0.00     0.261 C 
BRANCH   8   9
ATOM      9  CAF MIG d          43.223  90.215  35.050  0.00  0.00     0.192 C 
BRANCH   9  10
ATOM     10  OAA MIG d          42.501  89.475  34.070  0.00  0.00    -0.399 OA
ATOM     11  H1  MIG d          42.482  88.558  34.318  0.00  0.00     0.209 HD
ENDBRANCH   9  10
ENDBRANCH   8   9
ENDBRANCH   6   8
BRANCH   5  12
ATOM     12  CAG MIG d          44.264  92.936  36.873  0.00  0.00     0.200 C 
BRANCH  12  13
ATOM     13  OAB MIG d          43.540  94.054  36.293  0.00  0.00    -0.399 OA
ATOM     14  H2  MIG d          42.926  94.398  36.931  0.00  0.00     0.209 HD
ENDBRANCH  12  13
ENDBRANCH   5  12
BRANCH   2  15
ATOM     15  OAC MIG d          47.342  92.197  32.147  0.00  0.00    -0.391 OA
ATOM     16  H3  MIG d          48.074  92.786  32.007  0.00  0.00     0.210 HD
ENDBRANCH   2  15
BRANCH   4  17
ATOM     17  OAE MIG d          47.246  93.438  36.828  0.00  0.00    -0.391 OA
ATOM     18  H5  MIG d          47.959  94.048  36.678  0.00  0.00     0.210 HD
ENDBRANCH   4  17
BRANCH   3  19
ATOM     19  OAD MIG d          48.486  93.759  34.400  0.00  0.00    -0.390 OA
ATOM     20  H4  MIG d          48.956  93.818  35.224  0.00  0.00     0.210 HD
ENDBRANCH   3  19
TORSDOF 8
