REMARK  3 active torsions:
REMARK  status: ('A' for Active; 'I' for Inactive)
REMARK    1  A    between atoms: C6_3  and  O17_17 
REMARK    2  A    between atoms: O7_13  and  C5_4 
REMARK    3  A    between atoms: C8_10  and  O7_13 
ROOT
ATOM      1  C1  TCL d         -22.289  -3.462  27.335  0.00  0.00     0.063 A 
ATOM      2  C2  TCL d         -22.680  -2.360  28.044  0.00  0.00     0.036 A 
ATOM      3  C6  TCL d         -21.227  -4.211  27.793  0.00  0.00     0.101 A 
ATOM      4  C5  TCL d         -20.557  -3.798  29.060  0.00  0.00     0.109 A 
ATOM      5  C4  TCL d         -20.996  -2.681  29.734  0.00  0.00     0.042 A 
ATOM      6  C3  TCL d         -22.061  -1.975  29.219  0.00  0.00     0.027 A 
ATOM      7 CL14 TCL d         -24.048  -1.397  27.430  0.00  0.00    -0.084 Cl
ENDROOT
BRANCH   4   8
ATOM      8  O7  TCL d         -19.517  -4.478  29.626  0.00  0.00    -0.306 OA
BRANCH   8   9
ATOM      9  C8  TCL d         -18.241  -4.216  29.264  0.00  0.00     0.098 A 
ATOM     10  C9  TCL d         -17.242  -5.149  29.806  0.00  0.00     0.069 A 
ATOM     11  C10 TCL d         -15.907  -4.994  29.491  0.00  0.00     0.050 A 
ATOM     12 CL16 TCL d         -17.877  -6.432  30.864  0.00  0.00    -0.081 Cl
ATOM     13  C11 TCL d         -15.571  -3.923  28.641  0.00  0.00     0.035 A 
ATOM     14  C12 TCL d         -16.518  -3.029  28.124  0.00  0.00     0.026 A 
ATOM     15 CL15 TCL d         -13.853  -3.725  28.206  0.00  0.00    -0.084 Cl
ATOM     16  C13 TCL d         -17.867  -3.168  28.430  0.00  0.00     0.041 A 
ENDBRANCH   8   9
ENDBRANCH   4   8
BRANCH   3  17
ATOM     17  O17 TCL d         -20.899  -5.319  27.048  0.00  0.00    -0.358 OA
ATOM     18  H7  TCL d         -21.467  -5.368  26.288  0.00  0.00     0.217 HD
ENDBRANCH   3  17
TORSDOF 3
