3p9t_ligand

Created by X-TOOL on Fri Sep 26 17:34:52 2014
 24 25  0  0  0  0  0  0  0  0999 V2000
  -22.2890   -3.4620   27.3350  C 0  0  0  2  0  3
  -22.6800   -2.3600   28.0440  C 0  0  0  1  0  3
  -21.2270   -4.2110   27.7930  C 0  0  0  1  0  3
  -20.5570   -3.7980   29.0600  C 0  0  0  1  0  3
  -20.9960   -2.6810   29.7340  C 0  0  0  2  0  3
  -22.0610   -1.9750   29.2190  C 0  0  0  2  0  3
  -15.5710   -3.9230   28.6410  C 0  0  0  1  0  3
  -15.9070   -4.9940   29.4910  C 0  0  0  2  0  3
  -17.2420   -5.1490   29.8060  C 0  0  0  1  0  3
  -18.2410   -4.2160   29.2640  C 0  0  0  1  0  3
  -16.5180   -3.0290   28.1240  C 0  0  0  2  0  3
  -17.8670   -3.1680   28.4300  C 0  0  0  2  0  3
  -19.5170   -4.4780   29.6260  O 0  0  0  1  0  2
  -24.0480   -1.3970   27.4300 Cl 0  0  0  1  0  1
  -13.8530   -3.7250   28.2060 Cl 0  0  0  1  0  1
  -17.8770   -6.4320   30.8640 Cl 0  0  0  1  0  1
  -20.8990   -5.3190   27.0480  O 0  0  0  2  0  2
  -22.8074   -3.7424   26.4252  H 0  0  0  1  0  1
  -20.5136   -2.3633   30.6513  H 0  0  0  1  0  1
  -22.4214   -1.0990   29.7461  H 0  0  0  1  0  1
  -15.1513   -5.6666   29.8805  H 0  0  0  1  0  1
  -16.1953   -2.2202   27.4784  H 0  0  0  1  0  1
  -18.6043   -2.4809   28.0309  H 0  0  0  1  0  1
  -21.4669   -5.3677   26.2880  H 0  0  0  1  0  1
  1  2  4  0  0  1
  3  1  4  0  0  1
  6  2  4  0  0  1
  2 14  1  0  0  2
  4  3  4  0  0  1
  3 17  1  0  0  2
  4  5  4  0  0  1
 13  4  1  0  0  2
  5  6  4  0  0  1
  8  7  4  0  0  1
  7 11  4  0  0  1
  7 15  1  0  0  2
  9  8  4  0  0  1
 10  9  4  0  0  1
  9 16  1  0  0  2
 10 12  4  0  0  1
 10 13  1  0  0  2
 11 12  4  0  0  1
  1 18  1  0  0  2
  5 19  1  0  0  2
  6 20  1  0  0  2
  8 21  1  0  0  2
 11 22  1  0  0  2
 12 23  1  0  0  2
 17 24  1  0  0  2
M  END
> <MOLECULAR_FORMULA>
C12H7O2Cl3

> <MOLECULAR_WEIGHT>
289.5

> <NUM_HB_ATOMS>
2  

> <NUM_ROTOR>
2  

> <XLOGP2>
4.90 

$$$$
