REMARK  4 active torsions:
REMARK  status: ('A' for Active; 'I' for Inactive)
REMARK    1  A    between atoms: C2_2  and  S10_10 
REMARK    2  A    between atoms: C5_5  and  N14_14 
REMARK    3  A    between atoms: S10_10  and  N13_13 
REMARK    4  A    between atoms: N14_14  and  C18_18 
ROOT
ATOM      1  S1  ETS d          15.239   3.618  15.778  0.00  0.00    -0.064 SA
ATOM      2  C2  ETS d          16.256   2.260  15.968  0.00  0.00     0.121 A 
ATOM      3  C3  ETS d          17.572   2.447  15.365  0.00  0.00     0.044 A 
ATOM      4  C4  ETS d          17.521   3.762  14.781  0.00  0.00     0.003 A 
ATOM      5  C5  ETS d          18.793   4.179  14.070  0.00  0.00     0.222 C 
ATOM      6  C6  ETS d          18.874   5.686  13.917  0.00  0.00     0.058 C 
ATOM      7  C7  ETS d          17.635   6.313  13.356  0.00  0.00     0.112 C 
ATOM      8  S8  ETS d          16.188   6.067  14.338  0.00  0.00     0.186 S 
ATOM      9  C9  ETS d          16.372   4.457  14.951  0.00  0.00     0.110 A 
ATOM     10  C15 ETS d          17.397   5.696  12.024  0.00  0.00     0.026 C 
ATOM     11  O16 ETS d          16.233   6.990  15.464  0.00  0.00    -0.222 OA
ATOM     12  O17 ETS d          15.013   6.134  13.507  0.00  0.00    -0.222 OA
ENDROOT
BRANCH   2  13
ATOM     13  S10 ETS d          15.659   0.892  16.904  0.00  0.00     0.263 S 
ATOM     14  O11 ETS d          16.195   1.065  18.234  0.00  0.00    -0.200 OA
ATOM     15  O12 ETS d          14.189   1.017  16.842  0.00  0.00    -0.200 OA
BRANCH  13  16
ATOM     16  N13 ETS d          16.220  -0.459  16.266  0.00  0.00    -0.324 N 
ATOM     17  H6  ETS d          15.980  -1.341  16.672  0.00  0.00     0.169 HD
ATOM     18  H7  ETS d          16.811  -0.424  15.460  0.00  0.00     0.169 HD
ENDBRANCH  13  16
ENDBRANCH   2  13
BRANCH   5  19
ATOM     19  N14 ETS d          18.791   3.405  12.849  0.00  0.00    -0.067 N 
ATOM     20  H8  ETS d          18.044   3.750  12.268  0.00  0.00     0.277 HD
ATOM     21  H9  ETS d          18.610   2.444  13.094  0.00  0.00     0.277 HD
BRANCH  19  22
ATOM     22  C18 ETS d          19.995   3.438  12.077  0.00  0.00     0.228 C 
ATOM     23  C19 ETS d          20.123   2.359  11.051  0.00  0.00     0.034 C 
ENDBRANCH  19  22
ENDBRANCH   5  19
TORSDOF 4
