REMARK  3 active torsions:
REMARK  status: ('A' for Active; 'I' for Inactive)
REMARK    1  A    between atoms: C1_1  and  C7_11 
REMARK    2  A    between atoms: C7_11  and  N1_6 
REMARK    3  A    between atoms: C4_8  and  P1_12 
ROOT
ATOM      1  C1  MOL d          -1.592  14.661  50.887  0.00  0.00     0.007 A 
ATOM      2  C2  MOL d          -1.839  13.241  50.913  0.00  0.00     0.016 A 
ATOM      3  C3  MOL d          -1.364  12.424  49.853  0.00  0.00     0.019 A 
ATOM      4  C4  MOL d          -0.640  13.016  48.752  0.00  0.00     0.030 A 
ATOM      5  C5  MOL d          -0.402  14.462  48.724  0.00  0.00     0.019 A 
ATOM      6  C6  MOL d          -0.877  15.262  49.798  0.00  0.00     0.016 A 
ENDROOT
BRANCH   1   7
ATOM      7  C7  MOL d          -2.079  15.495  52.013  0.00  0.00     0.102 C 
ATOM      8  N2  MOL d          -2.749  14.959  53.002  0.00  0.00    -0.385 N 
ATOM      9  H5  MOL d          -2.948  13.948  53.001  0.00  0.00     0.157 HD
ATOM     10  H6  MOL d          -3.077  15.548  53.781  0.00  0.00     0.157 HD
BRANCH   7  11
ATOM     11  N1  MOL d          -1.834  16.755  52.019  0.00  0.00    -0.385 N 
ATOM     12  H3  MOL d          -2.169  17.341  52.797  0.00  0.00     0.157 HD
ATOM     13  H4  MOL d          -1.303  17.180  51.246  0.00  0.00     0.157 HD
ENDBRANCH   7  11
ENDBRANCH   1   7
BRANCH   4  14
ATOM     14  P1  MOL d          -0.036  11.918  47.419  0.00  0.00     0.136 P 
ATOM     15  O1  MOL d          -1.128  10.890  47.107  0.00  0.00    -0.664 OA
ATOM     16  O2  MOL d           0.237  12.733  46.132  0.00  0.00    -0.664 OA
ATOM     17  C8  MOL d           1.515  11.120  48.046  0.00  0.00     0.124 C 
ENDBRANCH   4  14
TORSDOF 3
