REMARK  9 active torsions:
REMARK  status: ('A' for Active; 'I' for Inactive)
REMARK    1  A    between atoms: O3A_8  and  PB_1 
REMARK    2  A    between atoms: PA_5  and  O3A_8 
REMARK    3  A    between atoms: PA_5  and  O5'_9 
REMARK    4  A    between atoms: O5'_9  and  C5'_10 
REMARK    5  A    between atoms: C5'_10  and  C4'_11 
REMARK    6  A    between atoms: C3'_13  and  O3'_14 
REMARK    7  A    between atoms: C2'_15  and  O2'_16 
REMARK    8  A    between atoms: C1'_17  and  N9_18 
REMARK    9  A    between atoms: C6_22  and  N6_23 
ROOT
ATOM      1  C4' ADP d          19.364  34.552  17.421  0.00  0.00     0.180 C 
ATOM      2  O4' ADP d          20.581  35.119  16.973  0.00  0.00    -0.353 OA
ATOM      3  C3' ADP d          18.478  35.797  17.797  0.00  0.00     0.182 C 
ATOM      4  C2' ADP d          19.140  36.921  17.033  0.00  0.00     0.198 C 
ATOM      5  C1' ADP d          20.593  36.498  17.224  0.00  0.00     0.262 C 
ENDROOT
BRANCH   5   6
ATOM      6  N9  ADP d          21.493  37.188  16.280  0.00  0.00    -0.294 N 
ATOM      7  C8  ADP d          21.536  37.310  14.910  0.00  0.00     0.214 A 
ATOM      8  N7  ADP d          22.427  38.173  14.475  0.00  0.00    -0.236 NA
ATOM      9  C5  ADP d          23.007  38.632  15.666  0.00  0.00     0.149 A 
ATOM     10  C6  ADP d          24.014  39.552  15.895  0.00  0.00     0.155 A 
ATOM     11  C4  ADP d          22.454  38.033  16.739  0.00  0.00     0.167 A 
ATOM     12  N1  ADP d          24.381  39.786  17.173  0.00  0.00    -0.222 NA
ATOM     13  C2  ADP d          23.764  39.125  18.131  0.00  0.00     0.237 A 
ATOM     14  N3  ADP d          22.792  38.229  18.042  0.00  0.00    -0.222 NA
BRANCH  10  15
ATOM     15  N6  ADP d          24.530  40.199  14.854  0.00  0.00    -0.382 N 
ATOM     16  H10 ADP d          25.281  40.889  14.997  0.00  0.00     0.157 HD
ATOM     17  H11 ADP d          24.179  40.010  13.904  0.00  0.00     0.157 HD
ENDBRANCH  10  15
ENDBRANCH   5   6
BRANCH   4  18
ATOM     18  O2' ADP d          18.906  38.185  17.683  0.00  0.00    -0.388 OA
ATOM     19  H7  ADP d          19.264  38.158  18.563  0.00  0.00     0.210 HD
ENDBRANCH   4  18
BRANCH   1  20
ATOM     20  C5' ADP d          18.998  33.694  16.238  0.00  0.00     0.216 C 
BRANCH  20  21
ATOM     21  O5' ADP d          19.763  32.530  16.229  0.00  0.00    -0.287 OA
BRANCH  21  22
ATOM     22  PA  ADP d          19.522  31.460  15.138  0.00  0.00     0.418 P 
ATOM     23  O1A ADP d          20.516  30.358  15.203  0.00  0.00    -0.624 OA
ATOM     24  O2A ADP d          19.300  32.162  13.845  0.00  0.00    -0.624 OA
BRANCH  22  25
ATOM     25  O3A ADP d          18.151  30.909  15.828  0.00  0.00    -0.173 OA
BRANCH  25  26
ATOM     26  PB  ADP d          17.664  29.516  16.465  0.00  0.00     0.431 P 
ATOM     27  O1B ADP d          17.304  29.912  17.852  0.00  0.00    -0.616 OA
ATOM     28  O2B ADP d          18.736  28.520  16.405  0.00  0.00    -0.616 OA
ATOM     29  O3B ADP d          16.494  29.123  15.661  0.00  0.00    -0.616 OA
ENDBRANCH  25  26
ENDBRANCH  22  25
ENDBRANCH  21  22
ENDBRANCH  20  21
ENDBRANCH   1  20
BRANCH   3  30
ATOM     30  O3' ADP d          18.637  35.942  19.199  0.00  0.00    -0.390 OA
ATOM     31  H5  ADP d          18.124  36.683  19.500  0.00  0.00     0.210 HD
ENDBRANCH   3  30
TORSDOF 9
