REMARK  4 active torsions:
REMARK  status: ('A' for Active; 'I' for Inactive)
REMARK    1  A    between atoms: C3_3  and  O3_11 
REMARK    2  A    between atoms: C4_4  and  O4_12 
REMARK    3  A    between atoms: C5_5  and  C6_6 
REMARK    4  A    between atoms: C6_6  and  O6_14 
ROOT
ATOM      1  C1  NGT d2000      35.493  19.209 -15.881  0.00  0.00     0.216 C 
ATOM      2  C2  NGT d2000      35.326  18.204 -17.077  0.00  0.00     0.179 C 
ATOM      3  C3  NGT d2000      34.765  16.805 -16.676  0.00  0.00     0.177 C 
ATOM      4  C4  NGT d2000      35.409  16.275 -15.390  0.00  0.00     0.180 C 
ATOM      5  C5  NGT d2000      35.169  17.318 -14.297  0.00  0.00     0.178 C 
ATOM      6  C7  NGT d2000      33.526  19.740 -17.433  0.00  0.00     0.064 C 
ATOM      7  C8  NGT d2000      32.431  20.494 -18.158  0.00  0.00     0.078 C 
ATOM      8  N2  NGT d2000      34.334  18.846 -18.020  0.00  0.00    -0.276 NA
ATOM      9  S1  NGT d2000      33.881  19.988 -15.768  0.00  0.00    -0.081 SA
ATOM     10  O5  NGT d2000      35.876  18.566 -14.658  0.00  0.00    -0.363 OA
ENDROOT
BRANCH   5  11
ATOM     11  C6  NGT d2000      35.672  16.845 -12.935  0.00  0.00     0.198 C 
BRANCH  11  12
ATOM     12  O6  NGT d2000      35.337  17.872 -12.003  0.00  0.00    -0.398 OA
ATOM     13  H13 NGT d2000      35.761  18.682 -12.260  0.00  0.00     0.209 HD
ENDBRANCH  11  12
ENDBRANCH   5  11
BRANCH   4  14
ATOM     14  O4  NGT d2000      34.820  15.005 -15.053  0.00  0.00    -0.390 OA
ATOM     15  H12 NGT d2000      34.988  14.384 -15.752  0.00  0.00     0.210 HD
ENDBRANCH   4  14
BRANCH   3  16
ATOM     16  O3  NGT d2000      34.959  15.841 -17.724  0.00  0.00    -0.391 OA
ATOM     17  H11 NGT d2000      34.553  15.019 -17.476  0.00  0.00     0.210 HD
ENDBRANCH   3  16
TORSDOF 4
