REMARK  16 active torsions:
REMARK  status: ('A' for Active; 'I' for Inactive)
REMARK    1  A    between atoms: C1_1  and  C2_4 
REMARK    2  A    between atoms: C2_4  and  C3_5 
REMARK    3  A    between atoms: C3_5  and  C4_6 
REMARK    4  A    between atoms: C4_6  and  C5_7 
REMARK    5  A    between atoms: C5_7  and  C6_8 
REMARK    6  A    between atoms: C6_8  and  C7_9 
REMARK    7  A    between atoms: C7_9  and  C8_10 
REMARK    8  A    between atoms: C8_10  and  C9_11 
REMARK    9  A    between atoms: C9_11  and  C10_12 
REMARK   10  A    between atoms: C10_12  and  C11_13 
REMARK   11  A    between atoms: C11_13  and  C12_14 
REMARK   12  A    between atoms: C12_14  and  C13_15 
REMARK   13  A    between atoms: C13_15  and  C14_16 
REMARK   14  A    between atoms: C14_16  and  C15_17 
REMARK   15  A    between atoms: C15_17  and  C16_18 
REMARK   16  A    between atoms: C16_18  and  C17_19 
ROOT
ATOM      1  C8  STE d          22.312  34.887  58.510  0.00  0.00     0.000 C 
ENDROOT
BRANCH   1   2
ATOM      2  C7  STE d          23.417  34.451  57.545  0.00  0.00     0.000 C 
BRANCH   2   3
ATOM      3  C6  STE d          23.534  35.332  56.339  0.00  0.00     0.000 C 
BRANCH   3   4
ATOM      4  C5  STE d          22.334  35.382  55.440  0.00  0.00     0.000 C 
BRANCH   4   5
ATOM      5  C4  STE d          21.956  34.081  54.790  0.00  0.00     0.001 C 
BRANCH   5   6
ATOM      6  C3  STE d          20.932  34.263  53.667  0.00  0.00     0.010 C 
BRANCH   6   7
ATOM      7  C2  STE d          20.059  33.155  53.319  0.00  0.00     0.113 C 
BRANCH   7   8
ATOM      8  C1  STE d          19.059  33.240  52.247  0.00  0.00     0.172 C 
ATOM      9  OXT STE d          18.999  34.252  51.570  0.00  0.00    -0.648 OA
ATOM     10  O   STE d          18.383  32.247  52.074  0.00  0.00    -0.648 OA
ENDBRANCH   7   8
ENDBRANCH   6   7
ENDBRANCH   5   6
ENDBRANCH   4   5
ENDBRANCH   3   4
ENDBRANCH   2   3
ENDBRANCH   1   2
BRANCH   1  11
ATOM     11  C9  STE d          22.118  33.940  59.640  0.00  0.00     0.000 C 
BRANCH  11  12
ATOM     12  C10 STE d          21.237  34.529  60.741  0.00  0.00     0.000 C 
BRANCH  12  13
ATOM     13  C11 STE d          19.925  35.023  60.159  0.00  0.00     0.000 C 
BRANCH  13  14
ATOM     14  C12 STE d          19.184  34.008  59.369  0.00  0.00     0.000 C 
BRANCH  14  15
ATOM     15  C13 STE d          17.705  34.094  59.394  0.00  0.00     0.000 C 
BRANCH  15  16
ATOM     16  C14 STE d          17.002  34.893  58.383  0.00  0.00     0.000 C 
BRANCH  16  17
ATOM     17  C15 STE d          17.078  34.335  56.971  0.00  0.00     0.000 C 
BRANCH  17  18
ATOM     18  C16 STE d          16.780  35.466  55.970  0.00  0.00    -0.000 C 
BRANCH  18  19
ATOM     19  C17 STE d          16.099  36.593  56.719  0.00  0.00    -0.005 C 
ATOM     20  C18 STE d          16.704  37.939  56.339  0.00  0.00     0.005 C 
ENDBRANCH  18  19
ENDBRANCH  17  18
ENDBRANCH  16  17
ENDBRANCH  15  16
ENDBRANCH  14  15
ENDBRANCH  13  14
ENDBRANCH  12  13
ENDBRANCH  11  12
ENDBRANCH   1  11
TORSDOF 16
