REMARK  7 active torsions:
REMARK  status: ('A' for Active; 'I' for Inactive)
REMARK    1  A    between atoms: C1_1  and  O8_8 
REMARK    2  A    between atoms: C2_2  and  N7_7 
REMARK    3  A    between atoms: C5_5  and  C17_17 
REMARK    4  A    between atoms: O8_8  and  C9_9 
REMARK    5  A    between atoms: C9_9  and  C10_10 
REMARK    6  A    between atoms: C11_11  and  C25_25 
REMARK    7  A    between atoms: C18_18  and  O23_23 
REMARK       I    between atoms: C25_25  and  N26_26 
ROOT
ATOM      1  C1  YPW d          29.979  44.636   9.220  0.00  0.00     0.212 A 
ATOM      2  C2  YPW d          28.900  44.315  10.064  0.00  0.00     0.174 A 
ATOM      3  N3  YPW d          27.854  45.196  10.176  0.00  0.00    -0.237 NA
ATOM      4  C4  YPW d          27.890  46.372   9.467  0.00  0.00     0.151 A 
ATOM      5  C5  YPW d          28.958  46.711   8.623  0.00  0.00     0.091 A 
ATOM      6  N6  YPW d          30.009  45.812   8.512  0.00  0.00    -0.219 NA
ENDROOT
BRANCH   1   7
ATOM      7  O8  YPW d          31.016  43.708   9.137  0.00  0.00    -0.322 OA
BRANCH   7   8
ATOM      8  C9  YPW d          32.142  43.983   8.265  0.00  0.00     0.160 C 
ATOM      9  C29 YPW d          32.803  42.617   8.015  0.00  0.00     0.045 C 
BRANCH   8  10
ATOM     10  C10 YPW d          33.151  44.993   8.840  0.00  0.00    -0.011 A 
ATOM     11  C11 YPW d          33.793  46.024   8.034  0.00  0.00     0.041 A 
ATOM     12  C12 YPW d          34.726  46.931   8.642  0.00  0.00     0.021 A 
ATOM     13  C13 YPW d          35.033  46.835  10.022  0.00  0.00     0.043 A 
ATOM     14  C14 YPW d          34.416  45.836  10.804  0.00  0.00     0.117 A 
ATOM     15  C15 YPW d          33.491  44.926  10.240  0.00  0.00     0.053 A 
ATOM     16  F16 YPW d          34.707  45.747  12.106  0.00  0.00    -0.206 F 
BRANCH  11  17
ATOM     17  C25 YPW d          33.534  46.195   6.557  0.00  0.00     0.251 C 
ATOM     18  N26 YPW d          33.344  47.506   6.121  0.00  0.00    -0.361 N 
ATOM     19  C28 YPW d          33.097  47.841   4.731  0.00  0.00     0.149 C 
ATOM     20  H   YPW d          33.379  48.245   6.794  0.00  0.00     0.162 HD
ATOM     21  O27 YPW d          33.518  45.201   5.831  0.00  0.00    -0.268 OA
ENDBRANCH  11  17
ENDBRANCH   8  10
ENDBRANCH   7   8
ENDBRANCH   1   7
BRANCH   2  22
ATOM     22  N7  YPW d          28.874  43.114  10.787  0.00  0.00    -0.380 N 
ATOM     23  H   YPW d          28.074  42.899  11.399  0.00  0.00     0.157 HD
ATOM     24  H   YPW d          29.655  42.447  10.706  0.00  0.00     0.157 HD
ENDBRANCH   2  22
BRANCH   5  25
ATOM     25  C17 YPW d          29.069  47.979   7.838  0.00  0.00     0.047 A 
ATOM     26  C18 YPW d          27.985  48.781   7.338  0.00  0.00     0.176 A 
ATOM     27  N19 YPW d          28.175  49.958   6.619  0.00  0.00    -0.236 NA
ATOM     28  C20 YPW d          29.452  50.383   6.370  0.00  0.00     0.119 A 
ATOM     29  C21 YPW d          30.584  49.694   6.803  0.00  0.00     0.020 A 
ATOM     30  C22 YPW d          30.374  48.496   7.534  0.00  0.00     0.020 A 
BRANCH  26  31
ATOM     31  O23 YPW d          26.682  48.356   7.590  0.00  0.00    -0.339 OA
ATOM     32  C24 YPW d          25.618  49.182   7.090  0.00  0.00     0.211 C 
ENDBRANCH  26  31
ENDBRANCH   5  25
TORSDOF 7
