REMARK  4 active torsions:
REMARK  status: ('A' for Active; 'I' for Inactive)
REMARK    1  A    between atoms: C7_7  and  C1_1 
REMARK    2  A    between atoms: C7_7  and  N1_10 
REMARK    3  A    between atoms: C8_8  and  C9_9 
REMARK    4  A    between atoms: C9_9  and  C8'_20 
ROOT
ATOM      1  C1  BAI d          45.321  19.468  52.868  0.00  0.00     0.009 A 
ATOM      2  C2  BAI d          44.678  19.061  51.640  0.00  0.00     0.017 A 
ATOM      3  C3  BAI d          44.248  20.000  50.681  0.00  0.00     0.035 A 
ATOM      4  C4  BAI d          44.490  21.322  50.991  0.00  0.00     0.085 A 
ATOM      5  C5  BAI d          45.086  21.715  52.125  0.00  0.00     0.063 A 
ATOM      6  C6  BAI d          45.514  20.851  53.082  0.00  0.00     0.047 A 
ATOM      7  C8  BAI d          44.617  23.436  51.008  0.00  0.00     0.112 A 
ATOM      8  N3  BAI d          44.209  22.404  50.317  0.00  0.00    -0.233 NA
ATOM      9  N4  BAI d          45.156  23.019  52.112  0.00  0.00    -0.342 N 
ATOM     10  H10 BAI d          45.566  23.611  52.848  0.00  0.00     0.167 HD
ENDROOT
BRANCH   7  11
ATOM     11  C9  BAI d          44.442  24.935  50.572  0.00  0.00     0.157 C 
BRANCH  11  12
ATOM     12  C8' BAI d          44.725  25.274  49.056  0.00  0.00     0.112 A 
ATOM     13  N4' BAI d          44.304  24.534  48.068  0.00  0.00    -0.233 NA
ATOM     14  C5' BAI d          44.691  25.043  46.946  0.00  0.00     0.085 A 
ATOM     15  C4' BAI d          45.390  26.169  47.260  0.00  0.00     0.062 A 
ATOM     16  C6' BAI d          44.474  24.575  45.658  0.00  0.00     0.034 A 
ATOM     17  N3' BAI d          45.396  26.288  48.574  0.00  0.00    -0.342 N 
ATOM     18  C3' BAI d          45.960  26.966  46.283  0.00  0.00     0.032 A 
ATOM     19  H15 BAI d          45.845  27.039  49.118  0.00  0.00     0.167 HD
ATOM     20  C2' BAI d          45.772  26.536  44.940  0.00  0.00     0.002 A 
ATOM     21  C1' BAI d          45.037  25.351  44.631  0.00  0.00     0.002 A 
ENDBRANCH  11  12
ENDBRANCH   7  11
BRANCH   1  22
ATOM     22  C7  BAI d          45.743  18.567  53.849  0.00  0.00     0.102 C 
ATOM     23  N2  BAI d          45.289  17.348  53.845  0.00  0.00    -0.385 N 
ATOM     24  H8  BAI d          44.614  17.052  53.125  0.00  0.00     0.157 HD
ATOM     25  H9  BAI d          45.604  16.679  54.562  0.00  0.00     0.157 HD
BRANCH  22  26
ATOM     26  N1  BAI d          46.596  18.946  54.757  0.00  0.00    -0.385 N 
ATOM     27  H6  BAI d          46.907  18.282  55.480  0.00  0.00     0.157 HD
ATOM     28  H7  BAI d          46.959  19.910  54.752  0.00  0.00     0.157 HD
ENDBRANCH  22  26
ENDBRANCH   1  22
TORSDOF 4
