REMARK  4 active torsions:
REMARK  status: ('A' for Active; 'I' for Inactive)
REMARK    1  A    between atoms: C2_2  and  C1_18 
REMARK    2  A    between atoms: C13_16  and  C4_4 
REMARK    3  A    between atoms: C5_5  and  C7_7 
REMARK    4  A    between atoms: C12_21  and  S1_24 
ROOT
ATOM      1  N2  MOL d         -13.781  13.918  41.364  0.00  0.00    -0.338 N 
ATOM      2  C2  MOL d         -12.542  14.061  40.951  0.00  0.00     0.139 C 
ATOM      3  N1  MOL d         -12.353  13.572  39.746  0.00  0.00    -0.227 NA
ATOM      4  C4  MOL d         -13.527  12.788  39.447  0.00  0.00     0.097 C 
ATOM      5  C5  MOL d         -14.412  13.009  40.440  0.00  0.00     0.074 C 
ATOM      6  H1  MOL d         -14.215  14.366  42.184  0.00  0.00     0.167 HD
ENDROOT
BRANCH   2   7
ATOM      7  C1  MOL d         -11.417  14.684  41.731  0.00  0.00     0.010 A 
ATOM      8  C6  MOL d         -11.235  14.399  43.068  0.00  0.00     0.017 A 
ATOM      9  C20 MOL d         -10.216  14.985  43.780  0.00  0.00     0.022 A 
ATOM     10  C12 MOL d          -9.369  15.900  43.212  0.00  0.00     0.031 A 
ATOM     11  C3  MOL d          -9.520  16.178  41.869  0.00  0.00     0.022 A 
ATOM     12  C9  MOL d         -10.534  15.573  41.132  0.00  0.00     0.017 A 
BRANCH  10  13
ATOM     13  S1  MOL d          -8.236  16.743  44.198  0.00  0.00     0.045 S 
ATOM     14  C21 MOL d          -7.118  16.094  45.348  0.00  0.00     0.133 C 
ATOM     15  O1  MOL d          -8.302  18.216  43.982  0.00  0.00    -0.253 OA
ENDBRANCH  10  13
ENDBRANCH   2   7
BRANCH   5  16
ATOM     16  C7  MOL d         -15.751  12.442  40.694  0.00  0.00    -0.004 A 
ATOM     17  C14 MOL d         -16.812  13.236  41.122  0.00  0.00     0.033 A 
ATOM     18  C18 MOL d         -18.046  12.646  41.405  0.00  0.00     0.117 A 
ATOM     19  N5  MOL d         -18.289  11.348  41.294  0.00  0.00    -0.273 NA
ATOM     20  C10 MOL d         -17.262  10.606  40.878  0.00  0.00     0.117 A 
ATOM     21  C16 MOL d         -15.996  11.090  40.567  0.00  0.00     0.033 A 
ENDBRANCH   5  16
BRANCH   4  22
ATOM     22  C13 MOL d         -13.578  11.876  38.288  0.00  0.00    -0.005 A 
ATOM     23  C19 MOL d         -14.622  11.885  37.382  0.00  0.00     0.017 A 
ATOM     24  C15 MOL d         -14.671  10.976  36.352  0.00  0.00     0.043 A 
ATOM     25  C8  MOL d         -13.674  10.051  36.235  0.00  0.00     0.116 A 
ATOM     26  F1  MOL d         -13.896   9.015  35.460  0.00  0.00    -0.206 F 
ATOM     27  C17 MOL d         -12.608  10.039  37.100  0.00  0.00     0.043 A 
ATOM     28  C11 MOL d         -12.573  10.948  38.118  0.00  0.00     0.017 A 
ENDBRANCH   4  22
TORSDOF 4
