REMARK  7 active torsions:
REMARK  status: ('A' for Active; 'I' for Inactive)
REMARK    1  A    between atoms: P_1  and  O5'_5 
REMARK    2  A    between atoms: O5'_5  and  C5'_6 
REMARK    3  A    between atoms: C5'_6  and  C4'_7 
REMARK    4  A    between atoms: C3'_9  and  O3'_10 
REMARK    5  A    between atoms: C2'_11  and  O2'_12 
REMARK    6  A    between atoms: C1'_13  and  N9_14 
REMARK    7  A    between atoms: C6_18  and  N6_19 
ROOT
ATOM      1  C4' AMP d          20.158  -8.034  12.747  0.00  0.00     0.180 C 
ATOM      2  O4' AMP d          18.838  -7.873  13.387  0.00  0.00    -0.353 OA
ATOM      3  C3' AMP d          21.156  -8.420  13.903  0.00  0.00     0.182 C 
ATOM      4  C2' AMP d          20.476  -7.762  15.159  0.00  0.00     0.198 C 
ATOM      5  C1' AMP d          18.988  -7.764  14.820  0.00  0.00     0.262 C 
ENDROOT
BRANCH   5   6
ATOM      6  N9  AMP d          18.317  -8.756  15.483  0.00  0.00    -0.294 N 
ATOM      7  C8  AMP d          18.029 -10.062  15.034  0.00  0.00     0.214 A 
ATOM      8  N7  AMP d          17.368 -10.707  15.954  0.00  0.00    -0.236 NA
ATOM      9  C5  AMP d          17.192  -9.885  17.020  0.00  0.00     0.149 A 
ATOM     10  C6  AMP d          16.573 -10.014  18.268  0.00  0.00     0.155 A 
ATOM     11  C4  AMP d          17.788  -8.662  16.727  0.00  0.00     0.167 A 
ATOM     12  N1  AMP d          16.587  -8.923  19.152  0.00  0.00    -0.222 NA
ATOM     13  C2  AMP d          17.213  -7.703  18.796  0.00  0.00     0.237 A 
ATOM     14  N3  AMP d          17.821  -7.536  17.593  0.00  0.00    -0.222 NA
BRANCH  10  15
ATOM     15  N6  AMP d          15.962 -11.165  18.640  0.00  0.00    -0.382 N 
ATOM     16  H10 AMP d          15.513 -11.234  19.565  0.00  0.00     0.157 HD
ATOM     17  H11 AMP d          15.946 -11.970  17.998  0.00  0.00     0.157 HD
ENDBRANCH  10  15
ENDBRANCH   5   6
BRANCH   4  18
ATOM     18  O2' AMP d          20.956  -6.292  15.231  0.00  0.00    -0.388 OA
ATOM     19  H7  AMP d          21.902  -6.273  15.317  0.00  0.00     0.210 HD
ENDBRANCH   4  18
BRANCH   1  20
ATOM     20  C5' AMP d          20.099  -9.007  11.852  0.00  0.00     0.217 C 
BRANCH  20  21
ATOM     21  O5' AMP d          19.318  -8.505  10.642  0.00  0.00    -0.280 OA
BRANCH  21  22
ATOM     22  P   AMP d          19.236  -9.394   9.262  0.00  0.00     0.422 P 
ATOM     23  O1P AMP d          18.369  -8.694   8.293  0.00  0.00    -0.617 OA
ATOM     24  O2P AMP d          18.633 -10.846   9.571  0.00  0.00    -0.617 OA
ATOM     25  O3P AMP d          20.638  -9.561   8.674  0.00  0.00    -0.617 OA
ENDBRANCH  21  22
ENDBRANCH  20  21
ENDBRANCH   1  20
BRANCH   3  26
ATOM     26  O3' AMP d          22.455  -8.083  13.570  0.00  0.00    -0.390 OA
ATOM     27  H5  AMP d          22.509  -7.146  13.420  0.00  0.00     0.210 HD
ENDBRANCH   3  26
TORSDOF 7
