REMARK  25 active torsions:
REMARK  status: ('A' for Active; 'I' for Inactive)
REMARK    1  A    between atoms: OAJ_1  and  CBT_2 
REMARK    2  A    between atoms: CBU_11  and  CBR_12 
REMARK    3  A    between atoms: CBR_12  and  SBO_14 
REMARK    4  A    between atoms: SBO_14  and  CBA_15 
REMARK    5  A    between atoms: CBA_15  and  CAY_16 
REMARK    6  A    between atoms: CAY_16  and  NBH_17 
REMARK       I    between atoms: NBH_17  and  CBP_18 
REMARK    7  A    between atoms: CBP_18  and  CBB_20 
REMARK    8  A    between atoms: CBB_20  and  CAZ_21 
REMARK    9  A    between atoms: CAZ_21  and  NBI_22 
REMARK       I    between atoms: NBI_22  and  CBQ_23 
REMARK   10  A    between atoms: CBQ_23  and  CBZ_25 
REMARK   11  A    between atoms: CBZ_25  and  OAK_26 
REMARK   12  A    between atoms: CBZ_25  and  CCF_27 
REMARK   13  A    between atoms: CCF_27  and  CBD_30 
REMARK   14  A    between atoms: CBD_30  and  OBK_31 
REMARK   15  A    between atoms: OBK_31  and  PCI_32 
REMARK   16  A    between atoms: PCI_32  and  OBN_35 
REMARK   17  A    between atoms: OBN_35  and  PCH_36 
REMARK   18  A    between atoms: PCH_36  and  O5'_39 
REMARK   19  A    between atoms: O5'_39  and  C5'_40 
REMARK   20  A    between atoms: C5'_40  and  C4'_41 
REMARK   21  A    between atoms: C3'_43  and  O3'_44 
REMARK   22  A    between atoms: O3'_44  and  PCG_45 
REMARK   23  A    between atoms: C2'_49  and  O2'_50 
REMARK   24  A    between atoms: C1'_51  and  N9_52 
REMARK   25  A    between atoms: C6_60  and  N6_61 
ROOT
ATOM      1  CBD MOL d          35.242 -14.601 199.443  0.00  0.00     0.193 C 
ENDROOT
BRANCH   1   2
ATOM      2  CCF MOL d          35.342 -14.971 197.979  0.00  0.00     0.009 C 
ATOM      3  CAA MOL d          36.809 -15.351 197.644  0.00  0.00     0.020 C 
ATOM      4  CAB MOL d          34.924 -13.768 197.154  0.00  0.00     0.020 C 
BRANCH   2   5
ATOM      5  CBZ MOL d          34.431 -16.190 197.720  0.00  0.00     0.219 C 
BRANCH   5   6
ATOM      6  CBQ MOL d          34.385 -16.560 196.234  0.00  0.00     0.247 C 
ATOM      7  NBI MOL d          33.253 -16.037 195.395  0.00  0.00    -0.358 N 
ATOM      8  H   MOL d          32.551 -15.443 195.788  0.00  0.00     0.162 HD
ATOM      9  OAE MOL d          35.200 -17.265 195.743  0.00  0.00    -0.271 OA
BRANCH   7  10
ATOM     10  CAZ MOL d          33.211 -16.421 194.000  0.00  0.00     0.132 C 
BRANCH  10  11
ATOM     11  CBB MOL d          34.195 -15.633 193.183  0.00  0.00     0.122 C 
BRANCH  11  12
ATOM     12  CBP MOL d          33.851 -16.108 191.731  0.00  0.00     0.219 C 
ATOM     13  NBH MOL d          32.990 -15.298 190.938  0.00  0.00    -0.360 N 
ATOM     14  H   MOL d          32.646 -14.437 191.312  0.00  0.00     0.162 HD
ATOM     15  OAD MOL d          34.308 -17.202 191.311  0.00  0.00    -0.274 OA
BRANCH  13  16
ATOM     16  CAY MOL d          32.607 -15.689 189.620  0.00  0.00     0.133 C 
BRANCH  16  17
ATOM     17  CBA MOL d          33.848 -15.971 188.636  0.00  0.00     0.102 C 
BRANCH  17  18
ATOM     18  SBO MOL d          33.279 -15.548 187.020  0.00  0.00    -0.086 SA
BRANCH  18  19
ATOM     19  CBR MOL d          33.204 -13.739 186.902  0.00  0.00     0.222 C 
ATOM     20  OAF MOL d          33.053 -13.094 187.915  0.00  0.00    -0.280 OA
BRANCH  19  21
ATOM     21  CBU MOL d          32.628 -13.149 185.641  0.00  0.00     0.055 A 
ATOM     22  CBT MOL d          33.409 -13.425 184.496  0.00  0.00     0.091 A 
ATOM     23  CBW MOL d          32.996 -12.956 183.243  0.00  0.00     0.008 A 
ATOM     24  CAV MOL d          33.793 -13.235 182.093  0.00  0.00     0.015 A 
ATOM     25  CBV MOL d          31.832 -12.238 183.144  0.00  0.00    -0.023 A 
ATOM     26  CAR MOL d          33.393 -12.781 180.870  0.00  0.00     0.001 A 
ATOM     27  CAQ MOL d          32.210 -12.051 180.764  0.00  0.00     0.001 A 
ATOM     28  CAU MOL d          31.425 -11.777 181.893  0.00  0.00     0.012 A 
ATOM     29  CAW MOL d          31.047 -11.966 184.294  0.00  0.00     0.013 A 
ATOM     30  CAT MOL d          31.464 -12.432 185.544  0.00  0.00     0.020 A 
BRANCH  22  31
ATOM     31  OAJ MOL d          34.613 -14.148 184.472  0.00  0.00    -0.359 OA
ATOM     32  H   MOL d          34.828 -14.432 185.353  0.00  0.00     0.217 HD
ENDBRANCH  22  31
ENDBRANCH  19  21
ENDBRANCH  18  19
ENDBRANCH  17  18
ENDBRANCH  16  17
ENDBRANCH  13  16
ENDBRANCH  11  12
ENDBRANCH  10  11
ENDBRANCH   7  10
ENDBRANCH   5   6
BRANCH   5  33
ATOM     33  OAK MOL d          33.148 -15.940 198.126  0.00  0.00    -0.385 OA
ATOM     34  H   MOL d          33.148 -15.707 199.047  0.00  0.00     0.210 HD
ENDBRANCH   5  33
ENDBRANCH   2   5
ENDBRANCH   1   2
BRANCH   1  35
ATOM     35  OBK MOL d          35.038 -15.844 200.201  0.00  0.00    -0.289 OA
BRANCH  35  36
ATOM     36  PCI MOL d          34.777 -15.765 201.828  0.00  0.00     0.417 P 
ATOM     37  OAP MOL d          35.239 -14.482 202.386  0.00  0.00    -0.624 OA
ATOM     38  OAI MOL d          35.499 -16.927 202.452  0.00  0.00    -0.624 OA
BRANCH  36  39
ATOM     39  OBN MOL d          33.239 -15.803 202.180  0.00  0.00    -0.180 OA
BRANCH  39  40
ATOM     40  PCH MOL d          32.045 -16.642 201.444  0.00  0.00     0.417 P 
ATOM     41  OAO MOL d          32.531 -17.527 200.296  0.00  0.00    -0.624 OA
ATOM     42  OAH MOL d          31.349 -17.529 202.500  0.00  0.00    -0.624 OA
BRANCH  40  43
ATOM     43  O5' MOL d          31.019 -15.552 200.878  0.00  0.00    -0.287 OA
BRANCH  43  44
ATOM     44  C5' MOL d          30.050 -14.905 201.777  0.00  0.00     0.216 C 
BRANCH  44  45
ATOM     45  C4' MOL d          28.686 -14.899 201.055  0.00  0.00     0.180 C 
ATOM     46  O4' MOL d          28.787 -14.281 199.910  0.00  0.00    -0.353 OA
ATOM     47  C1' MOL d          28.367 -15.297 198.765  0.00  0.00     0.262 C 
ATOM     48  C2' MOL d          28.722 -16.486 199.267  0.00  0.00     0.199 C 
ATOM     49  C3' MOL d          28.287 -16.380 200.718  0.00  0.00     0.199 C 
BRANCH  47  50
ATOM     50  N9  MOL d          29.103 -14.992 197.562  0.00  0.00    -0.294 N 
ATOM     51  C8  MOL d          30.409 -14.600 197.503  0.00  0.00     0.214 A 
ATOM     52  N7  MOL d          30.737 -14.416 196.186  0.00  0.00    -0.236 NA
ATOM     53  C5  MOL d          29.623 -14.702 195.430  0.00  0.00     0.149 A 
ATOM     54  C4  MOL d          28.620 -15.056 196.266  0.00  0.00     0.167 A 
ATOM     55  C6  MOL d          29.409 -14.681 194.048  0.00  0.00     0.155 A 
ATOM     56  N3  MOL d          27.391 -15.391 195.751  0.00  0.00    -0.222 NA
ATOM     57  C2  MOL d          27.180 -15.361 194.400  0.00  0.00     0.237 A 
ATOM     58  N1  MOL d          28.199 -15.002 193.546  0.00  0.00    -0.222 NA
BRANCH  55  59
ATOM     59  N6  MOL d          30.338 -14.332 193.048  0.00  0.00    -0.382 N 
ATOM     60  H   MOL d          30.060 -14.355 192.056  0.00  0.00     0.157 HD
ATOM     61  H   MOL d          31.295 -14.054 193.309  0.00  0.00     0.157 HD
ENDBRANCH  55  59
ENDBRANCH  47  50
BRANCH  48  62
ATOM     62  O2' MOL d          28.082 -17.677 198.569  0.00  0.00    -0.388 OA
ATOM     63  H   MOL d          27.137 -17.585 198.591  0.00  0.00     0.210 HD
ENDBRANCH  48  62
BRANCH  49  64
ATOM     64  O3' MOL d          26.937 -16.536 200.781  0.00  0.00    -0.272 OA
BRANCH  64  65
ATOM     65  PCG MOL d          26.141 -17.183 202.068  0.00  0.00     0.422 P 
ATOM     66  OAM MOL d          26.279 -16.257 203.238  0.00  0.00    -0.617 OA
ATOM     67  OAN MOL d          24.621 -17.327 201.696  0.00  0.00    -0.617 OA
ATOM     68  OAG MOL d          26.720 -18.600 202.372  0.00  0.00    -0.617 OA
ENDBRANCH  64  65
ENDBRANCH  49  64
ENDBRANCH  44  45
ENDBRANCH  43  44
ENDBRANCH  40  43
ENDBRANCH  39  40
ENDBRANCH  36  39
ENDBRANCH  35  36
ENDBRANCH   1  35
TORSDOF 25
