REMARK  10 active torsions:
REMARK  status: ('A' for Active; 'I' for Inactive)
REMARK       I    between atoms: N1_1  and  C2_2 
REMARK       I    between atoms: C2_2  and  N3_3 
REMARK    1  A    between atoms: N4_4  and  O5_5 
REMARK    2  A    between atoms: O5_5  and  C6_6 
REMARK    3  A    between atoms: C6_6  and  C7_7 
REMARK    4  A    between atoms: C7_7  and  C8_8 
REMARK    5  A    between atoms: C8_8  and  O9_9 
REMARK    6  A    between atoms: O9_9  and  C10_10 
REMARK    7  A    between atoms: C14_14  and  C17_17 
REMARK       I    between atoms: C17_17  and  N19_19 
REMARK    8  A    between atoms: N19_19  and  C20_20 
REMARK    9  A    between atoms: N19_19  and  C23_23 
REMARK   10  A    between atoms: C20_20  and  C21_21 
ROOT
ATOM      1  C10 MOL d          16.431 -13.482  21.642  0.00  0.00     0.071 A 
ATOM      2  C11 MOL d          17.466 -12.973  20.841  0.00  0.00     0.060 A 
ATOM      3  C12 MOL d          18.750 -13.569  20.911  0.00  0.00     0.037 A 
ATOM      4  C13 MOL d          18.968 -14.625  21.740  0.00  0.00     0.041 A 
ATOM      5  C14 MOL d          17.968 -15.109  22.525  0.00  0.00     0.036 A 
ATOM      6  C15 MOL d          16.701 -14.566  22.486  0.00  0.00     0.054 A 
ATOM      7 CL16 MOL d          20.038 -12.982  19.978  0.00  0.00    -0.084 Cl
ENDROOT
BRANCH   1   8
ATOM      8  O9  MOL d          15.153 -12.945  21.627  0.00  0.00    -0.351 OA
BRANCH   8   9
ATOM      9  C8  MOL d          14.937 -11.908  20.676  0.00  0.00     0.178 C 
BRANCH   9  10
ATOM     10  C7  MOL d          13.439 -11.716  20.568  0.00  0.00     0.055 C 
BRANCH  10  11
ATOM     11  C6  MOL d          12.875 -10.733  21.619  0.00  0.00     0.204 C 
BRANCH  11  12
ATOM     12  O5  MOL d          12.932 -11.315  22.941  0.00  0.00    -0.266 OA
BRANCH  12  13
ATOM     13  N4  MOL d          11.950 -12.180  23.223  0.00  0.00    -0.097 N 
ATOM     14  C2  MOL d          11.038 -11.963  24.139  0.00  0.00     0.689 C 
ATOM     15  N1  MOL d          10.221 -12.942  24.494  0.00  0.00    -0.233 N 
ATOM     16  N3  MOL d          10.899 -10.742  24.642  0.00  0.00    -0.233 N 
ATOM     17  H1  MOL d           9.502 -12.778  25.213  0.00  0.00     0.174 HD
ATOM     18  H2  MOL d          10.304 -13.868  24.051  0.00  0.00     0.174 HD
ATOM     19  H3  MOL d          11.543  -9.991  24.356  0.00  0.00     0.174 HD
ATOM     20  H4  MOL d          10.147 -10.546  25.318  0.00  0.00     0.174 HD
ATOM     21  H5  MOL d          11.909 -13.062  22.692  0.00  0.00     0.213 HD
ENDBRANCH  12  13
ENDBRANCH  11  12
ENDBRANCH  10  11
ENDBRANCH   9  10
ENDBRANCH   8   9
ENDBRANCH   1   8
BRANCH   5  22
ATOM     22  C17 MOL d          18.257 -16.270  23.398  0.00  0.00     0.254 C 
ATOM     23  O18 MOL d          17.459 -17.203  23.297  0.00  0.00    -0.267 OA
ATOM     24  N19 MOL d          19.256 -16.348  24.308  0.00  0.00    -0.340 N 
BRANCH  24  25
ATOM     25  C20 MOL d          19.299 -17.503  25.269  0.00  0.00     0.153 C 
BRANCH  25  26
ATOM     26  C21 MOL d          18.034 -17.851  26.068  0.00  0.00    -0.017 C 
ATOM     27  C22 MOL d          18.023 -18.320  27.302  0.00  0.00     0.008 C 
ENDBRANCH  25  26
ENDBRANCH  24  25
BRANCH  24  28
ATOM     28  C23 MOL d          19.783 -15.007  24.668  0.00  0.00     0.087 C 
ATOM     29  C24 MOL d          21.305 -15.149  24.549  0.00  0.00     0.025 C 
ATOM     30  C25 MOL d          21.979 -14.542  25.718  0.00  0.00     0.002 C 
ATOM     31  C26 MOL d          20.915 -14.431  26.797  0.00  0.00     0.002 C 
ATOM     32  C27 MOL d          19.623 -14.914  26.187  0.00  0.00     0.025 C 
ENDBRANCH  24  28
ENDBRANCH   5  22
TORSDOF 10
