REMARK  11 active torsions:
REMARK  status: ('A' for Active; 'I' for Inactive)
REMARK    1  A    between atoms: O4_1  and  C4_2 
REMARK    2  A    between atoms: C3_6  and  O3_7 
REMARK    3  A    between atoms: C2_8  and  O2_9 
REMARK    4  A    between atoms: C1_10  and  O1_11 
REMARK    5  A    between atoms: N2_14  and  C8_15 
REMARK    6  A    between atoms: C8_15  and  C9_16 
REMARK    7  A    between atoms: C9_16  and  C10_17 
REMARK    8  A    between atoms: C10_17  and  C11_18 
REMARK    9  A    between atoms: C11_18  and  C12_19 
REMARK   10  A    between atoms: C12_19  and  C13_20 
REMARK   11  A    between atoms: C13_20  and  C14_21 
ROOT
ATOM      1  C4  LGS d           1.672   6.633  13.469  0.00  0.00     0.174 C 
ATOM      2  C5  LGS d           1.001   6.219  12.154  0.00  0.00     0.146 C 
ATOM      3  C6  LGS d           0.660   7.335  11.168  0.00  0.00     0.207 C 
ATOM      4  O6  LGS d           1.080   6.822   9.878  0.00  0.00    -0.319 OA
ATOM      5  C3  LGS d           1.834   5.345  14.285  0.00  0.00     0.182 C 
ATOM      6  C2  LGS d           2.875   4.413  13.644  0.00  0.00     0.198 C 
ATOM      7  C1  LGS d           2.712   4.293  12.109  0.00  0.00     0.255 C 
ATOM      8  N1  LGS d           1.943   5.359  11.423  0.00  0.00    -0.307 N 
ATOM      9  C7  LGS d           1.911   5.743  10.097  0.00  0.00     0.241 C 
ATOM     10  N2  LGS d           2.547   5.131   9.094  0.00  0.00    -0.251 NA
ENDROOT
BRANCH  10  11
ATOM     11  C8  LGS d           2.386   5.347   7.650  0.00  0.00     0.153 C 
BRANCH  11  12
ATOM     12  C9  LGS d           3.596   6.067   7.066  0.00  0.00     0.022 C 
BRANCH  12  13
ATOM     13  C10 LGS d           3.534   6.134   5.533  0.00  0.00     0.002 C 
BRANCH  13  14
ATOM     14  C11 LGS d           4.773   6.820   4.910  0.00  0.00     0.000 C 
BRANCH  14  15
ATOM     15  C12 LGS d           4.555   6.821   3.386  0.00  0.00     0.000 C 
BRANCH  15  16
ATOM     16  C13 LGS d           5.593   7.675   2.627  0.00  0.00    -0.000 C 
BRANCH  16  17
ATOM     17  C14 LGS d           6.984   7.019   2.693  0.00  0.00    -0.005 C 
ATOM     18  C15 LGS d           7.943   7.677   1.697  0.00  0.00     0.005 C 
ENDBRANCH  16  17
ENDBRANCH  15  16
ENDBRANCH  14  15
ENDBRANCH  13  14
ENDBRANCH  12  13
ENDBRANCH  11  12
ENDBRANCH  10  11
BRANCH   7  19
ATOM     19  O1  LGS d           4.008   4.337  11.481  0.00  0.00    -0.374 OA
ATOM     20  H11 LGS d           3.914   4.168  10.551  0.00  0.00     0.212 HD
ENDBRANCH   7  19
BRANCH   1  21
ATOM     21  O4  LGS d           0.843   7.545  14.169  0.00  0.00    -0.391 OA
ATOM     22  H1  LGS d           1.266   7.796  14.982  0.00  0.00     0.210 HD
ENDBRANCH   1  21
BRANCH   6  23
ATOM     23  O2  LGS d           2.834   3.094  14.200  0.00  0.00    -0.389 OA
ATOM     24  H9  LGS d           3.491   2.553  13.777  0.00  0.00     0.210 HD
ENDBRANCH   6  23
BRANCH   5  25
ATOM     25  O3  LGS d           2.312   5.654  15.596  0.00  0.00    -0.390 OA
ATOM     26  H7  LGS d           1.690   6.225  16.032  0.00  0.00     0.210 HD
ENDBRANCH   5  25
TORSDOF 11
