REMARK  13 active torsions:
REMARK  status: ('A' for Active; 'I' for Inactive)
REMARK    1  A    between atoms: N1_1  and  CA1_2 
REMARK    2  A    between atoms: CA1_2  and  CB1_6 
REMARK    3  A    between atoms: CA1_2  and  C1_3 
REMARK    4  A    between atoms: CB1_6  and  CG1_7 
REMARK    5  A    between atoms: CG1_7  and  CD1_8 
REMARK       I    between atoms: CD1_8  and  N2_10 
REMARK    6  A    between atoms: N2_10  and  CA2_11 
REMARK    7  A    between atoms: CA2_11  and  CB2_14 
REMARK    8  A    between atoms: CA2_11  and  C2_12 
REMARK       I    between atoms: C2_12  and  N3_16 
REMARK    9  A    between atoms: CB2_14  and  SG2_15 
REMARK   10  A    between atoms: SG2_15  and  CA4_21 
REMARK   11  A    between atoms: N3_16  and  CA3_17 
REMARK   12  A    between atoms: CA3_17  and  C3_18 
REMARK   13  A    between atoms: CA5_34  and  O5_35 
ROOT
ATOM      1  CA2 GPS d          17.407  17.029  31.287  0.00  0.00     0.185 C 
ENDROOT
BRANCH   1   2
ATOM      2  N2  GPS d          16.304  16.508  30.459  0.00  0.00    -0.347 N 
ATOM      3  CD1 GPS d          16.585  16.185  29.169  0.00  0.00     0.218 C 
ATOM      4  OE1 GPS d          17.743  15.914  28.768  0.00  0.00    -0.274 OA
ATOM      5  H9  GPS d          15.383  16.396  30.833  0.00  0.00     0.163 HD
BRANCH   3   6
ATOM      6  CG1 GPS d          15.337  15.967  28.353  0.00  0.00     0.105 C 
BRANCH   6   7
ATOM      7  CB1 GPS d          15.660  15.609  26.893  0.00  0.00     0.053 C 
BRANCH   7   8
ATOM      8  CA1 GPS d          14.236  15.272  26.299  0.00  0.00     0.283 C 
BRANCH   8   9
ATOM      9  N1  GPS d          14.529  14.737  24.890  0.00  0.00    -0.065 N 
ATOM     10  H1  GPS d          15.124  13.926  24.956  0.00  0.00     0.275 HD
ATOM     11  H2  GPS d          14.992  15.451  24.349  0.00  0.00     0.275 HD
ATOM     12  H3  GPS d          13.663  14.483  24.440  0.00  0.00     0.275 HD
ENDBRANCH   8   9
BRANCH   8  13
ATOM     13  C1  GPS d          13.357  16.468  26.192  0.00  0.00     0.204 C 
ATOM     14  OT1 GPS d          13.292  17.145  24.979  0.00  0.00    -0.646 OA
ATOM     15  O1  GPS d          12.484  16.871  26.991  0.00  0.00    -0.646 OA
ENDBRANCH   8  13
ENDBRANCH   7   8
ENDBRANCH   6   7
ENDBRANCH   3   6
ENDBRANCH   1   2
BRANCH   1  16
ATOM     16  CB2 GPS d          17.172  18.574  31.329  0.00  0.00     0.109 C 
BRANCH  16  17
ATOM     17  SG2 GPS d          17.383  19.395  29.793  0.00  0.00    -0.154 SA
BRANCH  17  18
ATOM     18  CA4 GPS d          19.040  19.416  29.316  0.00  0.00     0.114 C 
ATOM     19  CB4 GPS d          19.410  20.774  28.747  0.00  0.00    -0.030 A 
ATOM     20  CH4 GPS d          19.868  21.853  29.516  0.00  0.00    -0.018 A 
ATOM     21  CG4 GPS d          19.258  20.867  27.324  0.00  0.00     0.009 A 
ATOM     22  CH5 GPS d          19.944  21.673  30.925  0.00  0.00    -0.017 A 
ATOM     23  CZ4 GPS d          20.169  23.053  28.873  0.00  0.00     0.013 A 
ATOM     24  CB5 GPS d          20.020  20.405  31.426  0.00  0.00    -0.017 A 
ATOM     25  CZ5 GPS d          19.953  22.790  31.807  0.00  0.00     0.013 A 
ATOM     26  CA5 GPS d          20.038  19.223  30.489  0.00  0.00     0.170 C 
ATOM     27  CG5 GPS d          20.168  20.176  32.832  0.00  0.00     0.011 A 
ATOM     28  CD5 GPS d          20.188  21.270  33.694  0.00  0.00     0.001 A 
ATOM     29  CE5 GPS d          20.077  22.587  33.192  0.00  0.00     0.001 A 
ATOM     30  CE4 GPS d          20.065  23.150  27.481  0.00  0.00     0.001 A 
ATOM     31  CD4 GPS d          19.605  22.052  26.735  0.00  0.00     0.001 A 
BRANCH  26  32
ATOM     32  O5  GPS d          21.425  19.107  30.018  0.00  0.00    -0.389 OA
ATOM     33  H26 GPS d          22.003  18.991  30.763  0.00  0.00     0.210 HD
ENDBRANCH  26  32
ENDBRANCH  17  18
ENDBRANCH  16  17
ENDBRANCH   1  16
BRANCH   1  34
ATOM     34  C2  GPS d          17.080  16.522  32.742  0.00  0.00     0.241 C 
ATOM     35  N3  GPS d          16.398  15.385  32.859  0.00  0.00    -0.349 N 
ATOM     36  H13 GPS d          16.125  14.878  32.041  0.00  0.00     0.163 HD
ATOM     37  O2  GPS d          17.845  17.055  33.535  0.00  0.00    -0.271 OA
BRANCH  35  38
ATOM     38  CA3 GPS d          16.046  14.875  34.192  0.00  0.00     0.235 C 
BRANCH  38  39
ATOM     39  C3  GPS d          16.769  13.610  34.513  0.00  0.00     0.191 C 
ATOM     40  OT3 GPS d          16.402  13.005  35.638  0.00  0.00    -0.647 OA
ATOM     41  O3  GPS d          17.658  13.147  33.747  0.00  0.00    -0.647 OA
ENDBRANCH  38  39
ENDBRANCH  35  38
ENDBRANCH   1  34
TORSDOF 13
