REMARK  9 active torsions:
REMARK  status: ('A' for Active; 'I' for Inactive)
REMARK    1  A    between atoms: C13_2  and  C14_3 
REMARK       I    between atoms: C13_2  and  N12_12 
REMARK    2  A    between atoms: C17_6  and  N20_7 
REMARK    3  A    between atoms: N12_12  and  C10_13 
REMARK    4  A    between atoms: C10_13  and  C9_14 
REMARK    5  A    between atoms: C9_14  and  C8_15 
REMARK    6  A    between atoms: C8_15  and  C7_16 
REMARK    7  A    between atoms: C7_16  and  C6_17 
REMARK    8  A    between atoms: C6_17  and  C5_18 
REMARK    9  A    between atoms: C5_18  and  C1_19 
REMARK       I    between atoms: C1_19  and  N3_21 
ROOT
ATOM      1  O23 B3N d          -0.542  43.610   0.586  0.00  0.00    -0.268 OA
ATOM      2  C13 B3N d          -0.481  43.926   1.531  0.00  0.00     0.251 C 
ATOM      3  N12 B3N d          -0.216  43.086   2.573  0.00  0.00    -0.357 N 
ATOM      4  H11 B3N d          -0.195  43.525   3.471  0.00  0.00     0.162 HD
ENDROOT
BRANCH   3   5
ATOM      5  C10 B3N d           0.046  41.623   2.586  0.00  0.00     0.123 C 
BRANCH   5   6
ATOM      6  C9  B3N d           0.631  41.009   1.298  0.00  0.00     0.020 C 
BRANCH   6   7
ATOM      7  C8  B3N d           1.724  39.973   1.623  0.00  0.00     0.002 C 
BRANCH   7   8
ATOM      8  C7  B3N d           1.201  38.671   2.195  0.00  0.00     0.001 C 
BRANCH   8   9
ATOM      9  C6  B3N d           1.744  37.468   1.429  0.00  0.00     0.009 C 
BRANCH   9  10
ATOM     10  C5  B3N d           2.397  36.509   2.416  0.00  0.00     0.107 C 
BRANCH  10  11
ATOM     11  C1  B3N d           1.874  35.069   2.338  0.00  0.00     0.269 C 
ATOM     12  O2  B3N d           0.768  34.776   2.796  0.00  0.00    -0.269 OA
ATOM     13  N3  B3N d           2.606  34.127   1.768  0.00  0.00    -0.059 NA
ATOM     14  O4  B3N d           2.154  32.979   1.712  0.00  0.00    -0.058 OA
ENDBRANCH  10  11
ENDBRANCH   9  10
ENDBRANCH   8   9
ENDBRANCH   7   8
ENDBRANCH   6   7
ENDBRANCH   5   6
ENDBRANCH   3   5
BRANCH   2  15
ATOM     15  C14 B3N d          -0.710  45.425   1.812  0.00  0.00     0.032 A 
ATOM     16  C15 B3N d           0.078  46.153   2.794  0.00  0.00     0.019 A 
ATOM     17  C16 B3N d          -0.154  47.562   3.050  0.00  0.00     0.030 A 
ATOM     18  C17 B3N d          -1.188  48.295   2.329  0.00  0.00     0.029 A 
ATOM     19  C18 B3N d          -1.993  47.530   1.346  0.00  0.00     0.030 A 
ATOM     20  C19 B3N d          -1.737  46.151   1.090  0.00  0.00     0.019 A 
BRANCH  18  21
ATOM     21  N20 B3N d          -1.458  49.709   2.566  0.00  0.00    -0.390 N 
ATOM     22  C22 B3N d          -2.569  50.401   1.900  0.00  0.00     0.149 C 
ATOM     23  C21 B3N d          -0.696  50.520   3.516  0.00  0.00     0.149 C 
ENDBRANCH  18  21
ENDBRANCH   2  15
TORSDOF 9
