REMARK  2 active torsions:
REMARK  status: ('A' for Active; 'I' for Inactive)
REMARK    1  A    between atoms: C2_2  and  C10_10 
REMARK    2  A    between atoms: C13_13  and  N17_17 
ROOT
ATOM      1  C1  BBY d          14.945 -10.078  -5.796  0.00  0.00     0.053 A 
ATOM      2  C2  BBY d          14.381  -9.209  -6.750  0.00  0.00    -0.004 A 
ATOM      3  C3  BBY d          13.047  -8.773  -6.683  0.00  0.00     0.036 A 
ATOM      4  C4  BBY d          12.186  -9.189  -5.672  0.00  0.00     0.048 A 
ATOM      5  C5  BBY d          12.753 -10.097  -4.658  0.00  0.00     0.122 A 
ATOM      6  C6  BBY d          14.137 -10.518  -4.758  0.00  0.00     0.107 A 
ATOM      7  O7  BBY d          14.384 -11.357  -3.709  0.00  0.00    -0.323 OA
ATOM      8  C8  BBY d          13.130 -11.649  -3.048  0.00  0.00     0.352 C 
ATOM      9  O9  BBY d          12.195 -10.681  -3.562  0.00  0.00    -0.322 OA
ATOM     10 BR15 BBY d          10.397  -8.609  -5.584  0.00  0.00    -0.048 Br
ENDROOT
BRANCH   2  11
ATOM     11  C10 BBY d          15.236  -8.713  -7.865  0.00  0.00     0.066 A 
ATOM     12  N11 BBY d          15.104  -7.543  -8.525  0.00  0.00    -0.272 N 
ATOM     13  N12 BBY d          16.082  -7.381  -9.515  0.00  0.00    -0.155 NA
ATOM     14  C16 BBY d          14.146  -6.413  -8.430  0.00  0.00     0.180 C 
ATOM     15  C13 BBY d          16.791  -8.514  -9.386  0.00  0.00     0.143 A 
ATOM     16  C14 BBY d          16.339  -9.373  -8.402  0.00  0.00     0.083 A 
BRANCH  15  17
ATOM     17  N17 BBY d          17.866  -8.793 -10.164  0.00  0.00    -0.383 N 
ATOM     18  H9  BBY d          18.382  -9.674 -10.032  0.00  0.00     0.157 HD
ATOM     19  H10 BBY d          18.166  -8.123 -10.887  0.00  0.00     0.157 HD
ENDBRANCH  15  17
ENDBRANCH   2  11
TORSDOF 2
