REMARK  3 active torsions:
REMARK  status: ('A' for Active; 'I' for Inactive)
REMARK    1  A    between atoms: C1_1  and  N_9 
REMARK    2  A    between atoms: N_9  and  C11_13 
REMARK    3  A    between atoms: C9_11  and  S_10 
ROOT
ATOM      1  C1  MOL d         -24.230  -0.646  -4.192  0.00  0.00     0.045 A 
ATOM      2  C2  MOL d         -24.291  -1.848  -4.904  0.00  0.00     0.030 A 
ATOM      3  C3  MOL d         -25.321  -2.758  -4.709  0.00  0.00     0.003 A 
ATOM      4  C4  MOL d         -26.312  -2.464  -3.781  0.00  0.00     0.012 A 
ATOM      5  C5  MOL d         -26.271  -1.275  -3.060  0.00  0.00    -0.022 A 
ATOM      6  C6  MOL d         -27.299  -1.047  -2.148  0.00  0.00     0.012 A 
ATOM      7  C7  MOL d         -27.317   0.120  -1.397  0.00  0.00     0.002 A 
ATOM      8  C8  MOL d         -26.300   1.051  -1.565  0.00  0.00     0.027 A 
ATOM      9  C9  MOL d         -25.257   0.845  -2.473  0.00  0.00     0.094 A 
ATOM     10  C10 MOL d         -25.231  -0.341  -3.245  0.00  0.00     0.025 A 
ENDROOT
BRANCH   1  11
ATOM     11  N   MOL d         -23.190   0.195  -4.431  0.00  0.00    -0.355 N 
ATOM     12  H7  MOL d         -22.906   0.841  -3.680  0.00  0.00     0.166 HD
BRANCH  11  13
ATOM     13  C11 MOL d         -22.503   0.234  -5.603  0.00  0.00     0.032 A 
ATOM     14  C12 MOL d         -21.482  -0.687  -5.862  0.00  0.00     0.029 A 
ATOM     15  C13 MOL d         -20.776  -0.643  -7.064  0.00  0.00     0.002 A 
ATOM     16  C14 MOL d         -21.083   0.335  -8.011  0.00  0.00     0.000 A 
ATOM     17  C15 MOL d         -22.098   1.259  -7.755  0.00  0.00     0.002 A 
ATOM     18  C16 MOL d         -22.805   1.211  -6.553  0.00  0.00     0.029 A 
ENDBRANCH  11  13
ENDBRANCH   1  11
BRANCH   9  19
ATOM     19  S   MOL d         -24.158   2.018  -2.541  0.00  0.00     0.138 S 
ATOM     20  O1  MOL d         -24.357   2.912  -1.386  0.00  0.00    -0.591 OA
ATOM     21  O2  MOL d         -24.306   2.787  -3.797  0.00  0.00    -0.591 OA
ATOM     22  O3  MOL d         -22.794   1.461  -2.457  0.00  0.00    -0.591 OA
ENDBRANCH   9  19
TORSDOF 3
