REMARK  2 active torsions:
REMARK  status: ('A' for Active; 'I' for Inactive)
REMARK    1  A    between atoms: C1_1  and  C12_7 
REMARK    2  A    between atoms: C15_10  and  C21_13 
ROOT
ATOM      1  C12 6P3 d          11.495  12.748  44.822  0.00  0.00     0.066 A 
ATOM      2  N13 6P3 d          11.328  14.028  45.359  0.00  0.00    -0.259 NA
ATOM      3  C14 6P3 d          10.960  14.233  46.650  0.00  0.00     0.135 A 
ATOM      4  C15 6P3 d          10.721  13.158  47.533  0.00  0.00     0.058 A 
ATOM      5  C16 6P3 d          10.879  11.844  47.014  0.00  0.00     0.022 A 
ATOM      6  C17 6P3 d          11.264  11.637  45.664  0.00  0.00     0.033 A 
ENDROOT
BRANCH   1   7
ATOM      7  C1  6P3 d          11.918  12.649  43.383  0.00  0.00    -0.007 A 
ATOM      8  C2  6P3 d          11.602  13.703  42.488  0.00  0.00     0.014 A 
ATOM      9  C3  6P3 d          11.993  13.659  41.124  0.00  0.00     0.001 A 
ATOM     10  C4  6P3 d          12.716  12.550  40.628  0.00  0.00     0.000 A 
ATOM     11  C5  6P3 d          13.038  11.489  41.509  0.00  0.00     0.001 A 
ATOM     12  C6  6P3 d          12.643  11.544  42.867  0.00  0.00     0.014 A 
ENDBRANCH   1   7
BRANCH   4  13
ATOM     13  C21 6P3 d          10.335  13.419  48.933  0.00  0.00     0.210 C 
ATOM     14  O22 6P3 d          10.578  14.469  49.448  0.00  0.00    -0.644 OA
ATOM     15  O23 6P3 d           9.719  12.414  49.594  0.00  0.00    -0.644 OA
ENDBRANCH   4  13
TORSDOF 2
