REMARK  4 active torsions:
REMARK  status: ('A' for Active; 'I' for Inactive)
REMARK    1  A    between atoms: C2_2  and  C4_4 
REMARK    2  A    between atoms: C6_6  and  C7_7 
REMARK       I    between atoms: C7_7  and  N9_9 
REMARK    3  A    between atoms: C18_18  and  O19_19 
REMARK    4  A    between atoms: C21_21  and  O22_22 
ROOT
ATOM      1  C4  XJG d          14.046  -3.298  10.339  0.00  0.00    -0.020 A 
ATOM      2  C5  XJG d          15.108  -3.848   9.614  0.00  0.00     0.030 A 
ATOM      3  C6  XJG d          15.336  -5.222   9.604  0.00  0.00     0.066 A 
ATOM      4  C18 XJG d          14.495  -6.068  10.346  0.00  0.00     0.084 A 
ATOM      5  C20 XJG d          13.439  -5.545  11.066  0.00  0.00     0.074 A 
ATOM      6  C21 XJG d          13.198  -4.189  11.070  0.00  0.00     0.077 A 
ENDROOT
BRANCH   3   7
ATOM      7  C7  XJG d          16.498  -5.750   8.854  0.00  0.00     0.257 C 
ATOM      8  O8  XJG d          17.503  -6.033   9.477  0.00  0.00    -0.267 OA
ATOM      9  N9  XJG d          16.433  -5.875   7.486  0.00  0.00    -0.339 N 
ATOM     10  C10 XJG d          17.535  -6.416   6.674  0.00  0.00     0.165 C 
ATOM     11  C17 XJG d          15.349  -5.333   6.645  0.00  0.00     0.165 C 
ATOM     12  C11 XJG d          16.864  -6.650   5.346  0.00  0.00    -0.032 A 
ATOM     13  C12 XJG d          17.311  -7.345   4.231  0.00  0.00     0.009 A 
ATOM     14  C16 XJG d          15.615  -6.010   5.323  0.00  0.00    -0.032 A 
ATOM     15  C13 XJG d          16.508  -7.438   3.103  0.00  0.00     0.001 A 
ATOM     16  C14 XJG d          15.260  -6.835   3.089  0.00  0.00     0.001 A 
ATOM     17  C15 XJG d          14.813  -6.123   4.194  0.00  0.00     0.009 A 
ENDBRANCH   3   7
BRANCH   4  18
ATOM     18  O19 XJG d          14.681  -7.416  10.360  0.00  0.00    -0.360 OA
ATOM     19  H17 XJG d          14.021  -7.820  10.912  0.00  0.00     0.217 HD
ENDBRANCH   4  18
BRANCH   1  20
ATOM     20  C2  XJG d          13.836  -1.788  10.310  0.00  0.00     0.013 C 
ATOM     21  C1  XJG d          14.099  -1.206   8.918  0.00  0.00     0.015 C 
ATOM     22  C3  XJG d          14.711  -1.083  11.332  0.00  0.00     0.015 C 
ENDBRANCH   1  20
BRANCH   6  23
ATOM     23  O22 XJG d          12.165  -3.646  11.756  0.00  0.00    -0.355 OA
ATOM     24  C19 XJG d          11.333  -4.547  12.515  0.00  0.00     0.210 C 
ENDBRANCH   6  23
TORSDOF 4
