REMARK  1 active torsions:
REMARK  status: ('A' for Active; 'I' for Inactive)
REMARK    1  A    between atoms: C7_4  and  C8_5 
ROOT
ATOM      1  N3  MOL d          18.067  18.527  16.792  0.00  0.00    -0.177 NA
ATOM      2  C5  MOL d          18.709  18.766  14.371  0.00  0.00     0.179 C 
ATOM      3  C6  MOL d          16.545  19.436  15.474  0.00  0.00     0.127 A 
ATOM      4  C7  MOL d          16.054  19.391  16.751  0.00  0.00     0.035 A 
ATOM      5  C1  MOL d          16.993  18.500  19.033  0.00  0.00     0.073 C 
ATOM      6  C2  MOL d          17.043  18.791  17.551  0.00  0.00     0.065 A 
ATOM      7  N4  MOL d          17.784  18.915  15.492  0.00  0.00    -0.284 N 
ENDROOT
BRANCH   4   8
ATOM      8  C8  MOL d          14.696  19.860  17.172  0.00  0.00     0.065 A 
ATOM      9  C9  MOL d          13.560  19.850  16.342  0.00  0.00     0.053 A 
ATOM     10  C10 MOL d          12.513  20.324  17.031  0.00  0.00     0.141 A 
ATOM     11  N11 MOL d          12.958  20.631  18.266  0.00  0.00    -0.187 NA
ATOM     12  N13 MOL d          14.319  20.341  18.348  0.00  0.00    -0.278 N 
ATOM     13  H   MOL d          14.922  20.476  19.172  0.00  0.00     0.189 HD
ENDBRANCH   4   8
TORSDOF 1
