REMARK  6 active torsions:
REMARK  status: ('A' for Active; 'I' for Inactive)
REMARK    1  A    between atoms: P_1  and  O5'_5 
REMARK    2  A    between atoms: O5'_5  and  C5'_6 
REMARK    3  A    between atoms: C5'_6  and  C4'_7 
REMARK    4  A    between atoms: C3'_9  and  O3'_10 
REMARK    5  A    between atoms: C2'_11  and  O2'_12 
REMARK    6  A    between atoms: C1'_13  and  N9_14 
ROOT
ATOM      1  C4' AMP d         -11.806  -9.119   1.858  0.00  0.00     0.180 C 
ATOM      2  O4' AMP d         -10.694  -8.332   1.418  0.00  0.00    -0.353 OA
ATOM      3  C3' AMP d         -12.992  -8.172   1.973  0.00  0.00     0.182 C 
ATOM      4  C2' AMP d         -12.426  -6.805   1.862  0.00  0.00     0.198 C 
ATOM      5  C1' AMP d         -10.931  -7.005   1.921  0.00  0.00     0.262 C 
ENDROOT
BRANCH   5   6
ATOM      6  N9  AMP d         -10.369  -6.002   1.003  0.00  0.00    -0.294 N 
ATOM      7  C8  AMP d         -10.797  -5.737  -0.263  0.00  0.00     0.214 A 
ATOM      8  N7  AMP d         -10.063  -4.773  -0.844  0.00  0.00    -0.236 NA
ATOM      9  C5  AMP d          -9.123  -4.425   0.067  0.00  0.00     0.149 A 
ATOM     10  C6  AMP d          -8.036  -3.432   0.076  0.00  0.00     0.155 A 
ATOM     11  C4  AMP d          -9.329  -5.228   1.276  0.00  0.00     0.167 A 
ATOM     12  N6  AMP d          -7.831  -2.656  -1.021  0.00  0.00    -0.382 N 
ATOM     13  N1  AMP d          -7.284  -3.368   1.222  0.00  0.00    -0.222 NA
ATOM     14  H10 AMP d          -7.073  -1.959  -1.024  0.00  0.00     0.157 HD
ATOM     15  H11 AMP d          -8.434  -2.765  -1.849  0.00  0.00     0.157 HD
ATOM     16  C2  AMP d          -7.541  -4.132   2.306  0.00  0.00     0.237 A 
ATOM     17  N3  AMP d          -8.515  -5.057   2.373  0.00  0.00    -0.222 NA
ENDBRANCH   5   6
BRANCH   4  18
ATOM     18  O2' AMP d         -12.914  -6.017   2.943  0.00  0.00    -0.388 OA
ATOM     19  H7  AMP d         -12.648  -6.410   3.766  0.00  0.00     0.210 HD
ENDBRANCH   4  18
BRANCH   1  20
ATOM     20  C5' AMP d         -12.158 -10.214   0.853  0.00  0.00     0.217 C 
BRANCH  20  21
ATOM     21  O5' AMP d         -12.366  -9.617  -0.433  0.00  0.00    -0.280 OA
BRANCH  21  22
ATOM     22  P   AMP d         -13.576 -10.195  -1.318  0.00  0.00     0.422 P 
ATOM     23  O1P AMP d         -14.853  -9.994  -0.519  0.00  0.00    -0.617 OA
ATOM     24  O2P AMP d         -13.263 -11.641  -1.520  0.00  0.00    -0.617 OA
ATOM     25  O3P AMP d         -13.529  -9.333  -2.562  0.00  0.00    -0.617 OA
ENDBRANCH  21  22
ENDBRANCH  20  21
ENDBRANCH   1  20
BRANCH   3  26
ATOM     26  O3' AMP d         -13.662  -8.313   3.203  0.00  0.00    -0.390 OA
ATOM     27  H5  AMP d         -14.393  -7.707   3.236  0.00  0.00     0.210 HD
ENDBRANCH   3  26
TORSDOF 6
