REMARK  10 active torsions:
REMARK  status: ('A' for Active; 'I' for Inactive)
REMARK    1  A    between atoms: C02_2  and  N01_1 
REMARK    2  A    between atoms: C04_4  and  C03_3 
REMARK    3  A    between atoms: C05_5  and  C04_4 
REMARK    4  A    between atoms: C07_7  and  O08_8 
REMARK    5  A    between atoms: C10_10  and  O11_11 
REMARK    6  A    between atoms: C14_21  and  C13_13 
REMARK    7  A    between atoms: C34_18  and  N35_19 
REMARK    8  A    between atoms: C15_22  and  C16_23 
REMARK       I    between atoms: C16_23  and  N17_24 
REMARK    9  A    between atoms: C20_27  and  C21_28 
REMARK   10  A    between atoms: C21_28  and  C22_29 
ROOT
ATOM      1  C05 52I d          16.553 -28.657  -3.232  0.00  0.00    -0.050 A 
ATOM      2  C06 52I d          15.845 -27.535  -2.684  0.00  0.00     0.047 A 
ATOM      3  C07 52I d          16.433 -26.748  -1.685  0.00  0.00     0.102 A 
ATOM      4  C10 52I d          17.719 -27.053  -1.217  0.00  0.00     0.111 A 
ATOM      5  C13 52I d          18.421 -28.152  -1.753  0.00  0.00     0.001 A 
ATOM      6  C31 52I d          17.814 -28.960  -2.780  0.00  0.00     0.022 A 
ENDROOT
BRANCH   5   7
ATOM      7  C14 52I d          19.850 -28.490  -1.231  0.00  0.00     0.020 C 
ATOM      8  C15 52I d          20.880 -28.818  -2.131  0.00  0.00     0.077 C 
BRANCH   8   9
ATOM      9  C16 52I d          22.288 -28.909  -1.647  0.00  0.00     0.267 C 
ATOM     10  O30 52I d          22.679 -28.157  -0.811  0.00  0.00    -0.267 OA
ATOM     11  N17 52I d          23.174 -29.899  -2.184  0.00  0.00    -0.167 N 
ATOM     12  N18 52I d          22.754 -30.760  -3.130  0.00  0.00     0.014 N 
ATOM     13  C20 52I d          24.524 -29.984  -1.721  0.00  0.00     0.152 C 
ATOM     14  C19 52I d          23.544 -30.719  -4.328  0.00  0.00     0.299 C 
ATOM     15  H18 52I d          21.801 -30.534  -3.368  0.00  0.00     0.306 HD
ATOM     16  H19 52I d          22.794 -31.694  -2.753  0.00  0.00     0.306 HD
ATOM     17  C25 52I d          25.001 -30.531  -4.097  0.00  0.00    -0.022 A 
ATOM     18  C24 52I d          25.477 -30.178  -2.851  0.00  0.00    -0.025 A 
ATOM     19  C26 52I d          25.903 -30.717  -5.178  0.00  0.00     0.009 A 
ATOM     20  C29 52I d          26.850 -30.005  -2.651  0.00  0.00     0.010 A 
ATOM     21  C28 52I d          27.763 -30.192  -3.740  0.00  0.00     0.001 A 
ATOM     22  C27 52I d          27.289 -30.542  -4.980  0.00  0.00     0.001 A 
BRANCH  13  23
ATOM     23  C21 52I d          24.647 -31.155  -0.748  0.00  0.00     0.036 C 
BRANCH  23  24
ATOM     24  C22 52I d          25.979 -31.280   0.074  0.00  0.00    -0.020 C 
ATOM     25  C23 52I d          26.072 -30.306   1.218  0.00  0.00     0.009 C 
ATOM     26  C37 52I d          26.349 -32.789   0.476  0.00  0.00     0.009 C 
ENDBRANCH  23  24
ENDBRANCH  13  23
ENDBRANCH   8   9
ENDBRANCH   5   7
BRANCH   4  27
ATOM     27  O11 52I d          18.297 -26.273  -0.229  0.00  0.00    -0.352 OA
ATOM     28  C12 52I d          18.424 -26.791   1.096  0.00  0.00     0.210 C 
ENDBRANCH   4  27
BRANCH   3  29
ATOM     29  O08 52I d          15.749 -25.685  -1.169  0.00  0.00    -0.353 OA
ATOM     30  C09 52I d          14.323 -25.618  -1.336  0.00  0.00     0.210 C 
ENDBRANCH   3  29
BRANCH   1  31
ATOM     31  C04 52I d          15.876 -29.521  -4.353  0.00  0.00     0.082 C 
BRANCH  31  32
ATOM     32  C03 52I d          15.983 -30.975  -4.054  0.00  0.00     0.010 A 
ATOM     33  C02 52I d          15.702 -31.910  -5.052  0.00  0.00     0.148 A 
ATOM     34  N36 52I d          15.797 -33.233  -4.788  0.00  0.00    -0.045 NA
ATOM     35  C34 52I d          16.170 -33.663  -3.530  0.00  0.00     0.721 A 
ATOM     36  N33 52I d          16.449 -32.800  -2.537  0.00  0.00    -0.075 NA
ATOM     37  C32 52I d          16.370 -31.455  -2.747  0.00  0.00     0.147 A 
BRANCH  33  38
ATOM     38  N01 52I d          15.295 -31.443  -6.422  0.00  0.00    -0.383 N 
ATOM     39  H1  52I d          15.087 -32.131  -7.160  0.00  0.00     0.157 HD
ATOM     40  H2  52I d          15.224 -30.435  -6.623  0.00  0.00     0.157 HD
ENDBRANCH  33  38
BRANCH  35  41
ATOM     41  N35 52I d          16.262 -35.079  -3.280  0.00  0.00    -0.231 N 
ATOM     42  H14 52I d          16.538 -35.421  -2.349  0.00  0.00     0.174 HD
ATOM     43  H15 52I d          16.051 -35.750  -4.033  0.00  0.00     0.174 HD
ENDBRANCH  35  41
ENDBRANCH  31  32
ENDBRANCH   1  31
TORSDOF 10
