REMARK  2 active torsions:
REMARK  status: ('A' for Active; 'I' for Inactive)
REMARK    1  A    between atoms: OAM_2  and  CAI_3 
REMARK    2  A    between atoms: CAI_3  and  CAG_5 
ROOT
ATOM      1  CAG 4ME d          20.766   6.014  -2.860  0.00  0.00     0.052 A 
ATOM      2  CAB 4ME d          19.858   5.127  -2.303  0.00  0.00     0.018 A 
ATOM      3  CAA 4ME d          18.722   5.615  -1.676  0.00  0.00     0.003 A 
ATOM      4  CAC 4ME d          18.472   6.965  -1.599  0.00  0.00     0.030 A 
ATOM      5  CAH 4ME d          19.386   7.853  -2.155  0.00  0.00     0.043 A 
ATOM      6  CAF 4ME d          20.527   7.378  -2.792  0.00  0.00     0.008 A 
ATOM      7  CAD 4ME d          21.204   8.438  -3.228  0.00  0.00     0.032 A 
ATOM      8  CAE 4ME d          20.517   9.528  -2.889  0.00  0.00     0.089 A 
ATOM      9  NAK 4ME d          19.405   9.172  -2.236  0.00  0.00    -0.365 N 
ATOM     10  H9  4ME d          18.690   9.813  -1.862  0.00  0.00     0.165 HD
ENDROOT
BRANCH   1  11
ATOM     11  CAI 4ME d          22.001   5.439  -3.539  0.00  0.00     0.293 C 
ATOM     12  OAL 4ME d          22.840   6.166  -4.071  0.00  0.00    -0.259 OA
BRANCH  11  13
ATOM     13  OAM 4ME d          22.138   4.096  -3.524  0.00  0.00    -0.322 OA
ATOM     14  CAJ 4ME d          23.326   3.658  -4.188  0.00  0.00     0.213 C 
ENDBRANCH  11  13
ENDBRANCH   1  11
TORSDOF 2
