3umo_ligand

Created by X-TOOL on Fri Sep 26 17:34:55 2014
 43 45  0  0  0  0  0  0  0  0999 V2000
    8.5350  -15.7940   16.2410  P 0  0  0  1  0  4
    9.3870  -15.6450   17.4520  O 0  0  0  1  0  1
    7.1210  -15.4710   16.7160  O 0  0  0  1  0  1
    8.9430  -14.9080   15.1150  O 0  0  0  1  0  1
    9.7960  -18.1030   15.4680  P 0  0  0  1  0  4
   10.5590  -17.4840   14.2570  O 0  0  0  1  0  1
   10.6700  -18.3090   16.7230  O 0  0  0  1  0  1
    8.4680  -17.2890   15.8110  O 0  0  0  1  0  2
    8.5400  -20.1130   13.8340  P 0  0  0  1  0  4
    8.4220  -19.0650   12.7670  O 0  0  0  1  0  1
    9.2260  -21.3940   13.3550  O 0  0  0  1  0  1
    9.2820  -19.5560   15.0790  O 0  0  0  1  0  2
    7.0550  -20.4120   14.3760  O 0  0  0  1  0  2
    6.8500  -21.4700   15.2490  C 0  0  0  3  0  4
    5.8050  -22.4310   14.9010  C 0  0  0  2  0  4
    4.6290  -21.6910   14.5070  O 0  0  0  1  0  2
    6.1360  -23.2160   13.7010  C 0  0  0  2  0  4
    6.9130  -24.3120   14.0060  O 0  0  0  2  0  2
    4.8090  -23.5720   13.1700  C 0  0  0  2  0  4
    4.2390  -24.5510   13.9390  O 0  0  0  2  0  2
    4.0510  -22.3190   13.3860  C 0  0  0  2  0  4
    4.1210  -21.4380   12.2220  N 0  0  0  1  0  3
    4.9450  -20.3850   12.0690  C 0  0  0  2  0  3
    4.6950  -19.8410   10.8520  N 0  0  0  1  0  2
    3.7200  -20.5480   10.2440  C 0  0  0  1  0  3
    3.0700  -20.4410    9.0100  C 0  0  0  1  0  3
    3.4270  -19.3580    8.0340  N 0  0  0  3  0  3
    2.1150  -21.3380    8.7090  N 0  0  0  1  0  2
    1.7810  -22.3180    9.5660  C 0  0  0  2  0  3
    2.3840  -22.4390   10.7520  N 0  0  0  1  0  2
    3.3470  -21.5740   11.1160  C 0  0  0  1  0  3
    6.5943  -21.0443   16.2305  H 0  0  0  1  0  1
    7.7970  -22.0243   15.3252  H 0  0  0  1  0  1
    5.6032  -23.0918   15.7569  H 0  0  0  1  0  1
    6.6809  -22.5959   12.9740  H 0  0  0  1  0  1
    6.4427  -24.8738   14.6106  H 0  0  0  1  0  1
    4.8475  -23.8707   12.1120  H 0  0  0  1  0  1
    4.7945  -25.3216   13.9315  H 0  0  0  1  0  1
    2.9965  -22.5556   13.5908  H 0  0  0  1  0  1
    5.6797  -20.0333   12.7918  H 0  0  0  1  0  1
    2.9362  -19.2967    7.1305  H 0  0  0  1  0  1
    4.1627  -18.6761    8.2677  H 0  0  0  1  0  1
    1.0068  -23.0244    9.2893  H 0  0  0  1  0  1
  1  2  2  0  0  2
  1  3  2  0  0  2
  1  4  2  0  0  2
  8  1  1  0  0  2
  5  6  2  0  0  2
  5  7  2  0  0  2
  5  8  1  0  0  2
 12  5  1  0  0  2
  9 10  2  0  0  2
  9 11  2  0  0  2
  9 12  1  0  0  2
  9 13  1  0  0  2
 13 14  1  0  0  2
 14 15  1  0  0  2
 15 16  1  0  0  1
 15 17  1  0  0  1
 16 21  1  0  0  1
 17 18  1  0  0  2
 17 19  1  0  0  1
 19 20  1  0  0  2
 19 21  1  0  0  1
 21 22  1  0  0  2
 22 23  1  0  0  1
 22 31  1  0  0  1
 23 24  2  0  0  1
 24 25  1  0  0  1
 25 26  4  0  0  1
 25 31  4  0  0  1
 26 27  1  0  0  2
 26 28  4  0  0  1
 28 29  4  0  0  1
 29 30  4  0  0  1
 30 31  4  0  0  1
 14 32  1  0  0  2
 14 33  1  0  0  2
 15 34  1  0  0  2
 17 35  1  0  0  2
 18 36  1  0  0  2
 19 37  1  0  0  2
 20 38  1  0  0  2
 21 39  1  0  0  2
 23 40  1  0  0  2
 27 41  1  0  0  2
 27 42  1  0  0  2
 29 43  1  0  0  2
M  END
> <MOLECULAR_FORMULA>
C10H12N5O13P3

> <MOLECULAR_WEIGHT>
503.1

> <NUM_HB_ATOMS>
18 

> <NUM_ROTOR>
7  

> <XLOGP2>
-3.94

$$$$
