REMARK  1 active torsions:
REMARK  status: ('A' for Active; 'I' for Inactive)
REMARK    1  A    between atoms: C2_12  and  O1_11 
ROOT
ATOM      1  C13 LG7 d          27.812   4.260   3.914  0.00  0.00     0.032 A 
ATOM      2  C18 LG7 d          22.585   4.404   4.498  0.00  0.00     0.001 A 
ATOM      3  C17 LG7 d          23.513   5.364   4.252  0.00  0.00     0.014 A 
ATOM      4  C16 LG7 d          24.911   4.891   4.149  0.00  0.00    -0.003 A 
ATOM      5  C15 LG7 d          25.995   5.894   3.881  0.00  0.00     0.055 A 
ATOM      6  C19 LG7 d          22.945   3.026   4.663  0.00  0.00     0.001 A 
ATOM      7  C20 LG7 d          24.309   2.521   4.571  0.00  0.00     0.014 A 
ATOM      8  C21 LG7 d          25.324   3.543   4.302  0.00  0.00     0.003 A 
ATOM      9  C22 LG7 d          25.574   7.280   3.802  0.00  0.00     0.100 C 
ATOM     10  C12 LG7 d          26.761   3.249   4.173  0.00  0.00     0.057 A 
ATOM     11  C2  LG7 d          29.947  -0.083   4.142  0.00  0.00     0.150 C 
ATOM     12  C3  LG7 d          29.544  -1.382   3.236  0.00  0.00     0.054 C 
ATOM     13  C4  LG7 d          27.921  -1.376   3.124  0.00  0.00     0.131 C 
ATOM     14  N5  LG7 d          27.815  -0.005   3.787  0.00  0.00    -0.318 N 
ATOM     15  C6  LG7 d          28.565   0.221   4.924  0.00  0.00     0.196 A 
ATOM     16  C7  LG7 d          28.250   1.659   5.279  0.00  0.00     0.192 A 
ATOM     17  O8  LG7 d          28.820   2.262   6.343  0.00  0.00    -0.174 OA
ATOM     18  N9  LG7 d          27.346   2.040   4.295  0.00  0.00    -0.242 N 
ATOM     19  C10 LG7 d          27.100   1.035   3.415  0.00  0.00     0.332 A 
ATOM     20  O11 LG7 d          26.365   1.045   2.439  0.00  0.00    -0.246 OA
ATOM     21  C14 LG7 d          27.419   5.575   3.751  0.00  0.00     0.026 A 
ATOM     22  N23 LG7 d          25.228   8.421   3.739  0.00  0.00    -0.191 NA
ENDROOT
BRANCH  11  23
ATOM     23  O1  LG7 d          30.252   0.944   3.243  0.00  0.00    -0.393 OA
ATOM     24  H6  LG7 d          30.494   1.725   3.727  0.00  0.00     0.210 HD
ENDBRANCH  11  23
TORSDOF 1
