REMARK  14 active torsions:
REMARK  status: ('A' for Active; 'I' for Inactive)
REMARK    1  A    between atoms: N1_1  and  C31_39 
REMARK    2  A    between atoms: C2_3  and  C3_4 
REMARK       I    between atoms: C3_4  and  N2_6 
REMARK    3  A    between atoms: N2_6  and  C4_7 
REMARK    4  A    between atoms: N3_11  and  C10_14 
REMARK    5  A    between atoms: C10_14  and  C11_15 
REMARK    6  A    between atoms: C11_15  and  O2_16 
REMARK    7  A    between atoms: C11_15  and  C12_17 
REMARK    8  A    between atoms: C12_17  and  C13_18 
REMARK    9  A    between atoms: C13_18  and  C14_19 
REMARK   10  A    between atoms: C13_18  and  C21_26 
REMARK   11  A    between atoms: C14_19  and  C15_20 
REMARK       I    between atoms: C21_26  and  N4_28 
REMARK   12  A    between atoms: N4_28  and  C22_29 
REMARK   13  A    between atoms: C23_30  and  O4_31 
REMARK   14  A    between atoms: C31_39  and  C32_40 
ROOT
ATOM      1  C11 MK1 d          23.866  15.673   4.939  0.00  0.00     0.145 C 
ENDROOT
BRANCH   1   2
ATOM      2  C10 MK1 d          24.769  16.889   4.680  0.00  0.00     0.267 C 
BRANCH   2   3
ATOM      3  N3  MK1 d          23.959  18.070   4.315  0.00  0.00    -0.053 N 
ATOM      4  C2  MK1 d          24.493  19.332   4.970  0.00  0.00     0.305 C 
ATOM      5  C1  MK1 d          23.532  20.378   4.390  0.00  0.00     0.278 C 
ATOM      6  N1  MK1 d          23.591  20.568   2.901  0.00  0.00    -0.063 N 
ATOM      7  C9  MK1 d          23.251  19.374   2.280  0.00  0.00     0.263 C 
ATOM      8  H1  MK1 d          24.553  20.762   2.671  0.00  0.00     0.280 HD
ATOM      9  C8  MK1 d          23.950  18.147   2.833  0.00  0.00     0.263 C 
ATOM     10  H15 MK1 d          23.014  17.932   4.637  0.00  0.00     0.281 HD
BRANCH   4  11
ATOM     11  C3  MK1 d          24.405  19.317   6.460  0.00  0.00     0.251 C 
ATOM     12  O1  MK1 d          23.377  18.942   7.009  0.00  0.00    -0.271 OA
ATOM     13  N2  MK1 d          25.499  19.727   7.096  0.00  0.00    -0.351 N 
ATOM     14  H5  MK1 d          26.264  20.048   6.537  0.00  0.00     0.163 HD
BRANCH  13  15
ATOM     15  C4  MK1 d          25.671  19.746   8.538  0.00  0.00     0.022 C 
ATOM     16  C5  MK1 d          27.069  20.297   8.831  0.00  0.00     0.037 C 
ATOM     17  C6  MK1 d          25.549  18.443   9.043  0.00  0.00     0.037 C 
ATOM     18  C7  MK1 d          24.668  20.627   9.140  0.00  0.00     0.037 C 
ENDBRANCH  13  15
ENDBRANCH   4  11
BRANCH   6  19
ATOM     19  C31 MK1 d          22.820  21.692   2.390  0.00  0.00     0.275 C 
BRANCH  19  20
ATOM     20  C32 MK1 d          23.038  23.067   3.036  0.00  0.00    -0.015 A 
ATOM     21  C33 MK1 d          24.207  23.807   2.814  0.00  0.00     0.125 A 
ATOM     22  N5  MK1 d          24.441  25.123   3.275  0.00  0.00    -0.273 NA
ATOM     23  C34 MK1 d          23.345  25.564   3.997  0.00  0.00     0.116 A 
ATOM     24  C35 MK1 d          22.173  24.866   4.261  0.00  0.00     0.020 A 
ATOM     25  C36 MK1 d          21.988  23.574   3.791  0.00  0.00     0.012 A 
ENDBRANCH  19  20
ENDBRANCH   6  19
ENDBRANCH   2   3
ENDBRANCH   1   2
BRANCH   1  26
ATOM     26  O2  MK1 d          24.631  14.574   4.598  0.00  0.00    -0.394 OA
ATOM     27  H23 MK1 d          24.125  13.782   4.737  0.00  0.00     0.210 HD
ENDBRANCH   1  26
BRANCH   1  28
ATOM     28  C12 MK1 d          23.397  15.545   6.400  0.00  0.00     0.047 C 
BRANCH  28  29
ATOM     29  C13 MK1 d          22.518  14.308   6.743  0.00  0.00     0.084 C 
BRANCH  29  30
ATOM     30  C14 MK1 d          22.356  14.217   8.274  0.00  0.00     0.052 C 
BRANCH  30  31
ATOM     31  C15 MK1 d          21.434  13.178   8.756  0.00  0.00    -0.057 A 
ATOM     32  C16 MK1 d          21.707  11.827   8.527  0.00  0.00     0.007 A 
ATOM     33  C17 MK1 d          20.829  10.865   9.016  0.00  0.00     0.001 A 
ATOM     34  C18 MK1 d          19.699  11.246   9.723  0.00  0.00     0.000 A 
ATOM     35  C19 MK1 d          19.437  12.590   9.964  0.00  0.00     0.001 A 
ATOM     36  C20 MK1 d          20.312  13.536   9.477  0.00  0.00     0.007 A 
ENDBRANCH  30  31
ENDBRANCH  29  30
BRANCH  29  37
ATOM     37  C21 MK1 d          21.156  14.484   6.100  0.00  0.00     0.222 C 
ATOM     38  O3  MK1 d          20.472  15.525   6.112  0.00  0.00    -0.273 OA
ATOM     39  N4  MK1 d          20.722  13.353   5.576  0.00  0.00    -0.350 N 
ATOM     40  H34 MK1 d          21.352  12.594   5.410  0.00  0.00     0.163 HD
BRANCH  39  41
ATOM     41  C22 MK1 d          19.310  13.231   5.245  0.00  0.00     0.147 C 
ATOM     42  C23 MK1 d          18.695  11.877   5.569  0.00  0.00     0.149 C 
ATOM     43  C24 MK1 d          17.473  11.797   4.684  0.00  0.00     0.073 C 
ATOM     44  C25 MK1 d          17.838  12.453   3.366  0.00  0.00    -0.047 A 
ATOM     45  C26 MK1 d          17.365  12.390   2.083  0.00  0.00     0.008 A 
ATOM     46  C30 MK1 d          19.003  13.390   3.738  0.00  0.00    -0.027 A 
ATOM     47  C27 MK1 d          17.990  13.197   1.142  0.00  0.00     0.001 A 
ATOM     48  C28 MK1 d          19.045  14.051   1.460  0.00  0.00     0.001 A 
ATOM     49  C29 MK1 d          19.528  14.143   2.742  0.00  0.00     0.010 A 
BRANCH  42  50
ATOM     50  O4  MK1 d          19.597  10.812   5.265  0.00  0.00    -0.393 OA
ATOM     51  H37 MK1 d          19.187   9.981   5.477  0.00  0.00     0.210 HD
ENDBRANCH  42  50
ENDBRANCH  39  41
ENDBRANCH  29  37
ENDBRANCH  28  29
ENDBRANCH   1  28
TORSDOF 14
