REMARK  5 active torsions:
REMARK  status: ('A' for Active; 'I' for Inactive)
REMARK    1  A    between atoms: C2_2  and  O2_8 
REMARK    2  A    between atoms: C3_3  and  O3_9 
REMARK    3  A    between atoms: C4_4  and  O4_10 
REMARK    4  A    between atoms: C5_5  and  C6_6 
REMARK    5  A    between atoms: C6_6  and  O6_12 
ROOT
ATOM      1  C1  MOL d         -11.928 -27.240 -25.505  0.00  0.00     0.291 C 
ATOM      2  C2  MOL d         -10.835 -28.155 -25.004  0.00  0.00     0.248 C 
ATOM      3  C3  MOL d         -10.017 -28.707 -26.167  0.00  0.00     0.188 C 
ATOM      4  C4  MOL d         -10.906 -29.112 -27.342  0.00  0.00     0.181 C 
ATOM      5  C5  MOL d         -11.794 -27.964 -27.825  0.00  0.00     0.186 C 
ATOM      6  O1  MOL d         -12.264 -26.262 -24.863  0.00  0.00    -0.262 OA
ATOM      7  O5  MOL d         -12.628 -27.501 -26.759  0.00  0.00    -0.309 OA
ENDROOT
BRANCH   5   8
ATOM      8  C6  MOL d         -12.710 -28.393 -28.970  0.00  0.00     0.199 C 
BRANCH   8   9
ATOM      9  O6  MOL d         -11.966 -28.912 -30.082  0.00  0.00    -0.398 OA
ATOM     10  H10 MOL d         -12.567 -29.168 -30.772  0.00  0.00     0.209 HD
ENDBRANCH   8   9
ENDBRANCH   5   8
BRANCH   4  11
ATOM     11  O4  MOL d         -11.735 -30.202 -26.947  0.00  0.00    -0.390 OA
ATOM     12  H9  MOL d         -11.190 -30.920 -26.645  0.00  0.00     0.210 HD
ENDBRANCH   4  11
BRANCH   3  13
ATOM     13  O3  MOL d          -9.266 -29.833 -25.696  0.00  0.00    -0.390 OA
ATOM     14  H8  MOL d          -9.864 -30.514 -25.411  0.00  0.00     0.210 HD
ENDBRANCH   3  13
BRANCH   2  15
ATOM     15  O2  MOL d          -9.957 -27.486 -24.085  0.00  0.00    -0.383 OA
ATOM     16  H7  MOL d         -10.463 -27.141 -23.359  0.00  0.00     0.210 HD
ENDBRANCH   2  15
TORSDOF 5
