REMARK  13 active torsions:
REMARK  status: ('A' for Active; 'I' for Inactive)
REMARK    1  A    between atoms: CA_15  and  CB_16 
REMARK    2  A    between atoms: CCA_22  and  OAK_23 
REMARK    3  A    between atoms: CCA_22  and  CBD_24 
REMARK    4  A    between atoms: CBD_24  and  CBA_25 
REMARK    5  A    between atoms: CBA_25  and  CBC_26 
REMARK    6  A    between atoms: CBC_26  and  NBY_27 
REMARK    7  A    between atoms: NBY_27  and  NBK_28 
REMARK       I    between atoms: NBK_28  and  CBO_29 
REMARK    8  A    between atoms: CBO_29  and  CBX_31 
REMARK    9  A    between atoms: CBX_31  and  CBZ_32 
REMARK   10  A    between atoms: CBX_31  and  NBI_36 
REMARK       I    between atoms: NBI_36  and  CBM_37 
REMARK   11  A    between atoms: CBM_37  and  OBL_39 
REMARK   12  A    between atoms: CBE_41  and  CXQ_42 
REMARK   13  A    between atoms: CXA_47  and  CXY_48 
ROOT
ATOM      1  CBC V78 d          15.299  23.612   6.075  0.00  0.00     0.148 C 
ENDROOT
BRANCH   1   2
ATOM      2  CBA V78 d          13.817  23.967   6.190  0.00  0.00     0.025 C 
BRANCH   2   3
ATOM      3  CBD V78 d          13.052  23.237   5.088  0.00  0.00     0.050 C 
BRANCH   3   4
ATOM      4  CCA V78 d          11.976  24.147   4.499  0.00  0.00     0.142 C 
ATOM      5  CBF V78 d          11.530  23.576   3.304  0.00  0.00     0.086 C 
ATOM      6  CBS V78 d          10.236  23.811   2.860  0.00  0.00    -0.055 C 
ATOM      7  CAT V78 d           9.221  22.911   3.169  0.00  0.00     0.007 C 
ATOM      8  CAU V78 d           9.935  25.006   2.223  0.00  0.00     0.007 C 
ATOM      9  CAR V78 d           7.902  23.234   2.877  0.00  0.00     0.007 C 
ATOM     10  CBQ V78 d           7.610  24.395   2.167  0.00  0.00    -0.058 C 
ATOM     11  CAS V78 d           8.615  25.322   1.928  0.00  0.00     0.007 C 
ATOM     12  CBB V78 d           6.285  24.745   1.930  0.00  0.00     0.042 C 
ATOM     13  CAM V78 d           5.643  24.855   3.160  0.00  0.00     0.033 C 
ATOM     14  CAL V78 d           5.394  26.197   3.445  0.00  0.00    -0.009 C 
ATOM     15  CAZ V78 d           5.948  26.812   4.573  0.00  0.00     0.087 C 
ATOM     16  NBH V78 d           6.961  25.945   5.224  0.00  0.00    -0.336 N 
ATOM     17  C   V78 d           8.149  26.534   5.680  0.00  0.00     0.244 C 
ATOM     18  H   V78 d           6.800  24.964   5.335  0.00  0.00     0.168 HD
ATOM     19  O   V78 d           8.406  27.678   5.291  0.00  0.00    -0.271 OA
ATOM     20  CA  V78 d           9.102  25.762   6.367  0.00  0.00     0.180 C 
ATOM     21  N   V78 d          10.274  25.546   5.485  0.00  0.00    -0.345 N 
ATOM     22  CBP V78 d          10.909  24.306   5.401  0.00  0.00     0.253 C 
ATOM     23  H   V78 d          10.618  26.308   4.936  0.00  0.00     0.163 HD
ATOM     24  OAJ V78 d          10.492  23.373   6.089  0.00  0.00    -0.270 OA
BRANCH  20  25
ATOM     25  CB  V78 d           9.525  26.487   7.655  0.00  0.00     0.009 C 
ATOM     26  CG1 V78 d           8.312  26.645   8.573  0.00  0.00     0.012 C 
ATOM     27  CG2 V78 d          10.623  25.696   8.374  0.00  0.00     0.012 C 
ENDBRANCH  20  25
BRANCH   4  28
ATOM     28  OAK V78 d          12.556  25.430   4.221  0.00  0.00    -0.380 OA
ATOM     29  H   V78 d          13.277  25.325   3.612  0.00  0.00     0.211 HD
ENDBRANCH   4  28
ENDBRANCH   3   4
ENDBRANCH   2   3
ENDBRANCH   1   2
BRANCH   1  30
ATOM     30  NBY V78 d          15.575  22.378   6.824  0.00  0.00    -0.300 N 
ATOM     31  CBE V78 d          15.658  22.396   8.160  0.00  0.00     0.121 C 
BRANCH  30  32
ATOM     32  NBK V78 d          16.087  21.475   6.302  0.00  0.00    -0.266 N 
ATOM     33  CBO V78 d          15.327  20.671   5.533  0.00  0.00     0.259 C 
ATOM     34  OAI V78 d          14.157  20.378   5.810  0.00  0.00    -0.269 OA
ATOM     35  H   V78 d          17.064  21.299   6.420  0.00  0.00     0.190 HD
BRANCH  33  36
ATOM     36  CBX V78 d          16.193  19.724   4.693  0.00  0.00     0.188 C 
BRANCH  36  37
ATOM     37  CBZ V78 d          15.412  18.982   3.608  0.00  0.00    -0.022 C 
ATOM     38  CAD V78 d          14.428  18.000   4.251  0.00  0.00     0.017 C 
ATOM     39  CAE V78 d          14.657  19.977   2.728  0.00  0.00     0.017 C 
ATOM     40  CAF V78 d          16.407  18.199   2.751  0.00  0.00     0.017 C 
ENDBRANCH  36  37
BRANCH  36  41
ATOM     41  NBI V78 d          16.844  18.741   5.569  0.00  0.00    -0.323 N 
ATOM     42  CBM V78 d          18.166  18.748   5.703  0.00  0.00     0.360 C 
ATOM     43  OAG V78 d          18.827  19.537   5.027  0.00  0.00    -0.239 OA
ATOM     44  H   V78 d          16.294  18.068   6.063  0.00  0.00     0.165 HD
BRANCH  42  45
ATOM     45  OBL V78 d          18.764  17.870   6.557  0.00  0.00    -0.309 OA
ATOM     46  CAA V78 d          20.027  18.359   7.013  0.00  0.00     0.215 C 
ENDBRANCH  42  45
ENDBRANCH  36  41
ENDBRANCH  33  36
ENDBRANCH  30  32
BRANCH  31  47
ATOM     47  CXQ V78 d          15.982  21.185   8.769  0.00  0.00    -0.019 A 
ATOM     48  CXV V78 d          17.299  20.745   8.820  0.00  0.00     0.013 A 
ATOM     49  CXW V78 d          17.618  19.557   9.475  0.00  0.00     0.013 A 
ATOM     50  CXA V78 d          16.611  18.772  10.025  0.00  0.00    -0.025 A 
ATOM     51  CXR V78 d          15.293  19.203   9.950  0.00  0.00     0.013 A 
ATOM     52  CXP V78 d          14.980  20.413   9.342  0.00  0.00     0.013 A 
BRANCH  50  53
ATOM     53  CXY V78 d          16.901  17.632  10.652  0.00  0.00    -0.019 C 
ATOM     54  CXZ V78 d          16.075  16.567  10.573  0.00  0.00     0.020 C 
ATOM     55  CXT V78 d          16.436  15.548  11.365  0.00  0.00     0.050 C 
ATOM     56  SAI V78 d          17.689  16.075  12.312  0.00  0.00    -0.113 SA
ATOM     57  CXG V78 d          17.770  17.602  11.671  0.00  0.00     0.061 C 
ENDBRANCH  50  53
ENDBRANCH  31  47
ENDBRANCH   1  30
TORSDOF 13
