REMARK  4 active torsions:
REMARK  status: ('A' for Active; 'I' for Inactive)
REMARK    1  A    between atoms: C2_2  and  CAP_20 
REMARK    2  A    between atoms: NAN_18  and  C6_6 
REMARK    3  A    between atoms: CAO_19  and  NAA_7 
REMARK    4  A    between atoms: NAN_18  and  CAU_21 
ROOT
ATOM      1  N1  IRG d          23.951 -17.020 -10.787  0.00  0.00    -0.210 NA
ATOM      2  C2  IRG d          23.761 -17.767  -9.672  0.00  0.00     0.162 A 
ATOM      3  N3  IRG d          24.014 -17.213  -8.470  0.00  0.00    -0.228 NA
ATOM      4  C4  IRG d          24.477 -15.956  -8.373  0.00  0.00     0.075 A 
ATOM      5  C5  IRG d          24.655 -15.176  -9.511  0.00  0.00     0.038 A 
ATOM      6  C6  IRG d          24.414 -15.753 -10.753  0.00  0.00     0.139 A 
ATOM      7  CAG IRG d          25.439 -13.295  -8.148  0.00  0.00     0.030 A 
ATOM      8  CAH IRG d          25.150 -13.864  -9.393  0.00  0.00     0.020 A 
ATOM      9  CAI IRG d          24.785 -15.404  -7.130  0.00  0.00     0.061 A 
ATOM     10  CAO IRG d          25.236 -14.089  -7.005  0.00  0.00     0.028 A 
ENDROOT
BRANCH   2  11
ATOM     11  CAP IRG d          23.242 -19.065  -9.799  0.00  0.00     0.012 A 
ATOM     12  CAE IRG d          22.928 -19.544 -11.069  0.00  0.00     0.015 A 
ATOM     13  CAC IRG d          22.356 -20.803 -11.258  0.00  0.00     0.001 A 
ATOM     14  CAB IRG d          22.070 -21.624 -10.173  0.00  0.00     0.000 A 
ATOM     15  CAD IRG d          22.369 -21.160  -8.875  0.00  0.00     0.001 A 
ATOM     16  CAF IRG d          22.954 -19.895  -8.688  0.00  0.00     0.015 A 
ENDBRANCH   2  11
BRANCH   6  17
ATOM     17  NAN IRG d          24.587 -15.037 -11.893  0.00  0.00    -0.369 N 
ATOM     18  H15 IRG d          24.875 -14.050 -11.840  0.00  0.00     0.161 HD
BRANCH  17  19
ATOM     19  CAU IRG d          24.365 -15.663 -13.198  0.00  0.00     0.083 A 
ATOM     20  CAJ IRG d          25.617 -16.292 -13.811  0.00  0.00     0.027 A 
ATOM     21  CAK IRG d          25.105 -14.978 -14.379  0.00  0.00     0.027 A 
ENDBRANCH  17  19
ENDBRANCH   6  17
BRANCH  10  22
ATOM     22  NAA IRG d          25.488 -13.593  -5.791  0.00  0.00    -0.399 N 
ATOM     23  H1  IRG d          25.821 -12.624  -5.690  0.00  0.00     0.156 HD
ATOM     24  H2  IRG d          25.349 -14.180  -4.956  0.00  0.00     0.156 HD
ENDBRANCH  10  22
TORSDOF 4
