REMARK  5 active torsions:
REMARK  status: ('A' for Active; 'I' for Inactive)
REMARK    1  A    between atoms: C8_10  and  C9_1 
REMARK    2  A    between atoms: N7_9  and  C4_4 
REMARK    3  A    between atoms: C3_8  and  C17_17 
REMARK    4  A    between atoms: N7_9  and  C8_10 
REMARK    5  A    between atoms: C14_14  and  O15_15 
ROOT
ATOM      1  C2  MOL d          28.929  26.697  -6.727  0.00  0.00     0.021 A 
ATOM      2  C4  MOL d          29.141  24.337  -6.350  0.00  0.00     0.137 A 
ATOM      3  N5  MOL d          29.456  24.162  -7.632  0.00  0.00    -0.243 NA
ATOM      4  C6  MOL d          29.518  25.170  -8.482  0.00  0.00     0.119 A 
ATOM      5  C1  MOL d          29.256  26.463  -8.054  0.00  0.00     0.020 A 
ATOM      6  C3  MOL d          28.858  25.613  -5.847  0.00  0.00     0.057 A 
ENDROOT
BRANCH   2   7
ATOM      7  N7  MOL d          29.072  23.258  -5.485  0.00  0.00    -0.370 N 
ATOM      8  H   MOL d          28.879  23.419  -4.486  0.00  0.00     0.161 HD
BRANCH   7   9
ATOM      9  C8  MOL d          29.270  21.892  -5.971  0.00  0.00     0.162 C 
BRANCH   9  10
ATOM     10  C9  MOL d          30.688  21.429  -5.825  0.00  0.00    -0.007 A 
ATOM     11  C10 MOL d          31.072  20.794  -4.661  0.00  0.00     0.014 A 
ATOM     12  C11 MOL d          32.368  20.347  -4.532  0.00  0.00     0.043 A 
ATOM     13  C12 MOL d          33.275  20.542  -5.558  0.00  0.00     0.119 A 
ATOM     14  C13 MOL d          32.903  21.175  -6.737  0.00  0.00     0.079 A 
ATOM     15  F16 MOL d          34.530  20.091  -5.405  0.00  0.00    -0.206 F 
ATOM     16  C14 MOL d          31.592  21.624  -6.866  0.00  0.00     0.076 A 
BRANCH  16  17
ATOM     17  O15 MOL d          31.191  22.255  -8.006  0.00  0.00    -0.360 OA
ATOM     18  H   MOL d          30.275  22.494  -7.929  0.00  0.00     0.217 HD
ENDBRANCH  16  17
ENDBRANCH   9  10
ENDBRANCH   7   9
ENDBRANCH   2   7
BRANCH   6  19
ATOM     19  C17 MOL d          28.523  25.804  -4.413  0.00  0.00     0.162 A 
ATOM     20  N18 MOL d          28.185  24.756  -3.666  0.00  0.00    -0.241 NA
ATOM     21  C19 MOL d          27.881  24.904  -2.382  0.00  0.00     0.120 A 
ATOM     22  C20 MOL d          27.918  26.166  -1.813  0.00  0.00     0.038 A 
ATOM     23  C21 MOL d          28.272  27.242  -2.619  0.00  0.00     0.120 A 
ATOM     24  N22 MOL d          28.565  27.033  -3.898  0.00  0.00    -0.241 NA
ENDBRANCH   6  19
TORSDOF 5
