REMARK  9 active torsions:
REMARK  status: ('A' for Active; 'I' for Inactive)
REMARK    1  A    between atoms: C1_2  and  C2_4 
REMARK    2  A    between atoms: C2_4  and  C3_6 
REMARK    3  A    between atoms: C2_4  and  O2_5 
REMARK    4  A    between atoms: C3_6  and  C4_8 
REMARK    5  A    between atoms: C3_6  and  O3_7 
REMARK    6  A    between atoms: C4_8  and  C5_10 
REMARK    7  A    between atoms: C4_8  and  O4_9 
REMARK    8  A    between atoms: C5_10  and  O5_11 
REMARK    9  A    between atoms: O5_11  and  P_12 
ROOT
ATOM      1  C3  PA5 d          16.735   9.239  29.941  0.00  0.00     0.188 C 
ENDROOT
BRANCH   1   2
ATOM      2  C2  PA5 d          15.262   9.640  30.275  0.00  0.00     0.250 C 
BRANCH   2   3
ATOM      3  C1  PA5 d          14.853  10.427  28.987  0.00  0.00     0.205 C 
ATOM      4  O1A PA5 d          13.852   9.746  28.448  0.00  0.00    -0.646 OA
ATOM      5  O1  PA5 d          15.255  11.455  28.456  0.00  0.00    -0.646 OA
ENDBRANCH   2   3
BRANCH   2   6
ATOM      6  O2  PA5 d          14.551   8.427  30.606  0.00  0.00    -0.382 OA
ATOM      7  H2  PA5 d          14.576   7.834  29.864  0.00  0.00     0.210 HD
ENDBRANCH   2   6
ENDBRANCH   1   2
BRANCH   1   8
ATOM      8  C4  PA5 d          17.387   8.481  31.148  0.00  0.00     0.174 C 
BRANCH   8   9
ATOM      9  C5  PA5 d          18.839   8.110  30.740  0.00  0.00     0.217 C 
BRANCH   9  10
ATOM     10  O5  PA5 d          19.483   9.426  30.431  0.00  0.00    -0.280 OA
BRANCH  10  11
ATOM     11  P   PA5 d          21.006   9.120  29.941  0.00  0.00     0.422 P 
ATOM     12  O3P PA5 d          21.626  10.493  29.635  0.00  0.00    -0.617 OA
ATOM     13  O2P PA5 d          20.998   8.232  28.707  0.00  0.00    -0.617 OA
ATOM     14  O1P PA5 d          21.769   8.325  31.023  0.00  0.00    -0.617 OA
ENDBRANCH  10  11
ENDBRANCH   9  10
ENDBRANCH   8   9
BRANCH   8  15
ATOM     15  O4  PA5 d          17.389   9.426  32.226  0.00  0.00    -0.391 OA
ATOM     16  H6  PA5 d          17.843  10.215  31.953  0.00  0.00     0.210 HD
ENDBRANCH   8  15
ENDBRANCH   1   8
BRANCH   1  17
ATOM     17  O3  PA5 d          16.752   8.306  28.882  0.00  0.00    -0.390 OA
ATOM     18  H4  PA5 d          16.250   7.538  29.130  0.00  0.00     0.210 HD
ENDBRANCH   1  17
TORSDOF 9
