REMARK  22 active torsions:
REMARK  status: ('A' for Active; 'I' for Inactive)
REMARK    1  A    between atoms: CBL_6  and  CBK_7 
REMARK    2  A    between atoms: CBK_7  and  CBG_8 
REMARK    3  A    between atoms: CBG_8  and  CBH_9 
REMARK    4  A    between atoms: CBG_8  and  NBE_12 
REMARK       I    between atoms: CBH_9  and  NBI_11 
REMARK       I    between atoms: NBE_12  and  CBD_13 
REMARK    5  A    between atoms: CBD_13  and  CAZ_15 
REMARK    6  A    between atoms: CAZ_15  and  CBA_16 
REMARK    7  A    between atoms: CAZ_15  and  NAY_19 
REMARK    8  A    between atoms: CBA_16  and  OBC_18 
REMARK    9  A    between atoms: NAY_19  and  CAX_20 
REMARK   10  A    between atoms: CAX_20  and  CAG_21 
REMARK   11  A    between atoms: CAG_21  and  NAF_22 
REMARK   12  A    between atoms: CAG_21  and  CAH_35 
REMARK       I    between atoms: NAF_22  and  C_23 
REMARK   13  A    between atoms: C_23  and  CA_25 
REMARK   14  A    between atoms: CA_25  and  N_26 
REMARK   15  A    between atoms: CA_25  and  CB_30 
REMARK       I    between atoms: N_26  and  CAB_27 
REMARK   16  A    between atoms: CB_30  and  CG_31 
REMARK   17  A    between atoms: CG_31  and  CD_32 
REMARK   18  A    between atoms: CD_32  and  CE_33 
REMARK   19  A    between atoms: CE_33  and  NZ_34 
REMARK   20  A    between atoms: CAH_35  and  OAI_36 
REMARK   21  A    between atoms: OAI_36  and  CAJ_37 
REMARK   22  A    between atoms: CAJ_37  and  CAK_38 
ROOT
ATOM      1  CAG MOL d           1.209  32.257   9.471  0.00  0.00     0.134 C 
ENDROOT
BRANCH   1   2
ATOM      2  CAX MOL d           1.634  31.348   8.305  0.00  0.00     0.260 C 
BRANCH   2   3
ATOM      3  NAY MOL d           2.566  30.314   8.794  0.00  0.00    -0.058 N 
ATOM      4  H18 MOL d           3.332  30.748   9.285  0.00  0.00     0.278 HD
ATOM      5  H19 MOL d           2.083  29.684   9.415  0.00  0.00     0.278 HD
BRANCH   3   6
ATOM      6  CAZ MOL d           3.072  29.580   7.637  0.00  0.00     0.305 C 
BRANCH   6   7
ATOM      7  CBD MOL d           2.402  28.199   7.525  0.00  0.00     0.251 C 
ATOM      8  NBE MOL d           2.706  27.495   6.266  0.00  0.00    -0.346 N 
ATOM      9  H11 MOL d           3.287  28.010   5.636  0.00  0.00     0.163 HD
ATOM     10  OBF MOL d           1.698  27.766   8.391  0.00  0.00    -0.271 OA
BRANCH   8  11
ATOM     11  CBG MOL d           2.309  26.181   5.778  0.00  0.00     0.180 C 
BRANCH  11  12
ATOM     12  CBK MOL d           2.243  26.358   4.239  0.00  0.00     0.073 C 
BRANCH  12  13
ATOM     13  CBL MOL d           3.226  27.473   3.723  0.00  0.00    -0.056 A 
ATOM     14  CBM MOL d           2.703  28.560   3.022  0.00  0.00     0.007 A 
ATOM     15  CBN MOL d           3.532  29.577   2.535  0.00  0.00     0.001 A 
ATOM     16  CBO MOL d           4.923  29.520   2.769  0.00  0.00     0.000 A 
ATOM     17  CBP MOL d           5.467  28.431   3.482  0.00  0.00     0.001 A 
ATOM     18  CBQ MOL d           4.616  27.426   3.952  0.00  0.00     0.007 A 
ENDBRANCH  12  13
ENDBRANCH  11  12
BRANCH  11  19
ATOM     19  CBH MOL d           1.010  25.676   6.384  0.00  0.00     0.238 C 
ATOM     20  OBJ MOL d           1.010  25.242   7.487  0.00  0.00    -0.271 OA
ATOM     21  NBI MOL d          -0.234  25.722   5.612  0.00  0.00    -0.368 N 
ATOM     22  H9  MOL d          -1.086  25.388   6.016  0.00  0.00     0.159 HD
ATOM     23  H10 MOL d          -0.232  26.087   4.681  0.00  0.00     0.159 HD
ENDBRANCH  11  19
ENDBRANCH   8  11
ENDBRANCH   6   7
BRANCH   6  24
ATOM     24  CBA MOL d           4.601  29.425   7.700  0.00  0.00     0.154 C 
ATOM     25  CBB MOL d           5.019  28.070   8.301  0.00  0.00     0.042 C 
BRANCH  24  26
ATOM     26  OBC MOL d           5.162  30.455   8.470  0.00  0.00    -0.393 OA
ATOM     27  H17 MOL d           4.909  31.295   8.106  0.00  0.00     0.210 HD
ENDBRANCH  24  26
ENDBRANCH   6  24
ENDBRANCH   3   6
ENDBRANCH   2   3
ENDBRANCH   1   2
BRANCH   1  28
ATOM     28  NAF MOL d           1.588  33.652   9.251  0.00  0.00    -0.351 N 
ATOM     29  C   MOL d           2.951  34.233   9.193  0.00  0.00     0.240 C 
ATOM     30  O   MOL d           3.953  33.605   9.331  0.00  0.00    -0.271 OA
ATOM     31  H23 MOL d           0.833  34.295   9.124  0.00  0.00     0.163 HD
BRANCH  29  32
ATOM     32  CA  MOL d           2.979  35.744   8.974  0.00  0.00     0.176 C 
BRANCH  32  33
ATOM     33  N   MOL d           2.032  36.153   9.997  0.00  0.00    -0.348 N 
ATOM     34  CAB MOL d           2.413  37.057  11.082  0.00  0.00     0.214 C 
ATOM     35  OAQ MOL d           3.507  37.519  11.105  0.00  0.00    -0.274 OA
ATOM     36  CAA MOL d           1.391  37.423  12.174  0.00  0.00     0.117 C 
ATOM     37  H25 MOL d           1.095  35.807   9.958  0.00  0.00     0.163 HD
ENDBRANCH  32  33
BRANCH  32  38
ATOM     38  CB  MOL d           2.491  36.029   7.548  0.00  0.00     0.035 C 
BRANCH  38  39
ATOM     39  CG  MOL d           2.009  37.490   7.321  0.00  0.00     0.004 C 
BRANCH  39  40
ATOM     40  CD  MOL d           1.580  37.736   5.846  0.00  0.00     0.027 C 
BRANCH  40  41
ATOM     41  CE  MOL d           0.758  39.043   5.679  0.00  0.00     0.229 C 
BRANCH  41  42
ATOM     42  NZ  MOL d          -0.010  39.050   4.425  0.00  0.00    -0.079 N 
ATOM     43  H37 MOL d          -0.528  39.911   4.353  0.00  0.00     0.274 HD
ATOM     44  H38 MOL d          -0.650  38.271   4.419  0.00  0.00     0.274 HD
ATOM     45  H39 MOL d           0.622  38.972   3.643  0.00  0.00     0.274 HD
ENDBRANCH  41  42
ENDBRANCH  40  41
ENDBRANCH  39  40
ENDBRANCH  38  39
ENDBRANCH  32  38
ENDBRANCH  29  32
ENDBRANCH   1  28
BRANCH   1  46
ATOM     46  CAH MOL d           1.780  31.771  10.811  0.00  0.00     0.194 C 
BRANCH  46  47
ATOM     47  OAI MOL d           1.343  32.649  11.848  0.00  0.00    -0.385 OA
BRANCH  47  48
ATOM     48  CAJ MOL d          -0.057  32.624  12.124  0.00  0.00     0.207 C 
BRANCH  48  49
ATOM     49  CAK MOL d          -0.399  31.287  12.836  0.00  0.00    -0.017 A 
ATOM     50  CAL MOL d           0.470  30.750  13.798  0.00  0.00     0.012 A 
ATOM     51  CAM MOL d           0.116  29.544  14.403  0.00  0.00     0.020 A 
ATOM     52  CAN MOL d          -1.081  28.925  14.033  0.00  0.00     0.116 A 
ATOM     53  NAO MOL d          -1.886  29.461  13.115  0.00  0.00    -0.273 NA
ATOM     54  CAP MOL d          -1.580  30.610  12.520  0.00  0.00     0.125 A 
ENDBRANCH  48  49
ENDBRANCH  47  48
ENDBRANCH  46  47
ENDBRANCH   1  46
TORSDOF 22
