REMARK  8 active torsions:
REMARK  status: ('A' for Active; 'I' for Inactive)
REMARK    1  A    between atoms: C7_1  and  N8_2 
REMARK    2  A    between atoms: C5_10  and  C7_1 
REMARK    3  A    between atoms: N8_2  and  C9_3 
REMARK    4  A    between atoms: C4_6  and  O24_24 
REMARK    5  A    between atoms: C11_11  and  N15_15 
REMARK    6  A    between atoms: N15_15  and  C16_16 
REMARK    7  A    between atoms: C16_16  and  C17_17 
REMARK    8  A    between atoms: C22_22  and  O23_23 
ROOT
ATOM      1  C9  2J7 d          25.077  29.016   6.424  0.00  0.00     0.128 A 
ATOM      2  C10 2J7 d          26.368  28.777   5.952  0.00  0.00     0.100 A 
ATOM      3  C11 2J7 d          27.470  28.821   6.837  0.00  0.00     0.128 A 
ATOM      4  N12 2J7 d          27.240  29.077   8.127  0.00  0.00    -0.225 NA
ATOM      5  C13 2J7 d          25.988  29.305   8.534  0.00  0.00     0.237 A 
ATOM      6  N14 2J7 d          24.936  29.279   7.730  0.00  0.00    -0.225 NA
ENDROOT
BRANCH   1   7
ATOM      7  N8  2J7 d          23.985  28.943   5.535  0.00  0.00    -0.370 N 
ATOM      8  H3  2J7 d          24.198  28.823   4.534  0.00  0.00     0.161 HD
BRANCH   7   9
ATOM      9  C7  2J7 d          22.554  29.025   5.922  0.00  0.00     0.162 C 
BRANCH   9  10
ATOM     10  C5  2J7 d          21.962  30.423   5.823  0.00  0.00    -0.007 A 
ATOM     11  C4  2J7 d          22.047  31.290   6.903  0.00  0.00     0.073 A 
ATOM     12  C3  2J7 d          21.503  32.574   6.821  0.00  0.00     0.037 A 
ATOM     13  C2  2J7 d          20.849  32.986   5.661  0.00  0.00     0.003 A 
ATOM     14  C1  2J7 d          20.756  32.116   4.581  0.00  0.00     0.001 A 
ATOM     15  C6  2J7 d          21.300  30.838   4.666  0.00  0.00     0.011 A 
BRANCH  11  16
ATOM     16  O24 2J7 d          22.696  30.893   8.032  0.00  0.00    -0.360 OA
ATOM     17  H18 2J7 d          23.600  30.691   7.822  0.00  0.00     0.217 HD
ENDBRANCH  11  16
ENDBRANCH   9  10
ENDBRANCH   7   9
ENDBRANCH   1   7
BRANCH   3  18
ATOM     18  N15 2J7 d          28.779  28.601   6.358  0.00  0.00    -0.370 N 
ATOM     19  H10 2J7 d          28.884  28.309   5.376  0.00  0.00     0.161 HD
BRANCH  18  20
ATOM     20  C16 2J7 d          30.018  28.759   7.163  0.00  0.00     0.162 C 
BRANCH  20  21
ATOM     21  C17 2J7 d          30.629  27.460   7.652  0.00  0.00    -0.007 A 
ATOM     22  C18 2J7 d          31.539  26.738   6.894  0.00  0.00     0.011 A 
ATOM     23  C19 2J7 d          32.065  25.551   7.373  0.00  0.00     0.001 A 
ATOM     24  C20 2J7 d          31.682  25.060   8.623  0.00  0.00     0.003 A 
ATOM     25  C21 2J7 d          30.772  25.780   9.389  0.00  0.00     0.037 A 
ATOM     26  C22 2J7 d          30.251  26.980   8.899  0.00  0.00     0.073 A 
BRANCH  26  27
ATOM     27  O23 2J7 d          29.349  27.700   9.621  0.00  0.00    -0.360 OA
ATOM     28  H17 2J7 d          29.107  28.480   9.136  0.00  0.00     0.217 HD
ENDBRANCH  26  27
ENDBRANCH  20  21
ENDBRANCH  18  20
ENDBRANCH   3  18
TORSDOF 8
