REMARK  8 active torsions:
REMARK  status: ('A' for Active; 'I' for Inactive)
REMARK    1  A    between atoms: O2_1  and  C3_2 
REMARK    2  A    between atoms: C1_5  and  O1_6 
REMARK    3  A    between atoms: C6_10  and  C7_11 
REMARK    4  A    between atoms: C20_22  and  C22_24 
REMARK    5  A    between atoms: C22_24  and  C23_25 
REMARK    6  A    between atoms: C23_25  and  C24_26 
REMARK    7  A    between atoms: C24_26  and  C25_27 
REMARK    8  A    between atoms: C25_27  and  O3_30 
ROOT
ATOM      1  C7  VD5 d          60.319   5.243  -2.888  0.00  0.00     0.003 C 
ATOM      2  C8  VD5 d          60.495   5.138  -4.246  0.00  0.00    -0.075 C 
ATOM      3  C9  VD5 d          60.670   6.370  -5.136  0.00  0.00     0.034 C 
ATOM      4  C11 VD5 d          61.924   6.213  -6.016  0.00  0.00     0.005 C 
ATOM      5  C12 VD5 d          62.156   4.798  -6.619  0.00  0.00     0.015 C 
ATOM      6  C14 VD5 d          60.607   3.814  -5.011  0.00  0.00     0.027 C 
ATOM      7  C13 VD5 d          62.039   3.680  -5.563  0.00  0.00    -0.013 C 
ATOM      8  C18 VD5 d          63.138   3.765  -4.474  0.00  0.00     0.021 C 
ATOM      9  C15 VD5 d          60.283   2.458  -4.380  0.00  0.00     0.014 C 
ATOM     10  C16 VD5 d          61.031   1.433  -5.285  0.00  0.00     0.036 C 
ATOM     11  C17 VD5 d          62.080   2.235  -6.034  0.00  0.00    -0.069 C 
ATOM     12  C20 VD5 d          62.926   1.715  -6.970  0.00  0.00    -0.081 C 
ATOM     13  C21 VD5 d          63.968   2.533  -7.707  0.00  0.00     0.043 C 
ENDROOT
BRANCH   1  14
ATOM     14  C6  VD5 d          60.319   6.559  -2.204  0.00  0.00     0.003 C 
ATOM     15  C5  VD5 d          60.554   6.688  -0.861  0.00  0.00    -0.074 C 
ATOM     16  C10 VD5 d          60.820   5.478   0.038  0.00  0.00     0.070 C 
ATOM     17  C4  VD5 d          60.578   8.086  -0.267  0.00  0.00     0.070 C 
ATOM     18  C1  VD5 d          60.155   5.610   1.429  0.00  0.00     0.152 C 
ATOM     19  C2  VD5 d          60.499   6.942   1.970  0.00  0.00    -0.032 C 
ATOM     20  C3  VD5 d          60.072   8.151   1.171  0.00  0.00     0.152 C 
ATOM     21  C28 VD5 d          61.118   7.043   3.142  0.00  0.00     0.019 C 
BRANCH  18  22
ATOM     22  O1  VD5 d          60.625   4.631   2.366  0.00  0.00    -0.391 OA
ATOM     23  H6  VD5 d          60.418   3.761   2.045  0.00  0.00     0.210 HD
ENDBRANCH  18  22
BRANCH  20  24
ATOM     24  O2  VD5 d          58.641   8.112   1.129  0.00  0.00    -0.391 OA
ATOM     25  H1  VD5 d          58.319   8.857   0.634  0.00  0.00     0.210 HD
ENDBRANCH  20  24
ENDBRANCH   1  14
BRANCH  12  26
ATOM     26  C22 VD5 d          62.889   0.263  -7.387  0.00  0.00     0.034 C 
BRANCH  26  27
ATOM     27  C23 VD5 d          63.767  -0.575  -6.467  0.00  0.00     0.007 C 
BRANCH  27  28
ATOM     28  C24 VD5 d          65.238  -0.430  -6.875  0.00  0.00     0.037 C 
BRANCH  28  29
ATOM     29  C25 VD5 d          66.037  -1.695  -6.622  0.00  0.00     0.051 C 
ATOM     30  C27 VD5 d          66.001  -2.175  -5.159  0.00  0.00     0.045 C 
ATOM     31  C26 VD5 d          67.482  -1.399  -6.975  0.00  0.00     0.045 C 
BRANCH  29  32
ATOM     32  O3  VD5 d          65.513  -2.745  -7.444  0.00  0.00    -0.391 OA
ATOM     33  H42 VD5 d          65.526  -2.470  -8.353  0.00  0.00     0.210 HD
ENDBRANCH  29  32
ENDBRANCH  28  29
ENDBRANCH  27  28
ENDBRANCH  26  27
ENDBRANCH  12  26
TORSDOF 8
