REMARK  9 active torsions:
REMARK  status: ('A' for Active; 'I' for Inactive)
REMARK    1  A    between atoms: CAT_6  and  CAX_7 
REMARK    2  A    between atoms: CAX_7  and  SAR_8 
REMARK    3  A    between atoms: CAX_7  and  CAW_15 
REMARK    4  A    between atoms: CAX_7  and  CAU_19 
REMARK    5  A    between atoms: SAR_8  and  CB_9 
REMARK    6  A    between atoms: CB_9  and  CA_10 
REMARK    7  A    between atoms: CA_10  and  C_11 
REMARK    8  A    between atoms: CA_10  and  N_14 
REMARK    9  A    between atoms: CAW_15  and  CAP_17 
ROOT
ATOM      1  CAX X2O d          54.425  11.888   1.130  0.00  0.00     0.065 C 
ENDROOT
BRANCH   1   2
ATOM      2  CAT X2O d          54.468  10.715   0.150  0.00  0.00    -0.035 A 
ATOM      3  CAL X2O d          54.491  10.961  -1.220  0.00  0.00     0.009 A 
ATOM      4  CAH X2O d          54.502   9.907  -2.123  0.00  0.00     0.001 A 
ATOM      5  CAF X2O d          54.467   8.600  -1.639  0.00  0.00     0.000 A 
ATOM      6  CAI X2O d          54.434   8.349  -0.267  0.00  0.00     0.001 A 
ATOM      7  CAM X2O d          54.420   9.406   0.636  0.00  0.00     0.009 A 
ENDBRANCH   1   2
BRANCH   1   8
ATOM      8  SAR X2O d          52.677  11.968   1.667  0.00  0.00    -0.146 SA
BRANCH   8   9
ATOM      9  CB  X2O d          51.829  12.384   0.098  0.00  0.00     0.119 C 
BRANCH   9  10
ATOM     10  CA  X2O d          50.318  12.575   0.316  0.00  0.00     0.292 C 
BRANCH  10  11
ATOM     11  C   X2O d          49.657  13.000  -1.002  0.00  0.00     0.205 C 
ATOM     12  OXT X2O d          50.116  14.021  -1.551  0.00  0.00    -0.646 OA
ATOM     13  O   X2O d          48.719  12.294  -1.434  0.00  0.00    -0.646 OA
ENDBRANCH  10  11
BRANCH  10  14
ATOM     14  N   X2O d          49.717  11.329   0.839  0.00  0.00    -0.065 N 
ATOM     15  H9  X2O d          48.728  11.466   0.978  0.00  0.00     0.275 HD
ATOM     16  H10 X2O d          50.150  11.090   1.718  0.00  0.00     0.275 HD
ATOM     17  H11 X2O d          49.864  10.582   0.178  0.00  0.00     0.275 HD
ENDBRANCH  10  14
ENDBRANCH   9  10
ENDBRANCH   8   9
ENDBRANCH   1   8
BRANCH   1  18
ATOM     18  CAW X2O d          54.845  13.218   0.454  0.00  0.00     0.009 C 
ATOM     19  CAB X2O d          56.285  13.207  -0.087  0.00  0.00     0.012 C 
BRANCH  18  20
ATOM     20  CAP X2O d          54.727  14.400   1.394  0.00  0.00     0.002 C 
ATOM     21  CAA X2O d          55.151  15.667   0.651  0.00  0.00     0.005 C 
ENDBRANCH  18  20
ENDBRANCH   1  18
BRANCH   1  22
ATOM     22  CAU X2O d          55.298  11.643   2.376  0.00  0.00    -0.035 A 
ATOM     23  CAN X2O d          54.818  12.015   3.634  0.00  0.00     0.009 A 
ATOM     24  CAJ X2O d          55.588  11.819   4.775  0.00  0.00     0.001 A 
ATOM     25  CAG X2O d          56.851  11.243   4.667  0.00  0.00     0.000 A 
ATOM     26  CAK X2O d          57.335  10.872   3.414  0.00  0.00     0.001 A 
ATOM     27  CAO X2O d          56.564  11.068   2.270  0.00  0.00     0.009 A 
ENDBRANCH   1  22
TORSDOF 9
