REMARK  11 active torsions:
REMARK  status: ('A' for Active; 'I' for Inactive)
REMARK    1  A    between atoms: C4_4  and  C13_8 
REMARK    2  A    between atoms: C6_6  and  O60_33 
REMARK       I    between atoms: C13_8  and  N14_9 
REMARK    3  A    between atoms: N14_9  and  C15_10 
REMARK    4  A    between atoms: C15_10  and  C16_11 
REMARK    5  A    between atoms: C15_10  and  C17_12 
REMARK    6  A    between atoms: C16_11  and  C27_19 
REMARK    7  A    between atoms: C17_12  and  C19_13 
REMARK    8  A    between atoms: C17_12  and  O41_25 
REMARK       I    between atoms: C19_13  and  N20_14 
REMARK    9  A    between atoms: C21_15  and  C53_29 
REMARK       I    between atoms: C53_29  and  N55_30 
REMARK   10  A    between atoms: N55_30  and  C56_31 
REMARK   11  A    between atoms: C56_31  and  C63_35 
ROOT
ATOM      1  C17 K64 d          14.529  23.793  18.296  0.00  0.00     0.233 C 
ENDROOT
BRANCH   1   2
ATOM      2  C15 K64 d          14.387  22.885  17.058  0.00  0.00     0.127 C 
BRANCH   2   3
ATOM      3  N14 K64 d          13.400  21.868  17.445  0.00  0.00    -0.349 N 
ATOM      4  C13 K64 d          13.739  20.584  17.766  0.00  0.00     0.252 C 
ATOM      5  O62 K64 d          14.915  20.211  17.764  0.00  0.00    -0.268 OA
ATOM      6  H7  K64 d          12.435  22.128  17.475  0.00  0.00     0.163 HD
BRANCH   4   7
ATOM      7  C4  K64 d          12.594  19.694  18.106  0.00  0.00     0.040 A 
ATOM      8  C3  K64 d          11.506  19.593  17.186  0.00  0.00     0.018 A 
ATOM      9  C2  K64 d          10.396  18.761  17.460  0.00  0.00     0.004 A 
ATOM     10  C1  K64 d          10.350  18.031  18.663  0.00  0.00     0.037 A 
ATOM     11  C6  K64 d          11.411  18.114  19.587  0.00  0.00     0.072 A 
ATOM     12  C5  K64 d          12.539  18.948  19.344  0.00  0.00    -0.013 A 
ATOM     13  C9  K64 d          13.648  18.992  20.389  0.00  0.00     0.052 C 
BRANCH  11  14
ATOM     14  O60 K64 d          11.341  17.392  20.756  0.00  0.00    -0.360 OA
ATOM     15  H30 K64 d          10.535  16.890  20.769  0.00  0.00     0.217 HD
ENDBRANCH  11  14
ENDBRANCH   4   7
ENDBRANCH   2   3
BRANCH   2  16
ATOM     16  C16 K64 d          13.912  23.565  15.741  0.00  0.00     0.066 C 
BRANCH  16  17
ATOM     17  C27 K64 d          13.811  22.564  14.612  0.00  0.00    -0.056 A 
ATOM     18  C30 K64 d          14.929  22.309  13.781  0.00  0.00     0.007 A 
ATOM     19  C31 K64 d          14.845  21.363  12.728  0.00  0.00     0.001 A 
ATOM     20  C32 K64 d          13.637  20.665  12.502  0.00  0.00     0.000 A 
ATOM     21  C33 K64 d          12.514  20.911  13.325  0.00  0.00     0.001 A 
ATOM     22  C34 K64 d          12.601  21.856  14.372  0.00  0.00     0.007 A 
ENDBRANCH  16  17
ENDBRANCH   2  16
ENDBRANCH   1   2
BRANCH   1  23
ATOM     23  C19 K64 d          15.893  24.533  18.305  0.00  0.00     0.252 C 
ATOM     24  N20 K64 d          17.017  23.799  18.589  0.00  0.00    -0.326 N 
ATOM     25  C21 K64 d          18.308  24.533  18.619  0.00  0.00     0.198 C 
ATOM     26  C24 K64 d          16.962  22.824  19.729  0.00  0.00     0.201 C 
ATOM     27  C22 K64 d          19.157  24.032  19.840  0.00  0.00     0.032 C 
ATOM     28  S23 K64 d          18.654  22.326  19.995  0.00  0.00    -0.137 SA
ATOM     29  C45 K64 d          18.818  24.788  21.148  0.00  0.00     0.029 C 
ATOM     30  C49 K64 d          20.680  24.082  19.600  0.00  0.00     0.029 C 
ATOM     31  O44 K64 d          15.916  25.736  18.055  0.00  0.00    -0.270 OA
BRANCH  25  32
ATOM     32  C53 K64 d          18.929  24.267  17.226  0.00  0.00     0.242 C 
ATOM     33  N55 K64 d          19.740  25.250  16.791  0.00  0.00    -0.355 N 
ATOM     34  H27 K64 d          19.886  26.058  17.361  0.00  0.00     0.162 HD
ATOM     35  O57 K64 d          18.674  23.228  16.614  0.00  0.00    -0.271 OA
BRANCH  33  36
ATOM     36  C56 K64 d          20.407  25.151  15.502  0.00  0.00     0.161 C 
BRANCH  36  37
ATOM     37  C63 K64 d          20.745  26.510  14.966  0.00  0.00    -0.035 A 
ATOM     38  C66 K64 d          22.031  27.043  15.240  0.00  0.00     0.009 A 
ATOM     39  C67 K64 d          22.404  28.318  14.760  0.00  0.00     0.001 A 
ATOM     40  C68 K64 d          21.483  29.085  14.018  0.00  0.00     0.001 A 
ATOM     41  C69 K64 d          20.199  28.573  13.737  0.00  0.00     0.007 A 
ATOM     42  C70 K64 d          19.805  27.292  14.215  0.00  0.00    -0.054 A 
ATOM     43  C75 K64 d          18.416  26.793  13.888  0.00  0.00     0.049 C 
ENDBRANCH  36  37
ENDBRANCH  33  36
ENDBRANCH  25  32
ENDBRANCH   1  23
BRANCH   1  44
ATOM     44  O41 K64 d          13.491  24.744  18.291  0.00  0.00    -0.384 OA
ATOM     45  H20 K64 d          13.566  25.288  17.516  0.00  0.00     0.210 HD
ENDBRANCH   1  44
TORSDOF 11
