REMARK  13 active torsions:
REMARK  status: ('A' for Active; 'I' for Inactive)
REMARK    1  A    between atoms: C24_7  and  C22_8 
REMARK    2  A    between atoms: C33_11  and  O34_12 
REMARK    3  A    between atoms: C31_13  and  O32_14 
REMARK    4  A    between atoms: C20_15  and  C18_16 
REMARK       I    between atoms: C18_16  and  N17_18 
REMARK    5  A    between atoms: N17_18  and  C16_19 
REMARK    6  A    between atoms: C16_19  and  C15_20 
REMARK    7  A    between atoms: C14_21  and  C6_22 
REMARK    8  A    between atoms: C4_23  and  O5_24 
REMARK    9  A    between atoms: C2_25  and  O3_26 
REMARK   10  A    between atoms: C1_28  and  N10_29 
REMARK   11  A    between atoms: C35_35  and  N7_38 
REMARK   12  A    between atoms: N7_38  and  C36_39 
REMARK   13  A    between atoms: C36_39  and  C37_40 
ROOT
ATOM      1  C15 MOL d         -14.631  12.395 -32.780  0.00  0.00    -0.009 C 
ATOM      2  C14 MOL d         -15.818  12.737 -33.304  0.00  0.00     0.005 C 
ENDROOT
BRANCH   2   3
ATOM      3  C6  MOL d         -17.009  11.837 -33.208  0.00  0.00     0.178 C 
ATOM      4  C4  MOL d         -17.777  11.909 -34.535  0.00  0.00     0.183 C 
ATOM      5  C2  MOL d         -18.553  13.232 -34.333  0.00  0.00     0.199 C 
ATOM      6  C1  MOL d         -18.955  13.115 -32.889  0.00  0.00     0.262 C 
ATOM      7  O13 MOL d         -17.893  12.377 -32.225  0.00  0.00    -0.352 OA
BRANCH   4   8
ATOM      8  O5  MOL d         -18.605  10.743 -34.653  0.00  0.00    -0.390 OA
ATOM      9  H16 MOL d         -19.085  10.778 -35.472  0.00  0.00     0.210 HD
ENDBRANCH   4   8
BRANCH   5  10
ATOM     10  O3  MOL d         -19.730  13.262 -35.095  0.00  0.00    -0.388 OA
ATOM     11  H18 MOL d         -20.292  12.541 -34.836  0.00  0.00     0.210 HD
ENDBRANCH   5  10
BRANCH   6  12
ATOM     12  N10 MOL d         -19.065  14.367 -32.138  0.00  0.00    -0.294 N 
ATOM     13  C9  MOL d         -18.110  15.398 -32.064  0.00  0.00     0.214 A 
ATOM     14  N8  MOL d         -18.496  16.333 -31.232  0.00  0.00    -0.236 NA
ATOM     15  C12 MOL d         -19.687  15.936 -30.707  0.00  0.00     0.149 A 
ATOM     16  C11 MOL d         -20.058  14.734 -31.231  0.00  0.00     0.167 A 
ATOM     17  C35 MOL d         -20.576  16.476 -29.742  0.00  0.00     0.157 A 
ATOM     18  N40 MOL d         -21.192  14.057 -30.922  0.00  0.00    -0.222 NA
ATOM     19  C39 MOL d         -21.982  14.642 -30.020  0.00  0.00     0.237 A 
ATOM     20  N38 MOL d         -21.704  15.823 -29.432  0.00  0.00    -0.222 NA
BRANCH  17  21
ATOM     21  N7  MOL d         -20.408  17.687 -29.105  0.00  0.00    -0.373 N 
ATOM     22  H22 MOL d         -21.059  17.964 -28.356  0.00  0.00     0.161 HD
BRANCH  21  23
ATOM     23  C36 MOL d         -19.309  18.588 -29.483  0.00  0.00     0.121 C 
BRANCH  23  24
ATOM     24  C37 MOL d         -19.965  19.449 -30.589  0.00  0.00     0.015 C 
ATOM     25  C41 MOL d         -19.231  20.809 -30.663  0.00  0.00     0.006 C 
ENDBRANCH  23  24
ENDBRANCH  21  23
ENDBRANCH  17  21
ENDBRANCH   6  12
ENDBRANCH   2   3
BRANCH   1  26
ATOM     26  C16 MOL d         -13.419  13.269 -32.891  0.00  0.00     0.150 C 
BRANCH  26  27
ATOM     27  N17 MOL d         -12.263  12.346 -32.847  0.00  0.00    -0.353 N 
ATOM     28  C18 MOL d         -11.043  12.715 -33.299  0.00  0.00     0.254 C 
ATOM     29  O19 MOL d         -10.942  13.849 -33.798  0.00  0.00    -0.268 OA
ATOM     30  H9  MOL d         -12.387  11.427 -32.474  0.00  0.00     0.163 HD
BRANCH  28  31
ATOM     31  C20 MOL d          -9.936  11.751 -33.226  0.00  0.00     0.068 A 
ATOM     32  C21 MOL d          -8.852  12.019 -34.052  0.00  0.00     0.032 A 
ATOM     33  C22 MOL d          -7.744  11.168 -34.081  0.00  0.00    -0.022 A 
ATOM     34  C23 MOL d          -7.734   9.982 -33.279  0.00  0.00     0.051 A 
ATOM     35  C33 MOL d          -8.844   9.704 -32.476  0.00  0.00     0.100 A 
ATOM     36  C31 MOL d          -9.939  10.577 -32.462  0.00  0.00     0.114 A 
BRANCH  33  37
ATOM     37  C24 MOL d          -6.585  11.480 -34.912  0.00  0.00    -0.026 A 
ATOM     38  C25 MOL d          -6.722  12.020 -36.206  0.00  0.00     0.015 A 
ATOM     39  C26 MOL d          -5.542  12.280 -36.954  0.00  0.00     0.043 A 
ATOM     40  C29 MOL d          -4.289  11.967 -36.411  0.00  0.00     0.116 A 
ATOM     41  F30 MOL d          -3.193  12.216 -37.156  0.00  0.00    -0.206 F 
ATOM     42  C28 MOL d          -4.120  11.412 -35.138  0.00  0.00     0.043 A 
ATOM     43  C27 MOL d          -5.280  11.182 -34.401  0.00  0.00     0.015 A 
ENDBRANCH  33  37
BRANCH  35  44
ATOM     44  O34 MOL d          -8.894   8.547 -31.709  0.00  0.00    -0.358 OA
ATOM     45  H7  MOL d          -9.714   8.521 -31.230  0.00  0.00     0.217 HD
ENDBRANCH  35  44
BRANCH  36  46
ATOM     46  O32 MOL d         -10.968  10.261 -31.637  0.00  0.00    -0.357 OA
ATOM     47  H8  MOL d         -11.320   9.413 -31.882  0.00  0.00     0.217 HD
ENDBRANCH  36  46
ENDBRANCH  28  31
ENDBRANCH  26  27
ENDBRANCH   1  26
TORSDOF 13
