REMARK  10 active torsions:
REMARK  status: ('A' for Active; 'I' for Inactive)
REMARK    1  A    between atoms: O3B_8  and  PG_1 
REMARK    2  A    between atoms: PB_5  and  O3B_8 
REMARK    3  A    between atoms: O3A_12  and  PB_5 
REMARK    4  A    between atoms: PA_9  and  O3A_12 
REMARK    5  A    between atoms: PA_9  and  O5'_13 
REMARK    6  A    between atoms: O5'_13  and  C5'_14 
REMARK    7  A    between atoms: C5'_14  and  C4'_15 
REMARK    8  A    between atoms: C3'_17  and  O3'_18 
REMARK    9  A    between atoms: C2'_19  and  O2'_20 
REMARK   10  A    between atoms: C1'_21  and  N9_22 
ROOT
ATOM      1  C4' ATP d          40.635  -3.670  19.767  0.00  0.00     0.180 C 
ATOM      2  O4' ATP d          39.477  -3.411  18.972  0.00  0.00    -0.353 OA
ATOM      3  C3' ATP d          41.542  -4.560  18.944  0.00  0.00     0.182 C 
ATOM      4  C2' ATP d          40.915  -4.572  17.562  0.00  0.00     0.198 C 
ATOM      5  C1' ATP d          39.437  -4.291  17.849  0.00  0.00     0.262 C 
ENDROOT
BRANCH   1   6
ATOM      6  C5' ATP d          41.342  -2.383  20.162  0.00  0.00     0.216 C 
BRANCH   6   7
ATOM      7  O5' ATP d          40.942  -2.046  21.486  0.00  0.00    -0.287 OA
BRANCH   7   8
ATOM      8  PA  ATP d          41.736  -2.575  22.793  0.00  0.00     0.417 P 
ATOM      9  O1A ATP d          42.604  -1.448  23.289  0.00  0.00    -0.624 OA
ATOM     10  O2A ATP d          42.390  -3.903  22.485  0.00  0.00    -0.624 OA
BRANCH   8  11
ATOM     11  O3A ATP d          40.512  -2.785  23.839  0.00  0.00    -0.180 OA
BRANCH  11  12
ATOM     12  PB  ATP d          39.703  -4.174  24.013  0.00  0.00     0.428 P 
ATOM     13  O1B ATP d          40.113  -4.719  25.353  0.00  0.00    -0.624 OA
ATOM     14  O2B ATP d          39.912  -5.021  22.774  0.00  0.00    -0.624 OA
BRANCH  12  15
ATOM     15  O3B ATP d          38.130  -3.759  24.080  0.00  0.00    -0.173 OA
BRANCH  15  16
ATOM     16  PG  ATP d          37.421  -2.885  22.932  0.00  0.00     0.431 P 
ATOM     17  O1G ATP d          38.070  -1.524  23.040  0.00  0.00    -0.616 OA
ATOM     18  O2G ATP d          37.774  -3.674  21.691  0.00  0.00    -0.616 OA
ATOM     19  O3G ATP d          35.925  -2.836  23.074  0.00  0.00    -0.616 OA
ENDBRANCH  15  16
ENDBRANCH  12  15
ENDBRANCH  11  12
ENDBRANCH   8  11
ENDBRANCH   7   8
ENDBRANCH   6   7
ENDBRANCH   1   6
BRANCH   3  20
ATOM     20  O3' ATP d          41.477  -5.858  19.538  0.00  0.00    -0.390 OA
ATOM     21  H5  ATP d          42.034  -6.455  19.053  0.00  0.00     0.210 HD
ENDBRANCH   3  20
BRANCH   5  22
ATOM     22  N9  ATP d          38.758  -3.636  16.693  0.00  0.00    -0.294 N 
ATOM     23  C8  ATP d          38.949  -2.352  16.314  0.00  0.00     0.214 A 
ATOM     24  N7  ATP d          38.195  -2.024  15.251  0.00  0.00    -0.236 NA
ATOM     25  C5  ATP d          37.493  -3.137  14.944  0.00  0.00     0.149 A 
ATOM     26  C6  ATP d          36.519  -3.492  13.933  0.00  0.00     0.155 A 
ATOM     27  C4  ATP d          37.862  -4.195  15.897  0.00  0.00     0.167 A 
ATOM     28  N6  ATP d          36.183  -2.558  13.019  0.00  0.00    -0.382 N 
ATOM     29  N1  ATP d          36.004  -4.773  13.958  0.00  0.00    -0.222 NA
ATOM     30  H10 ATP d          35.493  -2.779  12.287  0.00  0.00     0.157 HD
ATOM     31  H11 ATP d          36.616  -1.624  13.054  0.00  0.00     0.157 HD
ATOM     32  C2  ATP d          36.376  -5.694  14.865  0.00  0.00     0.237 A 
ATOM     33  N3  ATP d          37.278  -5.433  15.832  0.00  0.00    -0.222 NA
ENDBRANCH   5  22
BRANCH   4  34
ATOM     34  O2' ATP d          41.131  -5.815  16.873  0.00  0.00    -0.388 OA
ATOM     35  H7  ATP d          40.749  -6.525  17.375  0.00  0.00     0.210 HD
ENDBRANCH   4  34
TORSDOF 10
