REMARK  2 active torsions:
REMARK  status: ('A' for Active; 'I' for Inactive)
REMARK    1  A    between atoms: C1_1  and  C_7 
REMARK       I    between atoms: C_7  and  N_9 
REMARK    2  A    between atoms: N_9  and  O2_10 
ROOT
ATOM      1  C1  BHO d          51.776 -52.383  17.634  0.00  0.00     0.034 A 
ATOM      2  C2  BHO d          50.459 -52.388  18.110  0.00  0.00     0.017 A 
ATOM      3  C3  BHO d          49.708 -51.210  18.095  0.00  0.00     0.001 A 
ATOM      4  C4  BHO d          50.247 -50.030  17.614  0.00  0.00     0.000 A 
ATOM      5  C5  BHO d          51.553 -50.024  17.141  0.00  0.00     0.001 A 
ATOM      6  C6  BHO d          52.308 -51.192  17.152  0.00  0.00     0.017 A 
ENDROOT
BRANCH   1   7
ATOM      7  C   BHO d          52.580 -53.661  17.654  0.00  0.00     0.275 C 
ATOM      8  O1  BHO d          53.759 -53.757  17.364  0.00  0.00    -0.265 OA
ATOM      9  N   BHO d          51.740 -54.690  18.057  0.00  0.00    -0.233 N 
ATOM     10  H6  BHO d          50.810 -54.371  18.241  0.00  0.00     0.197 HD
BRANCH   9  11
ATOM     11  O2  BHO d          51.874 -56.012  18.260  0.00  0.00    -0.287 OA
ATOM     12  H7  BHO d          51.042 -56.374  18.541  0.00  0.00     0.244 HD
ENDBRANCH   9  11
ENDBRANCH   1   7
TORSDOF 2
