REMARK  4 active torsions:
REMARK  status: ('A' for Active; 'I' for Inactive)
REMARK    1  A    between atoms: C1_1  and  C7_9 
REMARK    2  A    between atoms: C6_8  and  N_10 
REMARK    3  A    between atoms: N_10  and  C1'_11 
REMARK    4  A    between atoms: C3'_13  and  C7'_17 
ROOT
ATOM      1  N   FLF d          21.182  42.876   5.828  0.00  0.00    -0.355 N 
ATOM      2  H5  FLF d          21.793  43.494   5.275  0.00  0.00     0.166 HD
ENDROOT
BRANCH   1   3
ATOM      3  C6  FLF d          20.373  42.019   5.017  0.00  0.00     0.049 A 
ATOM      4  C1  FLF d          20.699  41.889   3.679  0.00  0.00     0.067 A 
ATOM      5  C2  FLF d          19.926  41.065   2.842  0.00  0.00     0.021 A 
ATOM      6  C3  FLF d          18.826  40.370   3.331  0.00  0.00     0.001 A 
ATOM      7  C4  FLF d          18.491  40.491   4.680  0.00  0.00     0.002 A 
ATOM      8  C5  FLF d          19.255  41.304   5.515  0.00  0.00     0.030 A 
BRANCH   4   9
ATOM      9  C7  FLF d          21.850  42.621   3.145  0.00  0.00     0.211 C 
ATOM     10  O1  FLF d          22.104  42.681   1.830  0.00  0.00    -0.644 OA
ATOM     11  O2  FLF d          22.485  43.479   3.741  0.00  0.00    -0.644 OA
ENDBRANCH   4   9
ENDBRANCH   1   3
BRANCH   1  12
ATOM     12  C1' FLF d          21.326  43.060   7.224  0.00  0.00     0.033 A 
ATOM     13  C6' FLF d          21.648  44.272   7.883  0.00  0.00     0.029 A 
ATOM     14  C5' FLF d          21.753  44.299   9.275  0.00  0.00     0.003 A 
ATOM     15  C4' FLF d          21.540  43.124  10.014  0.00  0.00     0.016 A 
ATOM     16  C3' FLF d          21.222  41.938   9.321  0.00  0.00     0.050 A 
ATOM     17  C2' FLF d          21.117  41.906   7.962  0.00  0.00     0.045 A 
BRANCH  16  18
ATOM     18  C7' FLF d          20.989  40.672  10.087  0.00  0.00     0.417 C 
ATOM     19  F1  FLF d          21.236  39.557   9.379  0.00  0.00    -0.166 F 
ATOM     20  F3  FLF d          19.723  40.529  10.502  0.00  0.00    -0.166 F 
ATOM     21  F2  FLF d          21.736  40.543  11.188  0.00  0.00    -0.166 F 
ENDBRANCH  16  18
ENDBRANCH   1  12
TORSDOF 4
