REMARK  11 active torsions:
REMARK  status: ('A' for Active; 'I' for Inactive)
REMARK    1  A    between atoms: C17_5  and  C25_4 
REMARK       I    between atoms: C25_4  and  N2_27 
REMARK    2  A    between atoms: C16_6  and  C17_5 
REMARK    3  A    between atoms: C17_5  and  C18_16 
REMARK    4  A    between atoms: C16_6  and  C15_15 
REMARK    5  A    between atoms: C13_8  and  C12_9 
REMARK    6  A    between atoms: C18_16  and  P1_17 
REMARK    7  A    between atoms: P1_17  and  C19_20 
REMARK    8  A    between atoms: N2_27  and  C26_28 
REMARK    9  A    between atoms: C26_28  and  C30_29 
REMARK       I    between atoms: C30_29  and  N3_32 
REMARK   10  A    between atoms: N3_32  and  C31_33 
REMARK   11  A    between atoms: C31_33  and  C35_34 
REMARK       I    between atoms: C35_34  and  N4_37 
ROOT
ATOM      1  C17 R4C d          -6.487  25.508  -3.609  0.00  0.00     0.094 C 
ENDROOT
BRANCH   1   2
ATOM      2  C25 R4C d          -6.946  26.368  -4.748  0.00  0.00     0.223 C 
ATOM      3  O4  R4C d          -8.027  26.127  -5.326  0.00  0.00    -0.273 OA
ATOM      4  N2  R4C d          -6.100  27.334  -5.106  0.00  0.00    -0.348 N 
ATOM      5  H16 R4C d          -5.174  27.314  -4.728  0.00  0.00     0.163 HD
BRANCH   4   6
ATOM      6  C26 R4C d          -6.446  28.419  -6.017  0.00  0.00     0.172 C 
ATOM      7  C27 R4C d          -5.755  29.696  -5.574  0.00  0.00     0.042 C 
BRANCH   6   8
ATOM      8  C30 R4C d          -6.087  28.136  -7.465  0.00  0.00     0.240 C 
ATOM      9  O7  R4C d          -5.068  27.512  -7.748  0.00  0.00    -0.271 OA
ATOM     10  N3  R4C d          -6.917  28.643  -8.374  0.00  0.00    -0.346 N 
ATOM     11  H21 R4C d          -7.731  29.131  -8.060  0.00  0.00     0.163 HD
BRANCH  10  12
ATOM     12  C31 R4C d          -6.688  28.516  -9.811  0.00  0.00     0.172 C 
ATOM     13  C32 R4C d          -7.909  29.004 -10.586  0.00  0.00     0.042 C 
BRANCH  12  14
ATOM     14  C35 R4C d          -5.432  29.253 -10.270  0.00  0.00     0.237 C 
ATOM     15  O10 R4C d          -4.823  28.883 -11.274  0.00  0.00    -0.271 OA
ATOM     16  N4  R4C d          -5.058  30.298  -9.538  0.00  0.00    -0.368 N 
ATOM     17  H26 R4C d          -4.243  30.819  -9.791  0.00  0.00     0.159 HD
ATOM     18  H27 R4C d          -5.592  30.563  -8.735  0.00  0.00     0.159 HD
ENDBRANCH  12  14
ENDBRANCH  10  12
ENDBRANCH   6   8
ENDBRANCH   4   6
ENDBRANCH   1   2
BRANCH   1  19
ATOM     19  C16 R4C d          -6.590  24.052  -4.021  0.00  0.00     0.082 C 
BRANCH  19  20
ATOM     20  C15 R4C d          -5.437  23.487  -4.803  0.00  0.00     0.082 A 
ATOM     21  O1  R4C d          -5.591  22.470  -5.685  0.00  0.00    -0.217 OA
ATOM     22  N1  R4C d          -4.457  22.083  -6.264  0.00  0.00    -0.128 NA
ATOM     23  C13 R4C d          -3.508  22.899  -5.770  0.00  0.00     0.097 A 
ATOM     24  C14 R4C d          -4.073  23.777  -4.824  0.00  0.00     0.069 A 
BRANCH  23  25
ATOM     25  C12 R4C d          -2.085  22.746  -6.162  0.00  0.00    -0.005 A 
ATOM     26  C11 R4C d          -1.096  23.467  -5.515  0.00  0.00     0.014 A 
ATOM     27  C10 R4C d           0.233  23.288  -5.888  0.00  0.00     0.001 A 
ATOM     28  C7  R4C d           0.563  22.393  -6.896  0.00  0.00     0.000 A 
ATOM     29  C8  R4C d          -0.429  21.657  -7.541  0.00  0.00     0.001 A 
ATOM     30  C9  R4C d          -1.755  21.834  -7.159  0.00  0.00     0.014 A 
ENDBRANCH  23  25
ENDBRANCH  19  20
ENDBRANCH   1  19
BRANCH   1  31
ATOM     31  C18 R4C d          -7.518  25.784  -2.536  0.00  0.00     0.123 C 
BRANCH  31  32
ATOM     32  P1  R4C d          -7.201  25.034  -0.915  0.00  0.00     0.141 P 
ATOM     33  O3  R4C d          -5.787  25.324  -0.433  0.00  0.00    -0.664 OA
ATOM     34  O2  R4C d          -7.583  23.575  -0.872  0.00  0.00    -0.664 OA
BRANCH  32  35
ATOM     35  C19 R4C d          -8.206  25.957   0.166  0.00  0.00     0.030 A 
ATOM     36  C20 R4C d          -9.584  25.923   0.016  0.00  0.00     0.019 A 
ATOM     37  C21 R4C d         -10.397  26.654   0.863  0.00  0.00     0.020 A 
ATOM     38  C22 R4C d          -9.803  27.422   1.856  0.00  0.00     0.011 A 
ATOM     39 BR1  R4C d         -10.868  28.417   3.042  0.00  0.00    -0.051 Br
ATOM     40  C23 R4C d          -8.421  27.461   2.007  0.00  0.00     0.020 A 
ATOM     41  C24 R4C d          -7.613  26.729   1.152  0.00  0.00     0.019 A 
ENDBRANCH  32  35
ENDBRANCH  31  32
ENDBRANCH   1  31
TORSDOF 11
