REMARK  3 active torsions:
REMARK  status: ('A' for Active; 'I' for Inactive)
REMARK    1  A    between atoms: C_2  and  CG_4 
REMARK    2  A    between atoms: CG_4  and  CA_5 
REMARK    3  A    between atoms: CZ_8  and  OH_9 
ROOT
ATOM      1  CA  MOL d          10.304 -22.835  17.755  0.00  0.00    -0.046 A 
ATOM      2  CD2 MOL d           9.490 -21.835  17.337  0.00  0.00     0.010 A 
ATOM      3  CE2 MOL d           9.021 -21.675  16.137  0.00  0.00     0.039 A 
ATOM      4  CZ  MOL d           9.482 -22.593  15.076  0.00  0.00     0.087 A 
ATOM      5 CL   MOL d          10.967 -24.850  14.443  0.00  0.00    -0.081 Cl
ATOM      6  CE1 MOL d          10.367 -23.637  15.582  0.00  0.00     0.067 A 
ATOM      7  CD1 MOL d          10.740 -23.718  16.861  0.00  0.00     0.034 A 
ENDROOT
BRANCH   1   8
ATOM      8  CG  MOL d          10.784 -22.919  19.205  0.00  0.00     0.151 C 
BRANCH   8   9
ATOM      9  C   MOL d           9.737 -23.510  20.153  0.00  0.00     0.176 C 
ATOM     10  O2  MOL d          10.158 -23.811  21.325  0.00  0.00    -0.648 OA
ATOM     11  O1  MOL d           8.538 -23.769  19.758  0.00  0.00    -0.648 OA
ENDBRANCH   8   9
ENDBRANCH   1   8
BRANCH   4  12
ATOM     12  OH  MOL d           9.155 -22.563  13.759  0.00  0.00    -0.359 OA
ATOM     13  H5  MOL d           9.597 -23.273  13.308  0.00  0.00     0.217 HD
ENDBRANCH   4  12
TORSDOF 3
