REMARK  1 active torsions:
REMARK  status: ('A' for Active; 'I' for Inactive)
REMARK    1  A    between atoms: C30_18  and  C45_29 
ROOT
ATOM      1  C1  T76 d          13.305 -11.346  21.939  0.00  0.00    -0.005 A 
ATOM      2  C2  T76 d          12.610 -12.475  22.329  0.00  0.00     0.077 A 
ATOM      3  C3  T76 d          11.661 -12.416  23.387  0.00  0.00     0.039 A 
ATOM      4  C4  T76 d          11.490 -11.230  24.102  0.00  0.00     0.026 A 
ATOM      5  C5  T76 d          12.281 -10.120  23.782  0.00  0.00     0.034 A 
ATOM      6  C6  T76 d          13.173 -10.161  22.680  0.00  0.00     0.035 A 
ATOM      7  C7  T76 d          14.144 -11.385  20.684  0.00  0.00     0.164 C 
ATOM      8  N8  T76 d          15.583 -11.523  20.948  0.00  0.00    -0.355 N 
ATOM      9  C9  T76 d          16.192 -12.705  20.664  0.00  0.00     0.240 C 
ATOM     10  C10 T76 d          17.688 -12.724  20.898  0.00  0.00     0.179 C 
ATOM     11  O11 T76 d          15.620 -13.745  20.322  0.00  0.00    -0.271 OA
ATOM     12  O12 T76 d          12.914 -13.687  21.705  0.00  0.00    -0.342 OA
ATOM     13  C18 T76 d          18.440 -12.877  19.563  0.00  0.00     0.037 C 
ATOM     14  C19 T76 d          19.764 -13.555  19.939  0.00  0.00     0.022 C 
ATOM     15  C20 T76 d          19.263 -14.592  20.951  0.00  0.00     0.127 C 
ATOM     16  N21 T76 d          18.111 -13.959  21.571  0.00  0.00    -0.337 N 
ATOM     17  C29 T76 d          17.445 -14.392  22.669  0.00  0.00     0.243 C 
ATOM     18  C30 T76 d          17.941 -15.711  23.237  0.00  0.00     0.180 C 
ATOM     19  N31 T76 d          16.825 -16.657  23.288  0.00  0.00    -0.347 N 
ATOM     20  C32 T76 d          16.622 -17.381  22.157  0.00  0.00     0.219 C 
ATOM     21  O33 T76 d          17.444 -17.482  21.225  0.00  0.00    -0.274 OA
ATOM     22  C34 T76 d          15.233 -17.995  22.063  0.00  0.00     0.122 C 
ATOM     23  C35 T76 d          14.469 -17.311  20.913  0.00  0.00     0.132 C 
ATOM     24  N38 T76 d          13.929 -15.992  21.310  0.00  0.00    -0.359 N 
ATOM     25  C41 T76 d          12.700 -16.043  21.869  0.00  0.00     0.241 C 
ATOM     26  O42 T76 d          12.052 -17.077  22.030  0.00  0.00    -0.271 OA
ATOM     27  C43 T76 d          12.163 -14.715  22.309  0.00  0.00     0.278 C 
ATOM     28  O44 T76 d          16.431 -13.852  23.132  0.00  0.00    -0.271 OA
ATOM     29 CL68 T76 d          12.186  -8.705  24.785  0.00  0.00    -0.084 Cl
ATOM     30  H6  T76 d          16.105 -10.761  21.330  0.00  0.00     0.162 HD
ATOM     31  H15 T76 d          16.251 -16.763  24.100  0.00  0.00     0.163 HD
ATOM     32  H20 T76 d          14.430 -15.137  21.176  0.00  0.00     0.162 HD
ENDROOT
BRANCH  18  33
ATOM     33  C45 T76 d          18.529 -15.453  24.639  0.00  0.00     0.018 C 
ATOM     34  C47 T76 d          18.796 -16.753  25.406  0.00  0.00     0.007 C 
ATOM     35  C48 T76 d          19.401 -16.453  26.788  0.00  0.00     0.000 C 
ATOM     36  C49 T76 d          20.698 -15.642  26.628  0.00  0.00     0.000 C 
ATOM     37  C50 T76 d          20.421 -14.330  25.883  0.00  0.00     0.000 C 
ATOM     38  C51 T76 d          19.808 -14.621  24.514  0.00  0.00     0.007 C 
ENDBRANCH  18  33
TORSDOF 1
