REMARK  12 active torsions:
REMARK  status: ('A' for Active; 'I' for Inactive)
REMARK    1  A    between atoms: O7_1  and  C7_2 
REMARK    2  A    between atoms: C7_2  and  C5_3 
REMARK    3  A    between atoms: C4_5  and  O4_6 
REMARK    4  A    between atoms: C3_7  and  O3_8 
REMARK    5  A    between atoms: C2_9  and  O2_10 
REMARK    6  A    between atoms: C1_11  and  N1'_12 
REMARK    7  A    between atoms: N1'_12  and  C1'_13 
REMARK    8  A    between atoms: C2'_14  and  O2'_15 
REMARK    9  A    between atoms: C5'_17  and  C7'_18 
REMARK   10  A    between atoms: C7'_18  and  O7'_19 
REMARK   11  A    between atoms: C4'_20  and  O4'_21 
REMARK   12  A    between atoms: C3'_22  and  O3'_23 
ROOT
ATOM      1  N1' VDM d          30.438  52.957   9.893  0.00  0.00    -0.058 N 
ATOM      2  H12 VDM d          31.105  53.611  10.271  0.00  0.00     0.278 HD
ATOM      3  H13 VDM d          30.055  53.326   9.037  0.00  0.00     0.278 HD
ENDROOT
BRANCH   1   4
ATOM      4  C1  VDM d          29.327  52.889  10.854  0.00  0.00     0.240 C 
ATOM      5  C6  VDM d          29.647  51.840  11.917  0.00  0.00     0.016 C 
ATOM      6  C5  VDM d          30.173  52.166  13.119  0.00  0.00    -0.027 C 
ATOM      7  C4  VDM d          30.406  53.598  13.560  0.00  0.00     0.180 C 
ATOM      8  C3  VDM d          30.282  54.586  12.422  0.00  0.00     0.182 C 
ATOM      9  C2  VDM d          29.053  54.227  11.579  0.00  0.00     0.184 C 
BRANCH   6  10
ATOM     10  C7  VDM d          30.453  51.070  14.108  0.00  0.00     0.201 C 
BRANCH  10  11
ATOM     11  O7  VDM d          29.348  51.117  15.007  0.00  0.00    -0.397 OA
ATOM     12  H1  VDM d          29.453  50.445  15.671  0.00  0.00     0.209 HD
ENDBRANCH  10  11
ENDBRANCH   6  10
BRANCH   7  13
ATOM     13  O4  VDM d          31.681  53.801  14.150  0.00  0.00    -0.388 OA
ATOM     14  H6  VDM d          31.769  54.712  14.405  0.00  0.00     0.210 HD
ENDBRANCH   7  13
BRANCH   8  15
ATOM     15  O3  VDM d          30.203  55.886  13.020  0.00  0.00    -0.390 OA
ATOM     16  H8  VDM d          30.990  56.048  13.527  0.00  0.00     0.210 HD
ENDBRANCH   8  15
BRANCH   9  17
ATOM     17  O2  VDM d          28.716  55.302  10.696  0.00  0.00    -0.390 OA
ATOM     18  H10 VDM d          28.524  56.080  11.206  0.00  0.00     0.210 HD
ENDBRANCH   9  17
ENDBRANCH   1   4
BRANCH   1  19
ATOM     19  C1' VDM d          31.198  51.748   9.526  0.00  0.00     0.218 C 
ATOM     20  C2' VDM d          32.695  51.999   9.340  0.00  0.00     0.180 C 
ATOM     21  C3' VDM d          33.017  52.518   7.934  0.00  0.00     0.178 C 
ATOM     22  C4' VDM d          32.591  51.464   6.910  0.00  0.00     0.155 C 
ATOM     23  C5' VDM d          31.063  51.304   6.955  0.00  0.00     0.043 C 
ATOM     24  C6' VDM d          30.573  50.945   8.363  0.00  0.00     0.045 C 
BRANCH  20  25
ATOM     25  O2' VDM d          33.203  52.878  10.348  0.00  0.00    -0.391 OA
ATOM     26  H16 VDM d          34.133  53.015  10.208  0.00  0.00     0.210 HD
ENDBRANCH  20  25
BRANCH  21  27
ATOM     27  O3' VDM d          34.416  52.777   7.798  0.00  0.00    -0.390 OA
ATOM     28  H26 VDM d          34.594  53.097   6.921  0.00  0.00     0.210 HD
ENDBRANCH  21  27
BRANCH  22  29
ATOM     29  O4' VDM d          33.027  51.816   5.589  0.00  0.00    -0.392 OA
ATOM     30  H24 VDM d          33.972  51.910   5.583  0.00  0.00     0.210 HD
ENDBRANCH  22  29
BRANCH  23  31
ATOM     31  C7' VDM d          30.546  50.300   5.924  0.00  0.00     0.171 C 
BRANCH  31  32
ATOM     32  O7' VDM d          29.105  50.280   5.932  0.00  0.00    -0.400 OA
ATOM     33  H22 VDM d          28.794  49.654   5.289  0.00  0.00     0.209 HD
ENDBRANCH  31  32
ENDBRANCH  23  31
ENDBRANCH   1  19
TORSDOF 12
