REMARK  1 active torsions:
REMARK  status: ('A' for Active; 'I' for Inactive)
REMARK    1  A    between atoms: C3_2  and  C6_11 
ROOT
ATOM      1  C2  MOL d           4.381  12.186  43.471  0.00  0.00     0.137 A 
ATOM      2  C3  MOL d           4.084  13.712  41.719  0.00  0.00     0.133 A 
ATOM      3  N4  MOL d           3.416  14.538  42.551  0.00  0.00    -0.220 NA
ATOM      4  C9  MOL d           3.457  12.625  45.876  0.00  0.00     0.055 C 
ATOM      5 CL   MOL d           2.390  15.259  44.809  0.00  0.00    -0.062 Cl
ATOM      6  C   MOL d           3.261  14.123  43.829  0.00  0.00     0.137 A 
ATOM      7  C1  MOL d           3.711  12.947  44.426  0.00  0.00     0.019 A 
ATOM      8  N   MOL d           4.553  12.515  42.175  0.00  0.00    -0.220 NA
ATOM      9 CL5  MOL d           5.106  10.626  43.736  0.00  0.00    -0.062 Cl
ENDROOT
BRANCH   2  10
ATOM     10  C6  MOL d           4.327  14.086  40.281  0.00  0.00     0.057 A 
ATOM     11  C7  MOL d           3.438  15.059  39.510  0.00  0.00     0.013 A 
ATOM     12  C8  MOL d           4.775  15.532  40.087  0.00  0.00     0.013 A 
ENDBRANCH   2  10
TORSDOF 1
