REMARK  25 active torsions:
REMARK  status: ('A' for Active; 'I' for Inactive)
REMARK    1  A    between atoms: CA_2  and  N_1 
REMARK    2  A    between atoms: C_3  and  CA_2 
REMARK    3  A    between atoms: CA_2  and  CB_5 
REMARK       I    between atoms: N_12  and  C_3 
REMARK    4  A    between atoms: CB_5  and  CG_6 
REMARK    5  A    between atoms: CA_13  and  N_12 
REMARK    6  A    between atoms: C_14  and  CA_13 
REMARK       I    between atoms: N_17  and  C_14 
REMARK    7  A    between atoms: C_19  and  CA_18 
REMARK       I    between atoms: N_24  and  C_19 
REMARK    8  A    between atoms: CA_25  and  N_24 
REMARK    9  A    between atoms: C_26  and  CA_25 
REMARK       I    between atoms: N_28  and  C_26 
REMARK   10  A    between atoms: CA_29  and  N_28 
REMARK   11  A    between atoms: C_30  and  CA_29 
REMARK   12  A    between atoms: CA_29  and  CB_32 
REMARK       I    between atoms: N_36  and  C_30 
REMARK   13  A    between atoms: CB_32  and  CG_33 
REMARK       I    between atoms: CG_33  and  ND2_35 
REMARK   14  A    between atoms: CA_37  and  N_36 
REMARK   15  A    between atoms: C_38  and  CA_37 
REMARK   16  A    between atoms: CA_37  and  CB_40 
REMARK       I    between atoms: N_48  and  C_38 
REMARK   17  A    between atoms: CB_40  and  CG_41 
REMARK   18  A    between atoms: CZ_46  and  OH_47 
REMARK   19  A    between atoms: C_50  and  CA_49 
REMARK       I    between atoms: N_55  and  C_50 
REMARK   20  A    between atoms: CA_56  and  N_55 
REMARK   21  A    between atoms: C_57  and  CA_56 
REMARK       I    between atoms: C_57  and  N_60 
REMARK   22  A    between atoms: N_60  and  CA_61 
REMARK   23  A    between atoms: CA_61  and  C_62 
REMARK   24  A    between atoms: CA_61  and  CB_64 
REMARK   25  A    between atoms: CB_64  and  CG_65 
ROOT
ATOM      1  CA  MOL d          42.146  60.862  -4.165  0.00  0.00     0.185 C 
ENDROOT
BRANCH   1   2
ATOM      2  C   MOL d          42.424  59.964  -5.366  0.00  0.00     0.241 C 
ATOM      3  O   MOL d          43.581  59.736  -5.738  0.00  0.00    -0.271 OA
ATOM      4  N   MOL d          41.355  59.448  -5.950  0.00  0.00    -0.346 N 
ATOM      5  H33 MOL d          40.448  59.655  -5.583  0.00  0.00     0.163 HD
BRANCH   4   6
ATOM      6  CA  MOL d          41.473  58.589  -7.111  0.00  0.00     0.181 C 
BRANCH   6   7
ATOM      7  C   MOL d          40.623  59.236  -8.192  0.00  0.00     0.243 C 
ATOM      8  O   MOL d          39.393  59.133  -8.187  0.00  0.00    -0.271 OA
ATOM      9  N   MOL d          41.270  59.947  -9.120  0.00  0.00    -0.337 N 
ATOM     10  CA  MOL d          40.549  60.618 -10.213  0.00  0.00     0.179 C 
ATOM     11  CD  MOL d          42.730  60.084  -9.276  0.00  0.00     0.127 C 
ATOM     12  CB  MOL d          41.673  61.040 -11.159  0.00  0.00     0.037 C 
ATOM     13  CG  MOL d          42.840  61.249 -10.233  0.00  0.00     0.022 C 
BRANCH  10  14
ATOM     14  C   MOL d          39.575  59.653 -10.885  0.00  0.00     0.241 C 
ATOM     15  O   MOL d          39.907  58.490 -11.100  0.00  0.00    -0.271 OA
ATOM     16  N   MOL d          38.382  60.133 -11.221  0.00  0.00    -0.346 N 
ATOM     17  H49 MOL d          38.164  61.090 -11.031  0.00  0.00     0.163 HD
BRANCH  16  18
ATOM     18  CA  MOL d          37.388  59.282 -11.862  0.00  0.00     0.172 C 
ATOM     19  CB  MOL d          36.080  60.032 -12.042  0.00  0.00     0.042 C 
BRANCH  18  20
ATOM     20  C   MOL d          37.893  58.789 -13.209  0.00  0.00     0.240 C 
ATOM     21  O   MOL d          38.654  59.471 -13.885  0.00  0.00    -0.271 OA
ATOM     22  N   MOL d          37.475  57.580 -13.567  0.00  0.00    -0.345 N 
ATOM     23  H54 MOL d          36.872  57.081 -12.944  0.00  0.00     0.163 HD
BRANCH  22  24
ATOM     24  CA  MOL d          37.854  56.943 -14.827  0.00  0.00     0.185 C 
BRANCH  24  25
ATOM     25  C   MOL d          37.140  57.581 -16.036  0.00  0.00     0.196 C 
ATOM     26  OXT MOL d          37.507  57.242 -17.189  0.00  0.00    -0.646 OA
ATOM     27  O   MOL d          36.210  58.395 -15.823  0.00  0.00    -0.646 OA
ENDBRANCH  24  25
BRANCH  24  28
ATOM     28  CB  MOL d          37.503  55.446 -14.762  0.00  0.00     0.040 C 
BRANCH  28  29
ATOM     29  CG  MOL d          38.152  54.636 -13.642  0.00  0.00    -0.020 C 
ATOM     30  CD2 MOL d          39.662  54.648 -13.786  0.00  0.00     0.009 C 
ATOM     31  CD1 MOL d          37.635  53.208 -13.694  0.00  0.00     0.009 C 
ENDBRANCH  28  29
ENDBRANCH  24  28
ENDBRANCH  22  24
ENDBRANCH  18  20
ENDBRANCH  16  18
ENDBRANCH  10  14
ENDBRANCH   6   7
BRANCH   6  32
ATOM     32  CB  MOL d          40.969  57.172  -6.802  0.00  0.00     0.073 C 
BRANCH  32  33
ATOM     33  CG  MOL d          41.798  56.407  -5.776  0.00  0.00    -0.056 A 
ATOM     34  CD2 MOL d          42.865  55.580  -6.178  0.00  0.00     0.010 A 
ATOM     35  CE2 MOL d          43.616  54.855  -5.255  0.00  0.00     0.037 A 
ATOM     36  CZ  MOL d          43.302  54.951  -3.909  0.00  0.00     0.065 A 
ATOM     37  CE1 MOL d          42.250  55.760  -3.485  0.00  0.00     0.037 A 
ATOM     38  CD1 MOL d          41.506  56.485  -4.419  0.00  0.00     0.010 A 
BRANCH  36  39
ATOM     39  OH  MOL d          44.039  54.257  -2.980  0.00  0.00    -0.361 OA
ATOM     40  H41 MOL d          44.714  53.756  -3.423  0.00  0.00     0.217 HD
ENDBRANCH  36  39
ENDBRANCH  32  33
ENDBRANCH   6  32
ENDBRANCH   4   6
ENDBRANCH   1   2
BRANCH   1  41
ATOM     41  CB  MOL d          41.385  62.114  -4.629  0.00  0.00     0.137 C 
BRANCH  41  42
ATOM     42  CG  MOL d          41.947  62.705  -5.916  0.00  0.00     0.217 C 
ATOM     43  OD1 MOL d          41.202  62.981  -6.861  0.00  0.00    -0.274 OA
ATOM     44  ND2 MOL d          43.254  62.916  -5.954  0.00  0.00    -0.370 N 
ATOM     45  H31 MOL d          43.674  63.302  -6.775  0.00  0.00     0.159 HD
ATOM     46  H32 MOL d          43.820  62.689  -5.162  0.00  0.00     0.159 HD
ENDBRANCH  41  42
ENDBRANCH   1  41
BRANCH   1  47
ATOM     47  N   MOL d          43.412  61.209  -3.556  0.00  0.00    -0.346 N 
ATOM     48  C   MOL d          43.471  61.810  -2.373  0.00  0.00     0.236 C 
ATOM     49  O   MOL d          42.461  62.142  -1.742  0.00  0.00    -0.272 OA
ATOM     50  H27 MOL d          44.261  60.991  -4.037  0.00  0.00     0.163 HD
BRANCH  48  51
ATOM     51  CA  MOL d          44.865  62.090  -1.838  0.00  0.00     0.225 C 
BRANCH  51  52
ATOM     52  N   MOL d          45.807  61.012  -2.112  0.00  0.00    -0.351 N 
ATOM     53  C   MOL d          45.514  59.760  -1.762  0.00  0.00     0.241 C 
ATOM     54  O   MOL d          44.465  59.468  -1.211  0.00  0.00    -0.271 OA
ATOM     55  H24 MOL d          46.676  61.213  -2.564  0.00  0.00     0.163 HD
BRANCH  53  56
ATOM     56  CA  MOL d          46.542  58.668  -2.084  0.00  0.00     0.179 C 
ATOM     57  N   MOL d          46.521  57.692  -0.992  0.00  0.00    -0.337 N 
ATOM     58  CD  MOL d          46.467  56.300  -1.499  0.00  0.00     0.127 C 
ATOM     59  C   MOL d          46.657  58.095   0.283  0.00  0.00     0.243 C 
ATOM     60  CG  MOL d          46.746  56.470  -2.992  0.00  0.00     0.022 C 
ATOM     61  CB  MOL d          46.115  57.836  -3.291  0.00  0.00     0.037 C 
ATOM     62  O   MOL d          46.828  59.274   0.580  0.00  0.00    -0.271 OA
BRANCH  59  63
ATOM     63  CA  MOL d          46.601  57.020   1.344  0.00  0.00     0.172 C 
ATOM     64  CB  MOL d          45.143  56.592   1.552  0.00  0.00     0.042 C 
BRANCH  63  65
ATOM     65  N   MOL d          47.181  57.364   2.633  0.00  0.00    -0.346 N 
ATOM     66  C   MOL d          48.485  57.511   2.814  0.00  0.00     0.249 C 
ATOM     67  O   MOL d          49.307  57.423   1.905  0.00  0.00    -0.271 OA
ATOM     68  H12 MOL d          46.571  57.495   3.414  0.00  0.00     0.163 HD
BRANCH  66  69
ATOM     69  CA  MOL d          48.925  57.801   4.247  0.00  0.00     0.278 C 
BRANCH  69  70
ATOM     70  CB  MOL d          49.457  59.233   4.377  0.00  0.00     0.081 C 
BRANCH  70  71
ATOM     71  CG  MOL d          48.418  60.228   4.798  0.00  0.00    -0.056 A 
ATOM     72  CD2 MOL d          48.196  61.380   4.051  0.00  0.00     0.007 A 
ATOM     73  CE2 MOL d          47.235  62.319   4.449  0.00  0.00     0.001 A 
ATOM     74  CZ  MOL d          46.481  62.106   5.617  0.00  0.00     0.000 A 
ATOM     75  CE1 MOL d          46.697  60.958   6.370  0.00  0.00     0.001 A 
ATOM     76  CD1 MOL d          47.668  60.022   5.954  0.00  0.00     0.007 A 
ENDBRANCH  70  71
ENDBRANCH  69  70
BRANCH  69  77
ATOM     77  N   MOL d          49.998  56.839   4.585  0.00  0.00    -0.066 N 
ATOM     78  H1  MOL d          50.312  57.004   5.529  0.00  0.00     0.275 HD
ATOM     79  H2  MOL d          50.770  56.959   3.948  0.00  0.00     0.275 HD
ATOM     80  H3  MOL d          49.643  55.899   4.509  0.00  0.00     0.275 HD
ENDBRANCH  69  77
ENDBRANCH  66  69
ENDBRANCH  63  65
ENDBRANCH  59  63
ENDBRANCH  53  56
ENDBRANCH  51  52
ENDBRANCH  48  51
ENDBRANCH   1  47
TORSDOF 25
