REMARK  9 active torsions:
REMARK  status: ('A' for Active; 'I' for Inactive)
REMARK    1  A    between atoms: C4_3  and  S7_4 
REMARK    2  A    between atoms: S7_4  and  N10_6 
REMARK    3  A    between atoms: C6_12  and  N26_20 
REMARK    4  A    between atoms: C1_13  and  S11_14 
REMARK    5  A    between atoms: S11_14  and  C21_17 
REMARK    6  A    between atoms: C21_17  and  C24_18 
REMARK    7  A    between atoms: C24_18  and  O25_19 
REMARK    8  A    between atoms: N26_20  and  C14_21 
REMARK    9  A    between atoms: C14_21  and  C15_22 
ROOT
ATOM      1  F27 WWO d          -4.225   0.630  13.978  0.00  0.00    -0.202 F 
ATOM      2  C5  WWO d          -4.756   1.849  14.276  0.00  0.00     0.170 A 
ATOM      3  C4  WWO d          -5.419   2.052  15.525  0.00  0.00     0.161 A 
ATOM      4  C3  WWO d          -5.940   3.299  15.813  0.00  0.00     0.182 A 
ATOM      5  F12 WWO d          -6.576   3.515  16.988  0.00  0.00    -0.201 F 
ATOM      6  C2  WWO d          -5.776   4.346  14.930  0.00  0.00     0.180 A 
ATOM      7  F13 WWO d          -6.307   5.534  15.330  0.00  0.00    -0.201 F 
ATOM      8  C6  WWO d          -4.630   2.901  13.323  0.00  0.00     0.094 A 
ATOM      9  C1  WWO d          -5.153   4.182  13.701  0.00  0.00     0.130 A 
ENDROOT
BRANCH   8  10
ATOM     10  N26 WWO d          -3.916   2.746  12.076  0.00  0.00    -0.382 N 
ATOM     11  H8  WWO d          -3.177   2.028  12.074  0.00  0.00     0.160 HD
BRANCH  10  12
ATOM     12  C14 WWO d          -4.097   3.467  10.816  0.00  0.00     0.158 C 
BRANCH  12  13
ATOM     13  C15 WWO d          -2.810   3.600  10.078  0.00  0.00    -0.041 A 
ATOM     14  C20 WWO d          -1.627   3.138  10.666  0.00  0.00     0.009 A 
ATOM     15  C19 WWO d          -0.412   3.257   9.985  0.00  0.00     0.001 A 
ATOM     16  C18 WWO d          -0.376   3.838   8.714  0.00  0.00     0.000 A 
ATOM     17  C17 WWO d          -1.558   4.301   8.124  0.00  0.00     0.001 A 
ATOM     18  C16 WWO d          -2.774   4.182   8.806  0.00  0.00     0.009 A 
ENDBRANCH  12  13
ENDBRANCH  10  12
ENDBRANCH   8  10
BRANCH   9  19
ATOM     19  S11 WWO d          -5.075   5.728  12.728  0.00  0.00     0.182 S 
ATOM     20  O22 WWO d          -3.827   5.692  11.776  0.00  0.00    -0.222 OA
ATOM     21  O23 WWO d          -4.404   6.758  13.682  0.00  0.00    -0.222 OA
BRANCH  19  22
ATOM     22  C21 WWO d          -6.422   6.583  11.778  0.00  0.00     0.172 C 
BRANCH  22  23
ATOM     23  C24 WWO d          -5.875   7.699  10.860  0.00  0.00     0.179 C 
BRANCH  23  24
ATOM     24  O25 WWO d          -6.720   8.004   9.775  0.00  0.00    -0.400 OA
ATOM     25  H7  WWO d          -6.327   8.694   9.253  0.00  0.00     0.209 HD
ENDBRANCH  23  24
ENDBRANCH  22  23
ENDBRANCH  19  22
ENDBRANCH   9  19
BRANCH   3  26
ATOM     26  S7  WWO d          -5.749   0.771  16.765  0.00  0.00     0.263 S 
ATOM     27  O9  WWO d          -7.314   0.699  16.812  0.00  0.00    -0.201 OA
ATOM     28  O8  WWO d          -5.245   0.974  18.169  0.00  0.00    -0.201 OA
BRANCH  26  29
ATOM     29  N10 WWO d          -5.114  -0.716  16.113  0.00  0.00    -0.324 N 
ATOM     30  H1  WWO d          -5.188  -1.564  16.638  0.00  0.00     0.169 HD
ATOM     31  H2  WWO d          -4.676  -0.721  15.214  0.00  0.00     0.169 HD
ENDBRANCH  26  29
ENDBRANCH   3  26
TORSDOF 9
