REMARK  5 active torsions:
REMARK  status: ('A' for Active; 'I' for Inactive)
REMARK    1  A    between atoms: C3_3  and  O3_10 
REMARK    2  A    between atoms: C4_4  and  O4_12 
REMARK    3  A    between atoms: C5_5  and  C6_6 
REMARK    4  A    between atoms: C6_6  and  O6_14 
REMARK    5  A    between atoms: C2_13  and  O2_11 
ROOT
ATOM      1  C1  MVL d           2.840 -31.805 -19.899  0.00  0.00     0.138 A 
ATOM      2  N10 MVL d           4.166 -31.929 -19.744  0.00  0.00    -0.332 N 
ATOM      3  C3  MVL d           2.733 -30.042 -18.203  0.00  0.00     0.185 C 
ATOM      4  C4  MVL d           4.209 -29.760 -18.524  0.00  0.00     0.175 C 
ATOM      5  C5  MVL d           5.002 -30.995 -18.929  0.00  0.00     0.145 C 
ATOM      6  C7  MVL d           3.499 -33.617 -20.967  0.00  0.00     0.136 A 
ATOM      7  C8  MVL d           4.582 -33.043 -20.407  0.00  0.00     0.112 A 
ATOM      8  N1  MVL d           2.441 -32.839 -20.641  0.00  0.00    -0.243 NA
ATOM      9  C2  MVL d           2.027 -30.676 -19.381  0.00  0.00     0.219 C 
ENDROOT
BRANCH   5  10
ATOM     10  C6  MVL d           5.516 -31.726 -17.683  0.00  0.00     0.192 C 
BRANCH  10  11
ATOM     11  O6  MVL d           6.248 -32.908 -18.007  0.00  0.00    -0.399 OA
ATOM     12  H12 MVL d           5.686 -33.505 -18.487  0.00  0.00     0.209 HD
ENDBRANCH  10  11
ENDBRANCH   5  10
BRANCH   4  13
ATOM     13  O4  MVL d           4.284 -28.817 -19.592  0.00  0.00    -0.391 OA
ATOM     14  H10 MVL d           3.794 -28.037 -19.359  0.00  0.00     0.210 HD
ENDBRANCH   4  13
BRANCH   3  15
ATOM     15  O3  MVL d           2.614 -30.924 -17.092  0.00  0.00    -0.390 OA
ATOM     16  H8  MVL d           1.695 -31.083 -16.913  0.00  0.00     0.210 HD
ENDBRANCH   3  15
BRANCH   9  17
ATOM     17  O2  MVL d           0.730 -31.092 -18.974  0.00  0.00    -0.385 OA
ATOM     18  H9  MVL d           0.808 -31.724 -18.269  0.00  0.00     0.210 HD
ENDBRANCH   9  17
TORSDOF 5
