REMARK  2 active torsions:
REMARK  status: ('A' for Active; 'I' for Inactive)
REMARK    1  A    between atoms: C2_2  and  C3_3 
REMARK    2  A    between atoms: C3_3  and  C4_4 
ROOT
ATOM      1  C3  BUA d         -35.184 -23.534 -43.068  0.00  0.00     0.113 C 
ENDROOT
BRANCH   1   2
ATOM      2  C2  BUA d         -35.644 -24.918 -43.536  0.00  0.00     0.006 C 
ATOM      3  C1  BUA d         -34.858 -25.328 -44.758  0.00  0.00     0.005 C 
ENDBRANCH   1   2
BRANCH   1   4
ATOM      4  C4  BUA d         -36.248 -22.854 -42.237  0.00  0.00     0.172 C 
ATOM      5  O1  BUA d         -36.567 -21.691 -42.495  0.00  0.00    -0.648 OA
ATOM      6  O2  BUA d         -36.781 -23.466 -41.310  0.00  0.00    -0.648 OA
ENDBRANCH   1   4
TORSDOF 2
