REMARK  1 active torsions:
REMARK  status: ('A' for Active; 'I' for Inactive)
REMARK    1  A    between atoms: N3_8  and  C7_12 
ROOT
ATOM      1  C1  MOL d         -16.518  43.838  -5.489  0.00  0.00     0.143 A 
ATOM      2  N1  MOL d         -17.318  43.425  -4.481  0.00  0.00    -0.271 NA
ATOM      3  O1  MOL d         -13.508  44.961  -6.532  0.00  0.00    -0.200 OA
ATOM      4  C2  MOL d         -17.446  44.235  -3.419  0.00  0.00     0.118 A 
ATOM      5  N2  MOL d         -14.748  47.139  -6.608  0.00  0.00    -0.298 N 
ATOM      6  O2  MOL d         -15.540  45.235  -8.041  0.00  0.00    -0.200 OA
ATOM      7  C3  MOL d         -16.795  45.454  -3.329  0.00  0.00     0.050 A 
ATOM      8  N3  MOL d         -15.302  47.117  -4.302  0.00  0.00    -0.363 N 
ATOM      9  C4  MOL d         -15.845  45.041  -5.455  0.00  0.00     0.123 A 
ATOM     10  C5  MOL d         -14.315  47.511  -5.284  0.00  0.00     0.258 C 
ATOM     11  C6  MOL d         -15.961  45.901  -4.368  0.00  0.00     0.058 A 
ATOM     12  S1  MOL d         -14.834  45.484  -6.802  0.00  0.00     0.263 S 
ATOM     13  H   MOL d         -14.971  47.797  -7.327  0.00  0.00     0.174 HD
ENDROOT
BRANCH   8  14
ATOM     14  C7  MOL d         -15.417  47.972  -3.108  0.00  0.00     0.120 C 
ATOM     15  C8  MOL d         -16.705  48.796  -3.122  0.00  0.00     0.026 C 
ENDBRANCH   8  14
TORSDOF 1
