REMARK  2 active torsions:
REMARK  status: ('A' for Active; 'I' for Inactive)
REMARK    1  A    between atoms: S_1  and  C2_4 
REMARK    2  A    between atoms: S_1  and  NH_9 
ROOT
ATOM      1  N1  EVH d          16.807   2.410  15.229  0.00  0.00    -0.339 N 
ATOM      2  C2  EVH d          15.541   2.222  15.736  0.00  0.00     0.245 A 
ATOM      3  N3  EVH d          14.740   3.204  15.262  0.00  0.00    -0.230 NA
ATOM      4  C4  EVH d          15.451   3.975  14.388  0.00  0.00     0.136 A 
ATOM      5  C5  EVH d          16.752   3.490  14.394  0.00  0.00     0.110 A 
ATOM      6  H1  EVH d          17.640   1.842  15.440  0.00  0.00     0.167 HD
ENDROOT
BRANCH   2   7
ATOM      7  S   EVH d          15.086   0.993  16.819  0.00  0.00     0.290 S 
ATOM      8  O1  EVH d          13.607   1.022  16.783  0.00  0.00    -0.198 OA
ATOM      9  O2  EVH d          15.715   1.274  18.059  0.00  0.00    -0.198 OA
BRANCH   7  10
ATOM     10  NH  EVH d          15.661  -0.333  16.207  0.00  0.00    -0.322 N 
ATOM     11  H4  EVH d          16.650  -0.479  16.171  0.00  0.00     0.169 HD
ATOM     12  H5  EVH d          15.039  -1.032  15.854  0.00  0.00     0.169 HD
ENDBRANCH   7  10
ENDBRANCH   2   7
TORSDOF 2
