REMARK  13 active torsions:
REMARK  status: ('A' for Active; 'I' for Inactive)
REMARK    1  A    between atoms: C22_8  and  C21_9 
REMARK       I    between atoms: C21_9  and  N20_11 
REMARK    2  A    between atoms: N20_11  and  C19_12 
REMARK    3  A    between atoms: C19_12  and  C32_13 
REMARK    4  A    between atoms: C19_12  and  C17_20 
REMARK    5  A    between atoms: C32_13  and  C38_14 
REMARK    6  A    between atoms: C17_20  and  O18_21 
REMARK    7  A    between atoms: C17_20  and  C16_22 
REMARK    8  A    between atoms: C16_22  and  N11_23 
REMARK    9  A    between atoms: N11_23  and  C12_24 
REMARK   10  A    between atoms: N11_23  and  S8_30 
REMARK   11  A    between atoms: C12_24  and  C15_25 
REMARK   12  A    between atoms: S8_30  and  C5_33 
REMARK   13  A    between atoms: C7_35  and  O19_36 
ROOT
ATOM      1  C17 MZ3 d          20.100  29.863  15.634  0.00  0.00     0.155 C 
ENDROOT
BRANCH   1   2
ATOM      2  C19 MZ3 d          19.679  29.459  14.215  0.00  0.00     0.118 C 
BRANCH   2   3
ATOM      3  N20 MZ3 d          20.672  28.576  13.609  0.00  0.00    -0.349 N 
ATOM      4  C21 MZ3 d          21.510  28.936  12.635  0.00  0.00     0.252 C 
ATOM      5  O22 MZ3 d          21.528  30.061  12.178  0.00  0.00    -0.268 OA
ATOM      6  H7  MZ3 d          20.728  27.637  13.947  0.00  0.00     0.163 HD
BRANCH   4   7
ATOM      7  C22 MZ3 d          22.488  27.942  12.029  0.00  0.00     0.041 A 
ATOM      8  C23 MZ3 d          22.033  26.912  11.206  0.00  0.00     0.018 A 
ATOM      9  C24 MZ3 d          22.939  26.037  10.616  0.00  0.00     0.004 A 
ATOM     10  C25 MZ3 d          24.294  26.178  10.868  0.00  0.00     0.043 A 
ATOM     11  C26 MZ3 d          24.744  27.199  11.695  0.00  0.00     0.123 A 
ATOM     12  F29 MZ3 d          26.059  27.343  11.947  0.00  0.00    -0.206 F 
ATOM     13  C27 MZ3 d          23.843  28.079  12.263  0.00  0.00    -0.008 A 
ATOM     14  C28 MZ3 d          24.325  29.182  13.152  0.00  0.00     0.052 C 
ENDBRANCH   4   7
ENDBRANCH   2   3
BRANCH   2  15
ATOM     15  C32 MZ3 d          18.402  28.612  14.245  0.00  0.00     0.066 C 
BRANCH  15  16
ATOM     16  C38 MZ3 d          18.020  28.183  12.835  0.00  0.00    -0.056 A 
ATOM     17  C37 MZ3 d          17.538  29.110  11.931  0.00  0.00     0.007 A 
ATOM     18  C36 MZ3 d          17.184  28.702  10.653  0.00  0.00     0.001 A 
ATOM     19  C35 MZ3 d          17.311  27.376  10.265  0.00  0.00     0.000 A 
ATOM     20  C34 MZ3 d          17.800  26.443  11.169  0.00  0.00     0.001 A 
ATOM     21  C33 MZ3 d          18.150  26.852  12.452  0.00  0.00     0.007 A 
ENDBRANCH  15  16
ENDBRANCH   2  15
ENDBRANCH   1   2
BRANCH   1  22
ATOM     22  O18 MZ3 d          20.071  28.745  16.536  0.00  0.00    -0.392 OA
ATOM     23  H17 MZ3 d          20.337  29.031  17.402  0.00  0.00     0.210 HD
ENDBRANCH   1  22
BRANCH   1  24
ATOM     24  C16 MZ3 d          19.176  30.939  16.230  0.00  0.00     0.141 C 
BRANCH  24  25
ATOM     25  N11 MZ3 d          19.425  32.222  15.546  0.00  0.00    -0.199 NA
BRANCH  25  26
ATOM     26  C12 MZ3 d          20.169  33.218  16.354  0.00  0.00     0.153 C 
BRANCH  26  27
ATOM     27  C15 MZ3 d          21.656  33.185  15.996  0.00  0.00    -0.004 A 
ATOM     28  C18 MZ3 d          22.603  33.176  16.961  0.00  0.00     0.016 A 
ATOM     29  C14 MZ3 d          23.899  33.137  16.360  0.00  0.00     0.008 A 
ATOM     30  C13 MZ3 d          23.805  33.125  15.010  0.00  0.00     0.050 A 
ATOM     31  S1  MZ3 d          22.244  33.142  14.423  0.00  0.00    -0.105 SA
ENDBRANCH  26  27
ENDBRANCH  25  26
BRANCH  25  32
ATOM     32  S8  MZ3 d          18.101  32.786  14.793  0.00  0.00     0.244 S 
ATOM     33  O9  MZ3 d          18.587  33.601  13.710  0.00  0.00    -0.206 OA
ATOM     34  O10 MZ3 d          17.369  31.684  14.244  0.00  0.00    -0.206 OA
BRANCH  32  35
ATOM     35  C5  MZ3 d          17.129  33.636  15.770  0.00  0.00     0.077 A 
ATOM     36  C6  MZ3 d          17.385  34.982  16.000  0.00  0.00     0.061 A 
ATOM     37  C7  MZ3 d          16.579  35.750  16.837  0.00  0.00     0.069 A 
ATOM     38  C2  MZ3 d          15.484  35.148  17.472  0.00  0.00     0.037 A 
ATOM     39  C3  MZ3 d          15.196  33.810  17.235  0.00  0.00     0.004 A 
ATOM     40  C4  MZ3 d          16.020  33.058  16.392  0.00  0.00     0.025 A 
BRANCH  37  41
ATOM     41  O19 MZ3 d          16.920  37.085  16.999  0.00  0.00    -0.356 OA
ATOM     42  C20 MZ3 d          16.130  38.021  17.720  0.00  0.00     0.210 C 
ENDBRANCH  37  41
ENDBRANCH  32  35
ENDBRANCH  25  32
ENDBRANCH  24  25
ENDBRANCH   1  24
TORSDOF 13
