REMARK  3 active torsions:
REMARK  status: ('A' for Active; 'I' for Inactive)
REMARK    1  A    between atoms: C2_2  and  C5_5 
REMARK    2  A    between atoms: C7_7  and  C12_12 
REMARK    3  A    between atoms: C10_10  and  O11_11 
REMARK       I    between atoms: C12_12  and  N14_14 
ROOT
ATOM      1  C5  C0Y d           6.726  -3.051  11.609  0.00  0.00    -0.017 A 
ATOM      2  C6  C0Y d           7.654  -3.647  10.775  0.00  0.00     0.027 A 
ATOM      3  C7  C0Y d           8.085  -4.948  10.973  0.00  0.00     0.032 A 
ATOM      4  C8  C0Y d           7.579  -5.679  12.042  0.00  0.00     0.020 A 
ATOM      5  C9  C0Y d           6.650  -5.117  12.898  0.00  0.00     0.038 A 
ATOM      6  C10 C0Y d           6.214  -3.810  12.699  0.00  0.00     0.072 A 
ENDROOT
BRANCH   3   7
ATOM      7  C12 C0Y d           9.128  -5.535  10.076  0.00  0.00     0.253 C 
ATOM      8  O13 C0Y d          10.177  -5.922  10.557  0.00  0.00    -0.267 OA
ATOM      9  N14 C0Y d           8.917  -5.545   8.736  0.00  0.00    -0.344 N 
ATOM     10  C15 C0Y d           9.944  -5.977   7.778  0.00  0.00     0.152 C 
ATOM     11  C19 C0Y d           7.585  -5.413   8.142  0.00  0.00     0.152 C 
ATOM     12  C16 C0Y d           9.483  -7.238   7.071  0.00  0.00     0.187 C 
ATOM     13  O17 C0Y d           8.211  -7.043   6.436  0.00  0.00    -0.388 OA
ATOM     14  C18 C0Y d           7.219  -6.696   7.414  0.00  0.00     0.187 C 
ENDBRANCH   3   7
BRANCH   1  15
ATOM     15  C2  C0Y d           6.358  -1.591  11.297  0.00  0.00    -0.021 C 
ATOM     16  C1  C0Y d           7.024  -1.139   9.997  0.00  0.00     0.019 C 
ATOM     17  C3  C0Y d           6.837  -0.664  12.425  0.00  0.00     0.019 C 
ATOM     18  C4  C0Y d           4.842  -1.433  11.145  0.00  0.00     0.019 C 
ENDBRANCH   1  15
BRANCH   6  19
ATOM     19  O11 C0Y d           5.280  -3.277  13.559  0.00  0.00    -0.360 OA
ATOM     20  H13 C0Y d           5.083  -2.385  13.298  0.00  0.00     0.217 HD
ENDBRANCH   6  19
TORSDOF 3
