REMARK  5 active torsions:
REMARK  status: ('A' for Active; 'I' for Inactive)
REMARK    1  A    between atoms: C1_1  and  N1_2 
REMARK    2  A    between atoms: C10_8  and  C1_1 
REMARK    3  A    between atoms: N1_2  and  C1'_6 
REMARK    4  A    between atoms: C2'_11  and  N2'_12 
REMARK    5  A    between atoms: C4'_15  and  N4'_16 
ROOT
ATOM      1  C9  OAG d          28.438  13.220  -0.783  0.00  0.00     0.029 A 
ATOM      2  N1' OAG d          28.438  12.585  -4.297  0.00  0.00    -0.043 NA
ATOM      3  C10 OAG d          29.742  13.666  -0.571  0.00  0.00    -0.022 A 
ATOM      4  C2' OAG d          27.141  12.185  -4.482  0.00  0.00     0.724 C 
ATOM      5  N3' OAG d          26.268  12.032  -3.479  0.00  0.00    -0.045 NA
ATOM      6  C4' OAG d          26.717  12.342  -2.230  0.00  0.00     0.154 C 
ATOM      7  C4A OAG d          27.990  12.872  -2.044  0.00  0.00     0.059 A 
ATOM      8  C7' OAG d          30.586  13.762  -1.670  0.00  0.00     0.128 A 
ATOM      9  N8' OAG d          30.168  13.391  -2.878  0.00  0.00    -0.239 NA
ATOM     10  C8A OAG d          28.911  12.933  -3.059  0.00  0.00     0.182 A 
ENDROOT
BRANCH   3  11
ATOM     11  C1  OAG d          30.088  13.989   0.899  0.00  0.00     0.160 C 
BRANCH  11  12
ATOM     12  N1  OAG d          31.233  13.211   1.316  0.00  0.00    -0.384 N 
ATOM     13  H   OAG d          31.117  12.311   1.803  0.00  0.00     0.160 HD
BRANCH  12  14
ATOM     14  C1' OAG d          32.427  13.693   1.051  0.00  0.00     0.051 C 
ATOM     15  C11 OAG d          33.528  13.001   1.519  0.00  0.00     0.060 C 
ATOM     16 CL2  OAG d          33.426  11.576   2.458  0.00  0.00    -0.082 Cl
ATOM     17  C3' OAG d          34.704  13.641   1.251  0.00  0.00     0.028 C 
ATOM     18  C12 OAG d          34.968  14.695   0.462  0.00  0.00     0.026 C 
ATOM     19  C5' OAG d          33.879  15.323   0.042  0.00  0.00     0.036 C 
ATOM     20 CL5  OAG d          34.341  16.654  -0.836  0.00  0.00    -0.084 Cl
ATOM     21  C6' OAG d          32.580  14.872   0.297  0.00  0.00     0.054 C 
ENDBRANCH  12  14
ENDBRANCH  11  12
ENDBRANCH   3  11
BRANCH   6  22
ATOM     22  N4' OAG d          25.788  12.188  -1.280  0.00  0.00    -0.383 N 
ATOM     23  H   OAG d          26.017  12.394  -0.297  0.00  0.00     0.157 HD
ATOM     24  H   OAG d          24.843  11.864  -1.531  0.00  0.00     0.157 HD
ENDBRANCH   6  22
BRANCH   4  25
ATOM     25  N2' OAG d          26.709  11.864  -5.716  0.00  0.00    -0.231 N 
ATOM     26  H   OAG d          27.340  11.963  -6.524  0.00  0.00     0.174 HD
ATOM     27  H   OAG d          25.748  11.520  -5.852  0.00  0.00     0.174 HD
ENDBRANCH   4  25
TORSDOF 5
