REMARK  15 active torsions:
REMARK  status: ('A' for Active; 'I' for Inactive)
REMARK    1  A    between atoms: O2_20  and  C1_1 
REMARK    2  A    between atoms: C2_2  and  O2_7 
REMARK    3  A    between atoms: C3_3  and  O3_8 
REMARK    4  A    between atoms: C4_4  and  O4_9 
REMARK    5  A    between atoms: C5_5  and  C6_6 
REMARK    6  A    between atoms: C6_6  and  O6_11 
REMARK    7  A    between atoms: C1_12  and  O1_19 
REMARK    8  A    between atoms: C2_13  and  O2_20 
REMARK    9  A    between atoms: O3_21  and  C3_14 
REMARK   10  A    between atoms: C4_15  and  O4_22 
REMARK   11  A    between atoms: C5_16  and  C6_17 
REMARK   12  A    between atoms: C6_17  and  O6_24 
REMARK   13  A    between atoms: O3_21  and  C1_25 
REMARK   14  A    between atoms: C2_26  and  O2_31 
REMARK   15  A    between atoms: C4_28  and  O4_32 
ROOT
ATOM      1  C1  MOL d          21.962  41.687  19.844  0.00  0.00     0.291 C 
ATOM      2  C2  MOL d          21.037  40.765  20.628  0.00  0.00     0.211 C 
ATOM      3  C3  MOL d          19.641  40.711  20.006  0.00  0.00     0.190 C 
ATOM      4  C4  MOL d          19.056  42.137  19.855  0.00  0.00     0.181 C 
ATOM      5  C5  MOL d          20.052  42.934  18.946  0.00  0.00     0.179 C 
ATOM      6  O5  MOL d          21.327  42.958  19.630  0.00  0.00    -0.349 OA
ENDROOT
BRANCH   2   7
ATOM      7  O2  MOL d          20.926  41.351  21.912  0.00  0.00    -0.346 OA
BRANCH   7   8
ATOM      8  C1  MOL d          20.675  40.553  23.062  0.00  0.00     0.292 C 
ATOM      9  O5  MOL d          21.936  40.488  23.693  0.00  0.00    -0.348 OA
ATOM     10  C5  MOL d          22.437  41.772  24.109  0.00  0.00     0.179 C 
ATOM     11  C4  MOL d          21.547  42.181  25.289  0.00  0.00     0.180 C 
ATOM     12  C3  MOL d          20.114  42.432  24.762  0.00  0.00     0.183 C 
ATOM     13  C2  MOL d          19.572  41.201  23.993  0.00  0.00     0.204 C 
BRANCH  10  14
ATOM     14  C6  MOL d          23.970  41.711  24.221  0.00  0.00     0.198 C 
BRANCH  14  15
ATOM     15  O6  MOL d          24.579  42.770  23.463  0.00  0.00    -0.398 OA
ATOM     16  H11 MOL d          25.524  42.714  23.546  0.00  0.00     0.209 HD
ENDBRANCH  14  15
ENDBRANCH  10  14
BRANCH  11  17
ATOM     17  O4  MOL d          21.403  41.154  26.240  0.00  0.00    -0.390 OA
ATOM     18  H10 MOL d          20.818  41.443  26.931  0.00  0.00     0.210 HD
ENDBRANCH  11  17
BRANCH  12  19
ATOM     19  O3  MOL d          19.225  42.640  25.870  0.00  0.00    -0.390 OA
ATOM     20  H9  MOL d          19.223  41.867  26.422  0.00  0.00     0.210 HD
ENDBRANCH  12  19
BRANCH  13  21
ATOM     21  O2  MOL d          18.360  41.630  23.357  0.00  0.00    -0.388 OA
ATOM     22  H8  MOL d          17.941  40.886  22.941  0.00  0.00     0.210 HD
ENDBRANCH  13  21
ENDBRANCH   7   8
ENDBRANCH   2   7
BRANCH   1  23
ATOM     23  O1  MOL d          22.284  41.076  18.593  0.00  0.00    -0.363 OA
ATOM     24  C7  MOL d          23.662  40.716  18.328  0.00  0.00     0.204 C 
ENDBRANCH   1  23
BRANCH   3  25
ATOM     25  O3  MOL d          18.807  39.960  20.885  0.00  0.00    -0.348 OA
BRANCH  25  26
ATOM     26  C1  MOL d          17.914  39.074  20.272  0.00  0.00     0.289 C 
ATOM     27  O5  MOL d          18.632  37.920  19.824  0.00  0.00    -0.351 OA
ATOM     28  C5  MOL d          19.234  37.101  20.854  0.00  0.00     0.149 C 
ATOM     29  C4  MOL d          18.138  36.648  21.866  0.00  0.00     0.149 C 
ATOM     30  C6  MOL d          19.906  35.911  20.166  0.00  0.00     0.042 C 
ATOM     31  C3  MOL d          17.423  37.861  22.450  0.00  0.00     0.071 C 
ATOM     32  C2  MOL d          16.854  38.767  21.350  0.00  0.00     0.175 C 
BRANCH  29  33
ATOM     33  O4  MOL d          17.229  35.760  21.239  0.00  0.00    -0.393 OA
ATOM     34  H34 MOL d          17.705  35.017  20.887  0.00  0.00     0.210 HD
ENDBRANCH  29  33
BRANCH  32  35
ATOM     35  O2  MOL d          16.479  40.019  21.937  0.00  0.00    -0.391 OA
ATOM     36  H33 MOL d          17.244  40.428  22.325  0.00  0.00     0.210 HD
ENDBRANCH  32  35
ENDBRANCH  25  26
ENDBRANCH   3  25
BRANCH   4  37
ATOM     37  O4  MOL d          17.721  42.161  19.370  0.00  0.00    -0.390 OA
ATOM     38  H22 MOL d          17.426  43.062  19.302  0.00  0.00     0.210 HD
ENDBRANCH   4  37
BRANCH   5  39
ATOM     39  C6  MOL d          19.621  44.390  18.639  0.00  0.00     0.198 C 
BRANCH  39  40
ATOM     40  O6  MOL d          18.954  45.034  19.723  0.00  0.00    -0.398 OA
ATOM     41  H23 MOL d          18.169  44.547  19.944  0.00  0.00     0.209 HD
ENDBRANCH  39  40
ENDBRANCH   5  39
TORSDOF 15
