REMARK  8 active torsions:
REMARK  status: ('A' for Active; 'I' for Inactive)
REMARK    1  A    between atoms: O2_1  and  C2_2 
REMARK    2  A    between atoms: C3_3  and  O3_4 
REMARK    3  A    between atoms: C4_5  and  O4_6 
REMARK    4  A    between atoms: C5_7  and  C6_8 
REMARK    5  A    between atoms: C6_8  and  O6_9 
REMARK    6  A    between atoms: C1_11  and  N1_12 
REMARK       I    between atoms: N1_12  and  C7_13 
REMARK    7  A    between atoms: C7_13  and  C9_15 
REMARK    8  A    between atoms: C9_15  and  O9_16 
ROOT
ATOM      1  C2  MOL d          33.563  22.915  26.130  0.00  0.00     0.198 C 
ATOM      2  C3  MOL d          32.359  22.371  25.336  0.00  0.00     0.182 C 
ATOM      3  C4  MOL d          32.102  20.905  25.712  0.00  0.00     0.180 C 
ATOM      4  C5  MOL d          31.948  20.738  27.238  0.00  0.00     0.179 C 
ATOM      5  O5  MOL d          33.132  21.219  27.901  0.00  0.00    -0.354 OA
ATOM      6  C1  MOL d          33.407  22.632  27.637  0.00  0.00     0.255 C 
ENDROOT
BRANCH   6   7
ATOM      7  N1  MOL d          34.671  23.032  28.312  0.00  0.00    -0.330 N 
ATOM      8  C7  MOL d          34.611  23.621  29.504  0.00  0.00     0.243 C 
ATOM      9  O7  MOL d          33.560  23.851  30.094  0.00  0.00    -0.271 OA
ATOM     10  H12 MOL d          35.554  22.860  27.876  0.00  0.00     0.165 HD
BRANCH   8  11
ATOM     11  C9  MOL d          35.954  24.012  30.124  0.00  0.00     0.266 C 
BRANCH  11  12
ATOM     12  O9  MOL d          37.035  23.277  29.555  0.00  0.00    -0.392 OA
ATOM     13  H15 MOL d          37.849  23.546  29.964  0.00  0.00     0.210 HD
ENDBRANCH  11  12
ENDBRANCH   8  11
ENDBRANCH   6   7
BRANCH   1  14
ATOM     14  O2  MOL d          33.750  24.317  25.906  0.00  0.00    -0.389 OA
ATOM     15  H1  MOL d          34.498  24.620  26.408  0.00  0.00     0.210 HD
ENDBRANCH   1  14
BRANCH   2  16
ATOM     16  O3  MOL d          32.614  22.467  23.931  0.00  0.00    -0.390 OA
ATOM     17  H4  MOL d          31.867  22.130  23.451  0.00  0.00     0.210 HD
ENDBRANCH   2  16
BRANCH   4  18
ATOM     18  C6  MOL d          31.780  19.265  27.659  0.00  0.00     0.198 C 
BRANCH  18  19
ATOM     19  O6  MOL d          32.867  18.482  27.154  0.00  0.00    -0.398 OA
ATOM     20  H10 MOL d          33.685  18.815  27.503  0.00  0.00     0.209 HD
ENDBRANCH  18  19
ENDBRANCH   4  18
BRANCH   3  21
ATOM     21  O4  MOL d          30.930  20.457  25.050  0.00  0.00    -0.390 OA
ATOM     22  H6  MOL d          31.050  20.531  24.111  0.00  0.00     0.210 HD
ENDBRANCH   3  21
TORSDOF 8
