REMARK  9 active torsions:
REMARK  status: ('A' for Active; 'I' for Inactive)
REMARK    1  A    between atoms: C2_2  and  C4_4 
REMARK    2  A    between atoms: C4_4  and  N5_5 
REMARK    3  A    between atoms: C4_4  and  C6_6 
REMARK    4  A    between atoms: C6_6  and  C7_7 
REMARK    5  A    between atoms: C10_10  and  C13_13 
REMARK    6  A    between atoms: C16_16  and  N19_19 
REMARK    7  A    between atoms: N19_19  and  C20_20 
REMARK    8  A    between atoms: C20_20  and  C21_21 
REMARK    9  A    between atoms: C26_22  and  C27_27 
ROOT
ATOM      1  C13 ML4 d           9.041   0.713  19.626  0.00  0.00     0.084 A 
ATOM      2  N18 ML4 d           8.831  -0.313  18.763  0.00  0.00    -0.255 NA
ATOM      3  C17 ML4 d           7.910  -1.253  19.005  0.00  0.00     0.167 A 
ATOM      4  C16 ML4 d           7.154  -1.184  20.167  0.00  0.00     0.141 A 
ATOM      5  N15 ML4 d           7.364  -0.165  21.031  0.00  0.00    -0.240 NA
ATOM      6  C14 ML4 d           8.284   0.778  20.789  0.00  0.00     0.151 A 
ENDROOT
BRANCH   4   7
ATOM      7  N19 ML4 d           6.221  -2.126  20.442  0.00  0.00    -0.369 N 
ATOM      8  H13 ML4 d           5.762  -2.635  19.673  0.00  0.00     0.161 HD
BRANCH   7   9
ATOM      9  C20 ML4 d           5.865  -2.420  21.826  0.00  0.00     0.160 C 
BRANCH   9  10
ATOM     10  C21 ML4 d           5.165  -3.761  21.939  0.00  0.00    -0.029 A 
ATOM     11  C26 ML4 d           3.738  -3.855  22.381  0.00  0.00    -0.018 A 
ATOM     12  C25 ML4 d           3.137  -5.111  22.474  0.00  0.00     0.013 A 
ATOM     13  C24 ML4 d           3.869  -6.255  22.160  0.00  0.00     0.001 A 
ATOM     14  C23 ML4 d           5.199  -6.171  21.743  0.00  0.00     0.001 A 
ATOM     15  C22 ML4 d           5.845  -4.940  21.636  0.00  0.00     0.010 A 
BRANCH  11  16
ATOM     16  C27 ML4 d           2.957  -2.634  22.724  0.00  0.00    -0.019 A 
ATOM     17  C32 ML4 d           2.309  -1.923  21.717  0.00  0.00     0.013 A 
ATOM     18  C31 ML4 d           1.576  -0.778  22.030  0.00  0.00     0.001 A 
ATOM     19  C30 ML4 d           1.479  -0.329  23.347  0.00  0.00     0.001 A 
ATOM     20  C29 ML4 d           2.111  -1.007  24.392  0.00  0.00     0.007 A 
ATOM     21  C28 ML4 d           2.856  -2.156  24.135  0.00  0.00    -0.051 A 
ATOM     22  C33 ML4 d           3.538  -2.886  25.273  0.00  0.00     0.049 C 
ENDBRANCH  11  16
ENDBRANCH   9  10
ENDBRANCH   7   9
ENDBRANCH   4   7
BRANCH   1  23
ATOM     23  C10 ML4 d          10.071   1.751  19.347  0.00  0.00    -0.006 A 
ATOM     24  C11 ML4 d          10.871   1.660  18.203  0.00  0.00     0.014 A 
ATOM     25  C12 ML4 d          11.842   2.629  17.943  0.00  0.00     0.008 A 
ATOM     26  C7  ML4 d          12.022   3.687  18.830  0.00  0.00    -0.056 A 
ATOM     27  C8  ML4 d          11.233   3.770  19.981  0.00  0.00     0.008 A 
ATOM     28  C9  ML4 d          10.262   2.806  20.239  0.00  0.00     0.014 A 
BRANCH  26  29
ATOM     29  C6  ML4 d          13.067   4.747  18.561  0.00  0.00     0.082 C 
BRANCH  29  30
ATOM     30  C4  ML4 d          14.483   4.254  18.836  0.00  0.00     0.287 C 
BRANCH  30  31
ATOM     31  C2  ML4 d          15.459   5.298  18.371  0.00  0.00     0.204 C 
ATOM     32  O3  ML4 d          16.063   5.986  19.223  0.00  0.00    -0.646 OA
ATOM     33  O1  ML4 d          15.640   5.449  17.148  0.00  0.00    -0.646 OA
ENDBRANCH  30  31
BRANCH  30  34
ATOM     34  N5  ML4 d          14.673   3.993  20.256  0.00  0.00    -0.065 N 
ATOM     35  H2  ML4 d          14.015   3.292  20.560  0.00  0.00     0.275 HD
ATOM     36  H3  ML4 d          14.523   4.843  20.777  0.00  0.00     0.275 HD
ATOM     37  H4  ML4 d          15.612   3.663  20.414  0.00  0.00     0.275 HD
ENDBRANCH  30  34
ENDBRANCH  29  30
ENDBRANCH  26  29
ENDBRANCH   1  23
TORSDOF 9
