REMARK  7 active torsions:
REMARK  status: ('A' for Active; 'I' for Inactive)
REMARK    1  A    between atoms: C2_2  and  C6_6 
REMARK    2  A    between atoms: C3_3  and  O20_16 
REMARK    3  A    between atoms: C5_5  and  C9_9 
REMARK    4  A    between atoms: C11_11  and  N27_21 
REMARK    5  A    between atoms: O20_16  and  C21_17 
REMARK    6  A    between atoms: C21_17  and  C22_18 
REMARK    7  A    between atoms: N27_21  and  C28_22 
ROOT
ATOM      1  C9  MOL d          46.043  11.652   1.153  0.00  0.00    -0.015 A 
ATOM      2  C10 MOL d          47.394  11.122   1.218  0.00  0.00     0.042 A 
ATOM      3  C11 MOL d          47.634   9.772   0.802  0.00  0.00     0.029 A 
ATOM      4  C12 MOL d          46.541   8.963   0.280  0.00  0.00     0.029 A 
ATOM      5  C13 MOL d          45.189   9.448   0.203  0.00  0.00     0.003 A 
ATOM      6  C14 MOL d          44.977  10.800   0.654  0.00  0.00     0.013 A 
ENDROOT
BRANCH   1   7
ATOM      7  C5  MOL d          45.732  13.086   1.488  0.00  0.00     0.036 A 
ATOM      8  S1  MOL d          44.611  14.046   0.506  0.00  0.00    -0.078 SA
ATOM      9  C2  MOL d          44.766  15.439   1.557  0.00  0.00     0.117 A 
ATOM     10  C3  MOL d          45.623  15.180   2.563  0.00  0.00     0.112 A 
ATOM     11  C4  MOL d          46.188  13.814   2.526  0.00  0.00     0.064 A 
ATOM     12 BR1  MOL d          47.415  13.271   3.878  0.00  0.00    -0.047 Br
BRANCH   9  13
ATOM     13  C6  MOL d          44.030  16.679   1.225  0.00  0.00     0.219 C 
ATOM     14  O7  MOL d          43.577  16.722   0.062  0.00  0.00    -0.643 OA
ATOM     15  O8  MOL d          43.861  17.602   2.048  0.00  0.00    -0.643 OA
ENDBRANCH   9  13
BRANCH  10  16
ATOM     16  O20 MOL d          45.915  16.016   3.551  0.00  0.00    -0.338 OA
BRANCH  16  17
ATOM     17  C21 MOL d          47.057  16.832   3.368  0.00  0.00     0.288 C 
BRANCH  17  18
ATOM     18  C22 MOL d          47.438  17.445   4.704  0.00  0.00     0.198 C 
ATOM     19  O25 MOL d          46.649  17.400   5.675  0.00  0.00    -0.646 OA
ATOM     20  O26 MOL d          48.559  17.981   4.767  0.00  0.00    -0.646 OA
ENDBRANCH  17  18
ENDBRANCH  16  17
ENDBRANCH  10  16
ENDBRANCH   1   7
BRANCH   3  21
ATOM     21  N27 MOL d          48.925   9.314   0.962  0.00  0.00    -0.385 N 
ATOM     22  H7  MOL d          49.690   9.986   0.809  0.00  0.00     0.160 HD
BRANCH  21  23
ATOM     23  C28 MOL d          49.292   7.943   1.334  0.00  0.00     0.083 C 
ATOM     24  C30 MOL d          50.811   7.752   1.264  0.00  0.00     0.034 C 
ATOM     25  C31 MOL d          51.202   6.309   1.655  0.00  0.00    -0.045 C 
ATOM     26  C32 MOL d          50.516   5.848   2.961  0.00  0.00     0.017 C 
ATOM     27  C42 MOL d          52.728   6.200   1.871  0.00  0.00     0.015 C 
ATOM     28  C46 MOL d          50.826   5.322   0.510  0.00  0.00     0.015 C 
ATOM     29  C33 MOL d          49.010   6.159   3.088  0.00  0.00    -0.045 C 
ATOM     30  C34 MOL d          48.728   7.626   2.722  0.00  0.00     0.034 C 
ATOM     31  C50 MOL d          48.700   5.958   4.579  0.00  0.00     0.015 C 
ATOM     32  C54 MOL d          48.095   5.209   2.245  0.00  0.00     0.015 C 
ENDBRANCH  21  23
ENDBRANCH   3  21
TORSDOF 7
