REMARK  7 active torsions:
REMARK  status: ('A' for Active; 'I' for Inactive)
REMARK       I    between atoms: C21_2  and  N2_3 
REMARK    1  A    between atoms: C21_2  and  C2_4 
REMARK    2  A    between atoms: C3_7  and  O2_8 
REMARK    3  A    between atoms: C4_9  and  N1_10 
REMARK    4  A    between atoms: C18_14  and  O7_15 
REMARK    5  A    between atoms: C17_16  and  O6_17 
REMARK    6  A    between atoms: C13_26  and  O4_27 
REMARK    7  A    between atoms: C10_30  and  N7_31 
ROOT
ATOM      1  C2  MIY d         -13.604  15.254  15.825  0.00  0.00     0.181 C 
ATOM      2  C1  MIY d         -14.817  14.963  16.564  0.00  0.00     0.183 C 
ATOM      3  O1  MIY d         -15.711  15.774  16.712  0.00  0.00    -0.293 OA
ATOM      4  C3  MIY d         -13.232  14.345  14.944  0.00  0.00     0.169 C 
ATOM      5  C4  MIY d         -13.482  12.869  15.185  0.00  0.00     0.224 C 
ATOM      6  C5  MIY d         -14.758  12.584  15.982  0.00  0.00     0.069 C 
ATOM      7  C18 MIY d         -14.931  13.576  17.112  0.00  0.00     0.173 C 
ATOM      8  C17 MIY d         -16.248  13.422  17.817  0.00  0.00     0.096 C 
ATOM      9  C16 MIY d         -17.265  12.743  17.274  0.00  0.00     0.030 C 
ATOM     10  C7  MIY d         -17.176  12.049  15.934  0.00  0.00     0.030 C 
ATOM     11  C6  MIY d         -15.999  12.549  15.099  0.00  0.00     0.020 C 
ATOM     12  C15 MIY d         -18.513  12.637  18.016  0.00  0.00     0.194 C 
ATOM     13  O5  MIY d         -18.612  13.184  19.161  0.00  0.00    -0.287 OA
ATOM     14  C14 MIY d         -19.662  11.933  17.364  0.00  0.00     0.056 A 
ATOM     15  C9  MIY d         -19.644  11.715  15.988  0.00  0.00    -0.019 A 
ATOM     16  C8  MIY d         -18.473  12.227  15.165  0.00  0.00     0.051 C 
ATOM     17  C13 MIY d         -20.722  11.466  18.131  0.00  0.00     0.080 A 
ATOM     18  C12 MIY d         -21.779  10.795  17.509  0.00  0.00     0.039 A 
ATOM     19  C11 MIY d         -21.772  10.591  16.133  0.00  0.00     0.027 A 
ATOM     20  C10 MIY d         -20.695  11.047  15.360  0.00  0.00     0.017 A 
ENDROOT
BRANCH   1  21
ATOM     21  C21 MIY d         -13.047  16.600  15.724  0.00  0.00     0.229 C 
ATOM     22  O8  MIY d         -13.709  17.504  15.170  0.00  0.00    -0.273 OA
ATOM     23  N2  MIY d         -11.829  16.856  16.209  0.00  0.00    -0.369 N 
ATOM     24  H1  MIY d         -11.304  16.129  16.651  0.00  0.00     0.159 HD
ATOM     25  H2  MIY d         -11.442  17.775  16.130  0.00  0.00     0.159 HD
ENDBRANCH   1  21
BRANCH   4  26
ATOM     26  O2  MIY d         -13.012  14.787  13.714  0.00  0.00    -0.392 OA
ATOM     27  H5  MIY d         -12.751  14.061  13.160  0.00  0.00     0.210 HD
ENDBRANCH   4  26
BRANCH   7  28
ATOM     28  O7  MIY d         -13.871  13.347  18.032  0.00  0.00    -0.375 OA
ATOM     29  H15 MIY d         -13.947  13.954  18.759  0.00  0.00     0.211 HD
ENDBRANCH   7  28
BRANCH   5  30
ATOM     30  N1  MIY d         -12.188  12.360  15.729  0.00  0.00    -0.072 N 
ATOM     31  C20 MIY d         -12.250  10.889  15.792  0.00  0.00     0.269 C 
ATOM     32  C19 MIY d         -11.783  12.830  17.064  0.00  0.00     0.269 C 
ATOM     33  H7  MIY d         -11.466  12.634  15.081  0.00  0.00     0.279 HD
ENDBRANCH   5  30
BRANCH   8  34
ATOM     34  O6  MIY d         -16.357  14.015  19.004  0.00  0.00    -0.361 OA
ATOM     35  H16 MIY d         -17.224  13.855  19.358  0.00  0.00     0.217 HD
ENDBRANCH   8  34
BRANCH  17  36
ATOM     36  O4  MIY d         -20.744  11.673  19.446  0.00  0.00    -0.360 OA
ATOM     37  H22 MIY d         -20.733  12.607  19.619  0.00  0.00     0.217 HD
ENDBRANCH  17  36
BRANCH  20  38
ATOM     38  N7  MIY d         -20.656  10.858  13.962  0.00  0.00    -0.291 NA
ATOM     39  CN7 MIY d         -20.982  12.114  13.292  0.00  0.00     0.116 C 
ATOM     40  C71 MIY d         -21.586   9.845  13.476  0.00  0.00     0.116 C 
ENDBRANCH  20  38
TORSDOF 7
