REMARK  15 active torsions:
REMARK  status: ('A' for Active; 'I' for Inactive)
REMARK    1  A    between atoms: N3_29  and  C26_5 
REMARK    2  A    between atoms: C16_9  and  C15_12 
REMARK    3  A    between atoms: C18_33  and  C16_9 
REMARK    4  A    between atoms: C16_9  and  N4_34 
REMARK    5  A    between atoms: C15_12  and  C17_10 
REMARK    6  A    between atoms: C17_10  and  C32_35 
REMARK       I    between atoms: C20_11  and  N3_29 
REMARK    7  A    between atoms: C19_31  and  C20_11 
REMARK    8  A    between atoms: C15_12  and  N2_38 
REMARK    9  A    between atoms: C12_13  and  C5_22 
REMARK       I    between atoms: N2_38  and  C12_13 
REMARK   10  A    between atoms: C8_19  and  C11_16 
REMARK   11  A    between atoms: C9_18  and  C10_17 
REMARK   12  A    between atoms: N1_41  and  C9_18 
REMARK   13  A    between atoms: N1_41  and  C8_19 
REMARK   14  A    between atoms: C3_24  and  C7_20 
REMARK       I    between atoms: C7_20  and  N1_41 
REMARK   15  A    between atoms: C19_31  and  C18_33 
ROOT
ATOM      1  C15 FRP d          10.119  -3.029  48.310  0.00  0.00     0.119 C 
ENDROOT
BRANCH   1   2
ATOM      2  C16 FRP d          11.370  -3.139  47.428  0.00  0.00     0.207 C 
BRANCH   2   3
ATOM      3  C18 FRP d          12.566  -2.411  48.043  0.00  0.00     0.048 C 
BRANCH   3   4
ATOM      4  C19 FRP d          13.894  -3.129  47.820  0.00  0.00     0.076 C 
ATOM      5  C21 FRP d          15.050  -2.136  47.910  0.00  0.00     0.020 C 
BRANCH   4   6
ATOM      6  C20 FRP d          14.104  -4.223  48.831  0.00  0.00     0.226 C 
ATOM      7  N3  FRP d          14.646  -5.345  48.345  0.00  0.00    -0.327 N 
ATOM      8  H30 FRP d          14.852  -5.344  47.366  0.00  0.00     0.169 HD
ATOM      9  O3  FRP d          13.796  -4.046  49.996  0.00  0.00    -0.273 OA
BRANCH   7  10
ATOM     10  C26 FRP d          14.953  -6.492  49.019  0.00  0.00     0.034 A 
ATOM     11  C27 FRP d          14.732  -6.662  50.387  0.00  0.00     0.032 A 
ATOM     12  C22 FRP d          15.076  -7.862  51.010  0.00  0.00     0.044 A 
ATOM     13  C23 FRP d          15.642  -8.899  50.273  0.00  0.00     0.116 A 
ATOM     14  C24 FRP d          15.869  -8.737  48.910  0.00  0.00     0.044 A 
ATOM     15  F1  FRP d          15.974 -10.053  50.879  0.00  0.00    -0.206 F 
ATOM     16  C25 FRP d          15.522  -7.539  48.292  0.00  0.00     0.032 A 
ENDBRANCH   7  10
ENDBRANCH   4   6
ENDBRANCH   3   4
ENDBRANCH   2   3
BRANCH   2  17
ATOM     17  N4  FRP d          11.100  -2.630  46.098  0.00  0.00    -0.073 N 
ATOM     18  H37 FRP d          10.310  -3.118  45.705  0.00  0.00     0.274 HD
ATOM     19  H38 FRP d          11.908  -2.773  45.513  0.00  0.00     0.274 HD
ATOM     20  H39 FRP d          10.893  -1.645  46.151  0.00  0.00     0.274 HD
ENDBRANCH   2  17
ENDBRANCH   1   2
BRANCH   1  21
ATOM     21  C17 FRP d           8.924  -3.769  47.691  0.00  0.00     0.065 C 
BRANCH  21  22
ATOM     22  C32 FRP d           7.601  -3.513  48.395  0.00  0.00    -0.056 A 
ATOM     23  C31 FRP d           6.436  -3.443  47.633  0.00  0.00     0.007 A 
ATOM     24  C30 FRP d           5.203  -3.214  48.244  0.00  0.00     0.001 A 
ATOM     25  C29 FRP d           5.125  -3.053  49.627  0.00  0.00     0.000 A 
ATOM     26  C28 FRP d           6.286  -3.124  50.396  0.00  0.00     0.001 A 
ATOM     27  C33 FRP d           7.518  -3.359  49.783  0.00  0.00     0.007 A 
ENDBRANCH  21  22
ENDBRANCH   1  21
BRANCH   1  28
ATOM     28  N2  FRP d           9.712  -1.626  48.413  0.00  0.00    -0.350 N 
ATOM     29  C12 FRP d           9.980  -0.861  49.478  0.00  0.00     0.252 C 
ATOM     30  O2  FRP d          10.600  -1.274  50.447  0.00  0.00    -0.268 OA
ATOM     31  H42 FRP d           9.209  -1.220  47.650  0.00  0.00     0.163 HD
BRANCH  29  32
ATOM     32  C5  FRP d           9.481   0.554  49.483  0.00  0.00     0.033 A 
ATOM     33  C4  FRP d           8.356   0.852  48.726  0.00  0.00     0.034 A 
ATOM     34  C3  FRP d           7.826   2.137  48.707  0.00  0.00     0.033 A 
ATOM     35  C2  FRP d           8.439   3.152  49.441  0.00  0.00     0.017 A 
ATOM     36  C1  FRP d           9.570   2.858  50.208  0.00  0.00     0.002 A 
ATOM     37  C6  FRP d          10.091   1.561  50.234  0.00  0.00     0.017 A 
BRANCH  34  38
ATOM     38  C7  FRP d           6.620   2.368  47.844  0.00  0.00     0.253 C 
ATOM     39  O1  FRP d           6.785   3.006  46.819  0.00  0.00    -0.267 OA
ATOM     40  N1  FRP d           5.419   1.861  48.156  0.00  0.00    -0.348 N 
BRANCH  40  41
ATOM     41  C9  FRP d           4.271   2.073  47.278  0.00  0.00     0.125 C 
BRANCH  41  42
ATOM     42  C10 FRP d           4.059   0.751  46.536  0.00  0.00     0.015 C 
ATOM     43  C14 FRP d           4.977   0.606  45.341  0.00  0.00     0.006 C 
ENDBRANCH  41  42
ENDBRANCH  40  41
BRANCH  40  44
ATOM     44  C8  FRP d           5.140   1.081  49.364  0.00  0.00     0.125 C 
BRANCH  44  45
ATOM     45  C11 FRP d           4.157   1.900  50.202  0.00  0.00     0.015 C 
ATOM     46  C13 FRP d           4.843   3.000  50.984  0.00  0.00     0.006 C 
ENDBRANCH  44  45
ENDBRANCH  40  44
ENDBRANCH  34  38
ENDBRANCH  29  32
ENDBRANCH   1  28
TORSDOF 15
