REMARK  5 active torsions:
REMARK  status: ('A' for Active; 'I' for Inactive)
REMARK    1  A    between atoms: C2'_3  and  O2'_4 
REMARK    2  A    between atoms: C3'_5  and  O3'_6 
REMARK    3  A    between atoms: C4'_7  and  C5'_8 
REMARK    4  A    between atoms: C5'_8  and  O5'_9 
REMARK    5  A    between atoms: O5'_9  and  P'_10 
ROOT
ATOM      1  C1' ROB d           6.720  -9.237  43.119  0.00  0.00     0.202 C 
ATOM      2  O1' ROB d           5.687 -10.177  42.850  0.00  0.00    -0.378 OA
ATOM      3  C2' ROB d           6.007  -8.240  44.060  0.00  0.00     0.173 C 
ATOM      4  C3' ROB d           4.663  -8.081  43.351  0.00  0.00     0.180 C 
ATOM      5  C4' ROB d           4.351  -9.563  43.009  0.00  0.00     0.177 C 
ENDROOT
BRANCH   5   6
ATOM      6  C5' ROB d           3.547  -9.918  41.705  0.00  0.00     0.217 C 
BRANCH   6   7
ATOM      7  O5' ROB d           2.675  -8.899  41.219  0.00  0.00    -0.280 OA
BRANCH   7   8
ATOM      8  P'  ROB d           3.122  -7.676  40.233  0.00  0.00     0.422 P 
ATOM      9  O1P ROB d           4.304  -8.103  39.238  0.00  0.00    -0.617 OA
ATOM     10  O2P ROB d           3.615  -6.491  41.110  0.00  0.00    -0.617 OA
ATOM     11  O3P ROB d           1.854  -7.141  39.432  0.00  0.00    -0.617 OA
ENDBRANCH   7   8
ENDBRANCH   6   7
ENDBRANCH   5   6
BRANCH   4  12
ATOM     12  O3' ROB d           3.665  -7.454  44.094  0.00  0.00    -0.390 OA
ATOM     13  H6  ROB d           2.871  -7.401  43.575  0.00  0.00     0.210 HD
ENDBRANCH   4  12
BRANCH   3  14
ATOM     14  O2' ROB d           6.736  -6.993  44.123  0.00  0.00    -0.391 OA
ATOM     15  H4  ROB d           6.285  -6.393  44.705  0.00  0.00     0.210 HD
ENDBRANCH   3  14
TORSDOF 5
