REMARK  8 active torsions:
REMARK  status: ('A' for Active; 'I' for Inactive)
REMARK    1  A    between atoms: C1_1  and  C2_3 
REMARK    2  A    between atoms: C2_3  and  C3_4 
REMARK    3  A    between atoms: C3_4  and  C4_5 
REMARK    4  A    between atoms: C4_5  and  C5_6 
REMARK    5  A    between atoms: C5_6  and  C6_7 
REMARK    6  A    between atoms: C6_7  and  C7_8 
REMARK    7  A    between atoms: C7_8  and  C8_9 
REMARK    8  A    between atoms: C8_9  and  C9_10 
ROOT
ATOM      1  C4  DKA d           6.635 -19.203  -4.406  0.00  0.00     0.027 C 
ENDROOT
BRANCH   1   2
ATOM      2  C3  DKA d           6.829 -18.028  -3.488  0.00  0.00    -0.020 C 
BRANCH   2   3
ATOM      3  C2  DKA d           5.631 -17.633  -2.726  0.00  0.00     0.080 C 
BRANCH   3   4
ATOM      4  C1  DKA d           5.786 -16.509  -1.732  0.00  0.00     0.198 C 
ATOM      5  O1  DKA d           6.856 -15.867  -1.678  0.00  0.00    -0.645 OA
ATOM      6  O2  DKA d           4.797 -16.256  -0.976  0.00  0.00    -0.645 OA
ENDBRANCH   3   4
ENDBRANCH   2   3
ENDBRANCH   1   2
BRANCH   1   7
ATOM      7  C5  DKA d           7.938 -19.745  -4.979  0.00  0.00     0.004 C 
BRANCH   7   8
ATOM      8  C6  DKA d           7.738 -20.799  -6.067  0.00  0.00     0.000 C 
BRANCH   8   9
ATOM      9  C7  DKA d           6.930 -21.997  -5.669  0.00  0.00     0.000 C 
BRANCH   9  10
ATOM     10  C8  DKA d           7.511 -22.804  -4.572  0.00  0.00    -0.000 C 
BRANCH  10  11
ATOM     11  C9  DKA d           6.671 -23.998  -4.116  0.00  0.00    -0.005 C 
ATOM     12  C10 DKA d           7.316 -24.809  -2.996  0.00  0.00     0.005 C 
ENDBRANCH  10  11
ENDBRANCH   9  10
ENDBRANCH   8   9
ENDBRANCH   7   8
ENDBRANCH   1   7
TORSDOF 8
