REMARK  11 active torsions:
REMARK  status: ('A' for Active; 'I' for Inactive)
REMARK    1  A    between atoms: C7_8  and  C8_9 
REMARK    2  A    between atoms: C12_15  and  C20_25 
REMARK    3  A    between atoms: C20_25  and  C21_27 
REMARK    4  A    between atoms: C20_25  and  O4_26 
REMARK    5  A    between atoms: C21_27  and  N3_28 
REMARK    6  A    between atoms: N3_28  and  S_34 
REMARK    7  A    between atoms: N3_28  and  C22_29 
REMARK    8  A    between atoms: C22_29  and  C23_30 
REMARK    9  A    between atoms: C23_30  and  C24_31 
REMARK   10  A    between atoms: S_34  and  C27_37 
REMARK   11  A    between atoms: C30_42  and  N4_43 
ROOT
ATOM      1  C4  PI9 d           5.151   4.324   9.072  0.00  0.00     0.009 C 
ATOM      2  C5  PI9 d           3.679   4.276   9.394  0.00  0.00     0.103 C 
ATOM      3  C6  PI9 d           3.400   3.617  10.733  0.00  0.00     0.218 C 
ATOM      4  O1  PI9 d           3.339   4.303  11.743  0.00  0.00    -0.274 OA
ATOM      5  C3  PI9 d           5.469   3.248   8.075  0.00  0.00     0.002 C 
ATOM      6  C2  PI9 d           6.759   3.508   7.336  0.00  0.00     0.027 C 
ATOM      7  N1  PI9 d           3.285   2.290  10.758  0.00  0.00    -0.347 N 
ATOM      8  C7  PI9 d           2.989   1.571  12.009  0.00  0.00     0.179 C 
ATOM      9  C11 PI9 d           4.076   0.584  12.474  0.00  0.00     0.241 C 
ATOM     10  O2  PI9 d           4.276  -0.477  11.862  0.00  0.00    -0.271 OA
ATOM     11  N2  PI9 d           4.762   0.937  13.559  0.00  0.00    -0.352 N 
ATOM     12  C12 PI9 d           5.828   0.083  14.130  0.00  0.00     0.119 C 
ATOM     13  C13 PI9 d           7.172   0.823  14.093  0.00  0.00     0.066 C 
ATOM     14  C14 PI9 d           7.503   1.394  12.725  0.00  0.00    -0.056 A 
ATOM     15  C15 PI9 d           7.443   2.760  12.501  0.00  0.00     0.010 A 
ATOM     16  C16 PI9 d           7.732   3.291  11.283  0.00  0.00     0.037 A 
ATOM     17  C19 PI9 d           7.867   0.565  11.659  0.00  0.00     0.010 A 
ATOM     18  C18 PI9 d           8.158   1.090  10.422  0.00  0.00     0.037 A 
ATOM     19  C17 PI9 d           8.090   2.459  10.251  0.00  0.00     0.068 A 
ATOM     20  O3  PI9 d           8.387   3.054   9.062  0.00  0.00    -0.351 OA
ATOM     21  C1  PI9 d           7.855   2.587   7.838  0.00  0.00     0.175 C 
ATOM     22  H9  PI9 d           3.402   1.772   9.911  0.00  0.00     0.163 HD
ATOM     23  H18 PI9 d           4.550   1.808  14.003  0.00  0.00     0.163 HD
ENDROOT
BRANCH  12  24
ATOM     24  C20 PI9 d           5.482  -0.344  15.562  0.00  0.00     0.159 C 
BRANCH  24  25
ATOM     25  C21 PI9 d           6.466  -1.397  16.079  0.00  0.00     0.169 C 
BRANCH  25  26
ATOM     26  N3  PI9 d           6.275  -2.717  15.453  0.00  0.00    -0.304 N 
BRANCH  26  27
ATOM     27  S   PI9 d           7.478  -3.332  14.510  0.00  0.00     0.260 S 
ATOM     28  O5  PI9 d           6.882  -4.189  13.494  0.00  0.00    -0.200 OA
ATOM     29  O6  PI9 d           8.200  -2.234  13.874  0.00  0.00    -0.200 OA
BRANCH  27  30
ATOM     30  C27 PI9 d           8.516  -4.196  15.448  0.00  0.00     0.079 A 
ATOM     31  C28 PI9 d           8.308  -5.544  15.701  0.00  0.00     0.027 A 
ATOM     32  C29 PI9 d           9.131  -6.226  16.598  0.00  0.00     0.030 A 
ATOM     33  C30 PI9 d          10.168  -5.549  17.229  0.00  0.00     0.025 A 
ATOM     34  C31 PI9 d          10.384  -4.214  16.974  0.00  0.00     0.030 A 
ATOM     35  C32 PI9 d           9.559  -3.547  16.084  0.00  0.00     0.027 A 
BRANCH  33  36
ATOM     36  N4  PI9 d          10.971  -6.175  18.159  0.00  0.00    -0.399 N 
ATOM     37  H47 PI9 d          11.734  -5.654  18.614  0.00  0.00     0.156 HD
ATOM     38  H48 PI9 d          10.808  -7.163  18.398  0.00  0.00     0.156 HD
ENDBRANCH  33  36
ENDBRANCH  27  30
ENDBRANCH  26  27
BRANCH  26  39
ATOM     39  C22 PI9 d           5.421  -3.630  16.226  0.00  0.00     0.136 C 
BRANCH  39  40
ATOM     40  C23 PI9 d           4.149  -3.713  15.402  0.00  0.00     0.024 C 
BRANCH  40  41
ATOM     41  C24 PI9 d           3.170  -4.792  15.875  0.00  0.00    -0.021 C 
ATOM     42  C25 PI9 d           1.947  -4.843  14.968  0.00  0.00     0.009 C 
ATOM     43  C26 PI9 d           2.798  -4.516  17.324  0.00  0.00     0.009 C 
ENDBRANCH  40  41
ENDBRANCH  39  40
ENDBRANCH  26  39
ENDBRANCH  25  26
ENDBRANCH  24  25
BRANCH  24  44
ATOM     44  O4  PI9 d           5.531   0.792  16.426  0.00  0.00    -0.392 OA
ATOM     45  H29 PI9 d           4.923   1.452  16.114  0.00  0.00     0.210 HD
ENDBRANCH  24  44
ENDBRANCH  12  24
BRANCH   8  46
ATOM     46  C8  PI9 d           1.630   0.835  11.909  0.00  0.00     0.009 C 
ATOM     47  C9  PI9 d           0.490   1.841  11.762  0.00  0.00     0.012 C 
ATOM     48  C10 PI9 d           1.408  -0.030  13.137  0.00  0.00     0.012 C 
ENDBRANCH   8  46
TORSDOF 11
