2qrp_ligand

Created by X-TOOL on Fri Sep 26 17:34:40 2014
 44 47  0  0  0  0  0  0  0  0999 V2000
   36.2690   24.6150   30.4880  C 0  0  0  2  0  3
   36.9200   25.1130   31.6240  C 0  0  0  1  0  3
   38.2910   25.3550   31.5810  C 0  0  0  2  0  3
   38.9300   25.8500   32.7220  C 0  0  0  2  0  3
   38.2130   26.1050   33.8940  C 0  0  0  2  0  3
   36.8410   25.8670   33.9390  C 0  0  0  2  0  3
   36.1980   25.3730   32.7990  C 0  0  0  1  0  3
   34.8280   25.1280   32.8400  C 0  0  0  2  0  3
   34.1850   24.6370   31.7040  C 0  0  0  2  0  3
   34.8970   24.3690   30.5300  C 0  0  0  1  0  3
   34.2170   23.8950   29.4030  C 0  0  0  1  0  3
   34.8140   23.2020   28.1810  C 0  0  0  3  0  4
   32.9080   24.0230   29.2040  N 0  0  0  1  0  2
   32.4780   23.4740   27.9610  O 0  0  0  1  0  2
   33.5790   22.7290   27.4130  C 0  0  0  1  0  4
   33.3860   21.3180   27.6420  O 0  0  0  1  0  2
   32.1730   20.7930   27.0250  C 0  0  0  2  0  4
   32.0140   19.3370   27.4590  C 0  0  0  3  0  4
   33.0630   18.5510   26.8780  O 0  0  0  2  0  2
   32.2790   20.9650   25.4970  C 0  0  0  2  0  4
   31.1080   20.4510   24.8440  O 0  0  0  2  0  2
   32.4960   22.4410   25.1320  C 0  0  0  2  0  4
   32.7230   22.5600   23.7220  O 0  0  0  2  0  2
   33.7070   23.0090   25.9020  C 0  0  0  2  0  4
   33.8470   24.4170   25.6640  O 0  0  0  2  0  2
   36.8292   24.4217   29.5803  H 0  0  0  1  0  1
   38.8549   25.1623   30.6755  H 0  0  0  1  0  1
   39.9972   26.0387   32.6970  H 0  0  0  1  0  1
   38.7249   26.4885   34.7692  H 0  0  0  1  0  1
   36.2792   26.0620   34.8453  H 0  0  0  1  0  1
   34.2659   25.3173   33.7473  H 0  0  0  1  0  1
   33.1159   24.4601   31.7312  H 0  0  0  1  0  1
   35.4441   22.3508   28.4782  H 0  0  0  1  0  1
   35.4080   23.9054   27.5790  H 0  0  0  1  0  1
   31.3023   21.3633   27.3809  H 0  0  0  1  0  1
   31.0392   18.9569   27.1194  H 0  0  0  1  0  1
   32.0710   19.2723   28.5556  H 0  0  0  1  0  1
   33.9041   18.8806   27.1719  H 0  0  0  1  0  1
   33.1492   20.3913   25.1456  H 0  0  0  1  0  1
   31.1939   20.5667   23.9050  H 0  0  0  1  0  1
   31.5971   23.0141   25.4030  H 0  0  0  1  0  1
   31.9683   22.2258   23.2515  H 0  0  0  1  0  1
   34.6135   22.5058   25.5344  H 0  0  0  1  0  1
   33.0613   24.8656   25.9537  H 0  0  0  1  0  1
  1  2  4  0  0  1
  1 10  4  0  0  1
  2  3  4  0  0  1
  2  7  4  0  0  1
  3  4  4  0  0  1
  4  5  4  0  0  1
  5  6  4  0  0  1
  6  7  4  0  0  1
  7  8  4  0  0  1
  8  9  4  0  0  1
  9 10  4  0  0  1
 10 11  1  0  0  2
 11 12  1  0  0  1
 11 13  2  0  0  1
 12 15  1  0  0  1
 13 14  1  0  0  1
 14 15  1  0  0  1
 15 16  1  0  0  1
 15 24  1  0  0  1
 16 17  1  0  0  1
 17 18  1  0  0  2
 17 20  1  0  0  1
 18 19  1  0  0  2
 20 21  1  0  0  2
 20 22  1  0  0  1
 22 23  1  0  0  2
 22 24  1  0  0  1
 24 25  1  0  0  2
  1 26  1  0  0  2
  3 27  1  0  0  2
  4 28  1  0  0  2
  5 29  1  0  0  2
  6 30  1  0  0  2
  8 31  1  0  0  2
  9 32  1  0  0  2
 12 33  1  0  0  2
 12 34  1  0  0  2
 17 35  1  0  0  2
 18 36  1  0  0  2
 18 37  1  0  0  2
 19 38  1  0  0  2
 20 39  1  0  0  2
 21 40  1  0  0  2
 22 41  1  0  0  2
 23 42  1  0  0  2
 24 43  1  0  0  2
 25 44  1  0  0  2
M  END
> <MOLECULAR_FORMULA>
C18H19NO6

> <MOLECULAR_WEIGHT>
345.2

> <NUM_HB_ATOMS>
7  

> <NUM_ROTOR>
1  

> <XLOGP2>
1.36 

$$$$
