REMARK  5 active torsions:
REMARK  status: ('A' for Active; 'I' for Inactive)
REMARK    1  A    between atoms: O_1  and  C9_2 
REMARK    2  A    between atoms: C9_2  and  C8_3 
REMARK    3  A    between atoms: C9_2  and  P1_13 
REMARK    4  A    between atoms: C9_2  and  P2_17 
REMARK    5  A    between atoms: C8_3  and  C2_4 
ROOT
ATOM      1  C9  M0N d          28.891  45.984   5.855  0.00  0.00     0.290 C 
ENDROOT
BRANCH   1   2
ATOM      2  O   M0N d          29.147  47.349   5.509  0.00  0.00    -0.365 OA
ATOM      3  H1  M0N d          28.689  47.919   6.115  0.00  0.00     0.212 HD
ENDBRANCH   1   2
BRANCH   1   4
ATOM      4  C8  M0N d          29.425  45.676   7.253  0.00  0.00     0.127 C 
BRANCH   4   5
ATOM      5  C2  M0N d          28.943  46.695   8.296  0.00  0.00     0.039 A 
ATOM      6  C1  M0N d          28.422  47.899   8.111  0.00  0.00     0.144 A 
ATOM      7  N1  M0N d          28.122  48.437   9.296  0.00  0.00    -0.241 NA
ATOM      8  C7  M0N d          28.451  47.592  10.270  0.00  0.00     0.133 A 
ATOM      9  C6  M0N d          28.372  47.669  11.654  0.00  0.00     0.051 A 
ATOM     10  N2  M0N d          28.991  46.449   9.668  0.00  0.00    -0.309 N 
ATOM     11  C5  M0N d          28.828  46.613  12.436  0.00  0.00     0.005 A 
ATOM     12  C4  M0N d          29.363  45.474  11.837  0.00  0.00     0.018 A 
ATOM     13  C3  M0N d          29.450  45.382  10.456  0.00  0.00     0.099 A 
ENDBRANCH   4   5
ENDBRANCH   1   4
BRANCH   1  14
ATOM     14  P1  M0N d          29.804  44.907   4.645  0.00  0.00     0.310 P 
ATOM     15  O2  M0N d          29.408  45.192   3.250  0.00  0.00    -0.637 OA
ATOM     16  O3  M0N d          31.375  45.148   4.907  0.00  0.00    -0.637 OA
ATOM     17  O1  M0N d          29.503  43.411   5.149  0.00  0.00    -0.637 OA
ENDBRANCH   1  14
BRANCH   1  18
ATOM     18  P2  M0N d          27.070  45.602   5.710  0.00  0.00     0.310 P 
ATOM     19  O5  M0N d          26.901  44.058   6.138  0.00  0.00    -0.637 OA
ATOM     20  O6  M0N d          26.744  45.652   4.138  0.00  0.00    -0.637 OA
ATOM     21  O4  M0N d          26.222  46.538   6.480  0.00  0.00    -0.637 OA
ENDBRANCH   1  18
TORSDOF 5
