REMARK  17 active torsions:
REMARK  status: ('A' for Active; 'I' for Inactive)
REMARK       I    between atoms: C_7  and  N4_4 
REMARK       I    between atoms: N_9  and  C_7 
REMARK    1  A    between atoms: CA_10  and  N_9 
REMARK    2  A    between atoms: CA_10  and  CB_13 
REMARK    3  A    between atoms: C_11  and  CA_10 
REMARK       I    between atoms: N_20  and  C_11 
REMARK    4  A    between atoms: CB_13  and  CG_14 
REMARK    5  A    between atoms: CA_21  and  N_20 
REMARK    6  A    between atoms: C_22  and  CA_21 
REMARK    7  A    between atoms: CA_21  and  CB_24 
REMARK       I    between atoms: N_28  and  C_22 
REMARK    8  A    between atoms: CB_24  and  CG_25 
REMARK    9  A    between atoms: CG_25  and  CD_26 
REMARK   10  A    between atoms: CA_29  and  N_28 
REMARK   11  A    between atoms: CA_29  and  CB_30 
REMARK   12  A    between atoms: CH_37  and  CA_29 
REMARK   13  A    between atoms: CB_30  and  CG_31 
REMARK   14  A    between atoms: CH_37  and  OH1_38 
REMARK   15  A    between atoms: CH_37  and  OH2_39 
REMARK   16  A    between atoms: CM_40  and  CH_37 
REMARK   17  A    between atoms: C_43  and  CM_40 
REMARK       I    between atoms: C_43  and  N_45 
ROOT
ATOM      1  CA  MOL d          34.424  -9.612   0.295  0.00  0.00     0.176 C 
ENDROOT
BRANCH   1   2
ATOM      2  N   MOL d          34.824  -8.526  -0.640  0.00  0.00    -0.346 N 
ATOM      3  C   MOL d          33.858  -7.898  -1.378  0.00  0.00     0.241 C 
ATOM      4  O   MOL d          32.732  -8.185  -1.268  0.00  0.00    -0.271 OA
ATOM      5  H18 MOL d          35.784  -8.259  -0.728  0.00  0.00     0.163 HD
BRANCH   3   6
ATOM      6  CA  MOL d          34.432  -6.805  -2.325  0.00  0.00     0.182 C 
BRANCH   6   7
ATOM      7  N   MOL d          33.617  -6.707  -3.578  0.00  0.00    -0.329 N 
ATOM      8  C   MOL d          33.637  -7.620  -4.527  0.00  0.00     0.319 C 
ATOM      9  N4  MOL d          32.837  -7.466  -5.629  0.00  0.00    -0.330 N 
ATOM     10  O   MOL d          34.359  -8.599  -4.453  0.00  0.00    -0.247 OA
ATOM     11  C3  MOL d          32.009  -6.310  -5.715  0.00  0.00     0.153 C 
ATOM     12  C5  MOL d          32.862  -8.465  -6.683  0.00  0.00     0.153 C 
ATOM     13  C2  MOL d          30.777  -6.553  -6.356  0.00  0.00     0.187 C 
ATOM     14  O1  MOL d          30.972  -7.322  -7.567  0.00  0.00    -0.388 OA
ATOM     15  C6  MOL d          31.486  -8.641  -7.188  0.00  0.00     0.187 C 
ATOM     16  H9  MOL d          33.028  -5.908  -3.700  0.00  0.00     0.165 HD
ENDBRANCH   6   7
BRANCH   6  17
ATOM     17  CB  MOL d          34.226  -5.456  -1.528  0.00  0.00     0.073 C 
BRANCH  17  18
ATOM     18  CG  MOL d          35.045  -4.395  -2.262  0.00  0.00    -0.056 A 
ATOM     19  CD1 MOL d          36.383  -4.538  -2.441  0.00  0.00     0.007 A 
ATOM     20  CE1 MOL d          37.165  -3.605  -3.106  0.00  0.00     0.001 A 
ATOM     21  CZ  MOL d          36.499  -2.473  -3.638  0.00  0.00     0.000 A 
ATOM     22  CE2 MOL d          35.144  -2.349  -3.473  0.00  0.00     0.001 A 
ATOM     23  CD2 MOL d          34.363  -3.267  -2.811  0.00  0.00     0.007 A 
ENDBRANCH  17  18
ENDBRANCH   6  17
ENDBRANCH   3   6
ENDBRANCH   1   2
BRANCH   1  24
ATOM     24  C   MOL d          35.527  -9.638   1.414  0.00  0.00     0.240 C 
ATOM     25  O   MOL d          36.596 -10.145   1.175  0.00  0.00    -0.271 OA
ATOM     26  N   MOL d          35.196  -9.045   2.509  0.00  0.00    -0.349 N 
ATOM     27  H29 MOL d          34.244  -8.770   2.647  0.00  0.00     0.163 HD
BRANCH  26  28
ATOM     28  CA  MOL d          36.207  -8.756   3.586  0.00  0.00     0.154 C 
BRANCH  28  29
ATOM     29  CB  MOL d          36.666  -7.354   3.636  0.00  0.00     0.035 C 
BRANCH  29  30
ATOM     30  CG  MOL d          36.975  -6.604   2.370  0.00  0.00    -0.012 C 
ATOM     31  CD1 MOL d          38.207  -7.016   1.690  0.00  0.00     0.005 C 
ATOM     32  CE1 MOL d          38.676  -6.270   0.453  0.00  0.00     0.000 C 
ATOM     33  CZ  MOL d          38.602  -4.758   0.724  0.00  0.00     0.000 C 
ATOM     34  CE2 MOL d          37.310  -4.343   1.273  0.00  0.00     0.000 C 
ATOM     35  CD2 MOL d          36.810  -5.114   2.484  0.00  0.00     0.005 C 
ENDBRANCH  29  30
ENDBRANCH  28  29
BRANCH  28  36
ATOM     36  CH  MOL d          35.675  -9.317   4.905  0.00  0.00     0.258 C 
BRANCH  36  37
ATOM     37  OH1 MOL d          34.364  -8.757   5.247  0.00  0.00    -0.359 OA
ATOM     38  H44 MOL d          34.430  -7.811   5.305  0.00  0.00     0.213 HD
ENDBRANCH  36  37
BRANCH  36  39
ATOM     39  OH2 MOL d          36.507  -8.924   5.936  0.00  0.00    -0.359 OA
ATOM     40  H45 MOL d          36.178  -9.272   6.757  0.00  0.00     0.213 HD
ENDBRANCH  36  39
BRANCH  36  41
ATOM     41  CM  MOL d          35.591 -10.848   4.937  0.00  0.00     0.379 C 
ATOM     42  F1  MOL d          35.104 -11.296   3.841  0.00  0.00    -0.189 F 
ATOM     43  F2  MOL d          34.710 -11.281   5.853  0.00  0.00    -0.189 F 
BRANCH  41  44
ATOM     44  C   MOL d          36.910 -11.465   5.260  0.00  0.00     0.295 C 
ATOM     45  O   MOL d          37.781 -11.821   4.416  0.00  0.00    -0.267 OA
ATOM     46  N   MOL d          37.172 -11.783   6.555  0.00  0.00    -0.360 N 
ATOM     47  CH3 MOL d          38.509 -12.419   6.812  0.00  0.00     0.149 C 
ATOM     48  H46 MOL d          36.517 -11.605   7.290  0.00  0.00     0.162 HD
ENDBRANCH  41  44
ENDBRANCH  36  41
ENDBRANCH  28  36
ENDBRANCH  26  28
ENDBRANCH   1  24
BRANCH   1  49
ATOM     49  CB  MOL d          34.511 -10.962  -0.472  0.00  0.00     0.035 C 
BRANCH  49  50
ATOM     50  CG  MOL d          34.202 -12.149   0.411  0.00  0.00     0.002 C 
BRANCH  50  51
ATOM     51  CD  MOL d          33.471 -13.318  -0.194  0.00  0.00    -0.004 C 
ATOM     52  CE  MOL d          34.033 -13.821  -1.467  0.00  0.00     0.005 C 
ENDBRANCH  50  51
ENDBRANCH  49  50
ENDBRANCH   1  49
TORSDOF 17
