REMARK  1 active torsions:
REMARK  status: ('A' for Active; 'I' for Inactive)
REMARK    1  A    between atoms: N2_2  and  C4_4 
ROOT
ATOM      1  C4  MOL d           9.989   7.705  39.345  0.00  0.00     0.105 A 
ATOM      2  C5  MOL d           8.958   6.783  39.305  0.00  0.00     0.038 A 
ATOM      3  C6  MOL d           8.871   5.791  40.253  0.00  0.00     0.034 A 
ATOM      4  C7  MOL d           9.823   5.711  41.259  0.00  0.00     0.062 A 
ATOM      5  N8  MOL d          10.018   4.861  42.337  0.00  0.00    -0.349 N 
ATOM      6  C9  MOL d          11.137   5.285  42.987  0.00  0.00     0.208 A 
ATOM      7  N10 MOL d          11.637   6.326  42.388  0.00  0.00    -0.242 NA
ATOM      8  C11 MOL d          10.872   6.646  41.307  0.00  0.00     0.087 A 
ATOM      9  C12 MOL d          10.945   7.646  40.334  0.00  0.00     0.070 A 
ATOM     10  H   MOL d           9.427   4.059  42.597  0.00  0.00     0.167 HD
ENDROOT
BRANCH   1  11
ATOM     11  N2  MOL d          10.073   8.760  38.309  0.00  0.00    -0.116 N 
ATOM     12  O1  MOL d          10.980   9.574  38.341  0.00  0.00    -0.532 OA
ATOM     13  O3  MOL d           9.251   8.799  37.413  0.00  0.00    -0.532 OA
ENDBRANCH   1  11
TORSDOF 1
