REMARK  6 active torsions:
REMARK  status: ('A' for Active; 'I' for Inactive)
REMARK    1  A    between atoms: C3_3  and  O3_4 
REMARK    2  A    between atoms: C4_5  and  O4_6 
REMARK    3  A    between atoms: O4_6  and  C1_10 
REMARK    4  A    between atoms: C2_11  and  O2_15 
REMARK    5  A    between atoms: C3_12  and  O3_16 
REMARK    6  A    between atoms: C4_13  and  O4_17 
ROOT
ATOM      1  C1  XDL d           6.684  13.866  15.533  0.00  0.00     0.291 C 
ATOM      2  C2  XDL d           6.371  12.435  15.829  0.00  0.00     0.204 C 
ATOM      3  C3  XDL d           4.870  12.155  15.756  0.00  0.00     0.182 C 
ATOM      4  C4  XDL d           4.112  13.205  16.546  0.00  0.00     0.173 C 
ATOM      5  C5  XDL d           4.569  14.590  16.187  0.00  0.00     0.205 C 
ATOM      6  O5  XDL d           5.976  14.702  16.407  0.00  0.00    -0.356 OA
ENDROOT
BRANCH   1   7
ATOM      7  O4  XDL d           8.051  14.067  15.763  0.00  0.00    -0.350 OA
BRANCH   7   8
ATOM      8  C4  XDL d           8.511  15.358  15.339  0.00  0.00     0.164 C 
ATOM      9  C3  XDL d           9.829  15.610  16.049  0.00  0.00     0.238 C 
ATOM     10  C2  XDL d          10.482  16.899  15.566  0.00  0.00     0.249 C 
ATOM     11  N1  XDL d          10.028  17.455  14.461  0.00  0.00    -0.359 N 
ATOM     12  O2  XDL d          11.423  17.368  16.222  0.00  0.00    -0.271 OA
ATOM     13  C6  XDL d           9.040  16.897  13.521  0.00  0.00     0.125 C 
ATOM     14  H1  XDL d          10.395  18.357  14.235  0.00  0.00     0.162 HD
ATOM     15  C5  XDL d           8.745  15.448  13.854  0.00  0.00     0.055 C 
BRANCH   9  16
ATOM     16  O3  XDL d           9.614  15.652  17.429  0.00  0.00    -0.384 OA
ATOM     17  H3  XDL d           9.207  14.841  17.710  0.00  0.00     0.210 HD
ENDBRANCH   9  16
ENDBRANCH   7   8
ENDBRANCH   1   7
BRANCH   2  18
ATOM     18  O2  XDL d           7.063  11.624  14.892  0.00  0.00    -0.388 OA
ATOM     19  H15 XDL d           7.994  11.805  14.945  0.00  0.00     0.210 HD
ENDBRANCH   2  18
BRANCH   3  20
ATOM     20  O3  XDL d           4.607  10.862  16.259  0.00  0.00    -0.390 OA
ATOM     21  H16 XDL d           5.091  10.221  15.751  0.00  0.00     0.210 HD
ENDBRANCH   3  20
BRANCH   4  22
ATOM     22  O4  XDL d           2.720  13.100  16.281  0.00  0.00    -0.391 OA
ATOM     23  H17 XDL d           2.421  12.226  16.505  0.00  0.00     0.210 HD
ENDBRANCH   4  22
TORSDOF 6
