REMARK  10 active torsions:
REMARK  status: ('A' for Active; 'I' for Inactive)
REMARK    1  A    between atoms: C4_1  and  O4_13 
REMARK    2  A    between atoms: C5_2  and  C6_3 
REMARK    3  A    between atoms: C6_3  and  O6_14 
REMARK    4  A    between atoms: OAO_4  and  SAW_5 
REMARK    5  A    between atoms: CAP_24  and  OAO_4 
REMARK    6  A    between atoms: SAW_5  and  NAA_8 
REMARK    7  A    between atoms: C2_10  and  O2_9 
REMARK    8  A    between atoms: C3_11  and  O3_12 
REMARK    9  A    between atoms: SAX_17  and  C1_16 
REMARK   10  A    between atoms: NAV_20  and  SAX_17 
ROOT
ATOM      1  C4  MOL d           0.597   4.931  79.460  0.00  0.00     0.180 C 
ATOM      2  C5  MOL d           1.191   4.156  80.638  0.00  0.00     0.178 C 
ATOM      3  C2  MOL d          -1.626   5.368  80.641  0.00  0.00     0.195 C 
ATOM      4  C3  MOL d          -0.764   5.440  79.436  0.00  0.00     0.181 C 
ATOM      5  O5  MOL d           0.446   4.265  81.881  0.00  0.00    -0.356 OA
ATOM      6  C1  MOL d          -0.932   4.735  81.906  0.00  0.00     0.295 C 
ENDROOT
BRANCH   6   7
ATOM      7  SAX MOL d          -1.053   5.393  83.587  0.00  0.00     0.258 S 
ATOM      8  OAD MOL d          -2.290   6.082  83.621  0.00  0.00    -0.203 OA
ATOM      9  OAE MOL d           0.111   6.065  84.001  0.00  0.00    -0.203 OA
BRANCH   7  10
ATOM     10  NAV MOL d          -1.146   4.300  84.444  0.00  0.00    -0.306 N 
ATOM     11  CAM MOL d          -2.137   3.542  84.439  0.00  0.00     0.168 C 
ATOM     12  CAP MOL d          -1.666   2.036  84.749  0.00  0.00     0.164 C 
ATOM     13  CAK MOL d          -0.512   2.008  84.352  0.00  0.00     0.055 C 
ATOM     14  CAL MOL d           0.018   3.422  84.546  0.00  0.00     0.138 C 
BRANCH  12  15
ATOM     15  OAO MOL d          -1.775   1.866  86.214  0.00  0.00    -0.253 OA
BRANCH  15  16
ATOM     16  SAW MOL d          -2.631   0.854  86.923  0.00  0.00     0.356 S 
ATOM     17  OAB MOL d          -4.036   1.035  86.780  0.00  0.00    -0.176 OA
ATOM     18  OAC MOL d          -2.272   0.964  88.253  0.00  0.00    -0.176 OA
BRANCH  16  19
ATOM     19  NAA MOL d          -2.097  -0.531  86.383  0.00  0.00    -0.306 N 
ATOM     20  H   MOL d          -2.507  -1.385  86.705  0.00  0.00     0.171 HD
ATOM     21  H   MOL d          -1.349  -0.554  85.720  0.00  0.00     0.171 HD
ENDBRANCH  16  19
ENDBRANCH  15  16
ENDBRANCH  12  15
ENDBRANCH   7  10
ENDBRANCH   6   7
BRANCH   3  22
ATOM     22  O2  MOL d          -2.741   6.360  80.630  0.00  0.00    -0.389 OA
ATOM     23  H   MOL d          -2.382   7.238  80.587  0.00  0.00     0.210 HD
ENDBRANCH   3  22
BRANCH   4  24
ATOM     24  O3  MOL d          -0.838   6.768  78.882  0.00  0.00    -0.390 OA
ATOM     25  H   MOL d          -1.737   6.961  78.644  0.00  0.00     0.210 HD
ENDBRANCH   4  24
BRANCH   2  26
ATOM     26  C6  MOL d           1.775   2.824  80.369  0.00  0.00     0.198 C 
BRANCH  26  27
ATOM     27  O6  MOL d           1.853   1.930  81.458  0.00  0.00    -0.398 OA
ATOM     28  H   MOL d           0.980   1.765  81.794  0.00  0.00     0.209 HD
ENDBRANCH  26  27
ENDBRANCH   2  26
BRANCH   1  29
ATOM     29  O4  MOL d           0.768   4.152  78.246  0.00  0.00    -0.390 OA
ATOM     30  H   MOL d           0.627   4.710  77.490  0.00  0.00     0.210 HD
ENDBRANCH   1  29
TORSDOF 10
