REMARK  0 active torsions:
REMARK  status: ('A' for Active; 'I' for Inactive)
ROOT
ATOM      1  C1  LZ1 d          19.167   7.725  -2.112  0.00  0.00     0.061 A 
ATOM      2  C2  LZ1 d          20.226   7.081  -2.733  0.00  0.00     0.011 A 
ATOM      3  C3  LZ1 d          20.340   5.698  -2.695  0.00  0.00     0.015 A 
ATOM      4  C4  LZ1 d          19.370   4.963  -2.019  0.00  0.00     0.001 A 
ATOM      5  C5  LZ1 d          18.308   5.607  -1.409  0.00  0.00     0.002 A 
ATOM      6  C6  LZ1 d          18.194   6.987  -1.449  0.00  0.00     0.032 A 
ATOM      7  N   LZ1 d          19.333   9.027  -2.329  0.00  0.00    -0.278 N 
ATOM      8  C9  LZ1 d          20.967   8.041  -3.271  0.00  0.00     0.152 A 
ATOM      9  N2  LZ1 d          20.364   9.198  -2.996  0.00  0.00    -0.186 NA
ATOM     10  H5  LZ1 d          18.706   9.773  -1.996  0.00  0.00     0.189 HD
ENDROOT
TORSDOF 0
