REMARK  6 active torsions:
REMARK  status: ('A' for Active; 'I' for Inactive)
REMARK    1  A    between atoms: C9_4  and  N1_5 
REMARK    2  A    between atoms: C16_14  and  N15_15 
REMARK       I    between atoms: N15_15  and  C14_16 
REMARK    3  A    between atoms: C14_16  and  C22_18 
REMARK    4  A    between atoms: C22_18  and  N4_19 
REMARK    5  A    between atoms: C24_21  and  N7_24 
REMARK       I    between atoms: N7_24  and  C5_25 
REMARK    6  A    between atoms: C5_25  and  C2_27 
ROOT
ATOM      1  N15 H22 d          -5.604  10.618  21.483  0.00  0.00    -0.323 N 
ATOM      2  C14 H22 d          -5.194  11.792  20.974  0.00  0.00     0.248 C 
ATOM      3  O27 H22 d          -4.947  11.965  19.791  0.00  0.00    -0.271 OA
ATOM      4  H8  H22 d          -5.727  10.523  22.471  0.00  0.00     0.169 HD
ENDROOT
BRANCH   2   5
ATOM      5  C22 H22 d          -5.035  12.976  21.905  0.00  0.00     0.337 C 
BRANCH   5   6
ATOM      6  N4  H22 d          -4.894  12.537  23.297  0.00  0.00    -0.061 N 
ATOM      7  C20 H22 d          -3.567  11.932  23.543  0.00  0.00     0.260 C 
ATOM      8  C24 H22 d          -3.064  12.428  24.897  0.00  0.00     0.112 C 
ATOM      9  C34 H22 d          -4.150  13.373  25.400  0.00  0.00     0.054 C 
ATOM     10  C31 H22 d          -5.030  13.697  24.192  0.00  0.00     0.237 C 
ATOM     11  H11 H22 d          -5.613  11.861  23.503  0.00  0.00     0.280 HD
BRANCH   8  12
ATOM     12  N7  H22 d          -3.011  11.276  25.800  0.00  0.00    -0.350 N 
ATOM     13  C5  H22 d          -2.049  10.365  25.645  0.00  0.00     0.259 C 
ATOM     14  O24 H22 d          -1.216  10.472  24.755  0.00  0.00    -0.267 OA
ATOM     15  H19 H22 d          -3.690  11.173  26.527  0.00  0.00     0.163 HD
BRANCH  13  16
ATOM     16  C2  H22 d          -1.962   9.179  26.543  0.00  0.00     0.074 A 
ATOM     17  C12 H22 d          -2.700   8.728  27.648  0.00  0.00     0.027 A 
ATOM     18  C19 H22 d          -2.218   7.525  28.153  0.00  0.00     0.033 A 
ATOM     19  C10 H22 d          -1.128   7.124  27.391  0.00  0.00     0.075 A 
ATOM     20  S3  H22 d          -0.654   8.135  26.073  0.00  0.00    -0.072 SA
ATOM     21 CL1  H22 d          -0.183   5.574  27.708  0.00  0.00    -0.076 Cl
ENDBRANCH  13  16
ENDBRANCH   8  12
ENDBRANCH   5   6
ENDBRANCH   2   5
BRANCH   1  22
ATOM     22  C16 H22 d          -5.853   9.557  20.669  0.00  0.00     0.073 A 
ATOM     23  C17 H22 d          -4.859   9.111  19.808  0.00  0.00     0.145 A 
ATOM     24  F3  H22 d          -3.665   9.727  19.784  0.00  0.00    -0.204 F 
ATOM     25  C11 H22 d          -5.064   8.037  18.952  0.00  0.00     0.074 A 
ATOM     26  C9  H22 d          -6.282   7.384  18.952  0.00  0.00     0.044 A 
ATOM     27  C26 H22 d          -7.294   7.813  19.819  0.00  0.00     0.032 A 
ATOM     28  C28 H22 d          -7.083   8.898  20.687  0.00  0.00     0.035 A 
BRANCH  26  29
ATOM     29  N1  H22 d          -6.458   6.298  18.060  0.00  0.00    -0.301 N 
ATOM     30  C21 H22 d          -6.419   5.049  18.512  0.00  0.00     0.099 A 
ATOM     31  C29 H22 d          -6.593   3.961  17.667  0.00  0.00     0.018 A 
ATOM     32  C30 H22 d          -6.821   4.084  16.235  0.00  0.00     0.006 A 
ATOM     33  C23 H22 d          -6.843   5.470  15.793  0.00  0.00     0.059 A 
ATOM     34  C8  H22 d          -6.673   6.522  16.676  0.00  0.00     0.185 A 
ATOM     35  O25 H22 d          -6.707   7.777  16.169  0.00  0.00    -0.172 OA
ENDBRANCH  26  29
ENDBRANCH   1  22
TORSDOF 6
