REMARK  5 active torsions:
REMARK  status: ('A' for Active; 'I' for Inactive)
REMARK    1  A    between atoms: C2_2  and  O2_8 
REMARK    2  A    between atoms: C3_3  and  O3_9 
REMARK    3  A    between atoms: C4_4  and  O4_10 
REMARK    4  A    between atoms: C5_5  and  C6_6 
REMARK    5  A    between atoms: C6_6  and  O6_12 
ROOT
ATOM      1  C1  MOL d         -10.648 -27.942 -26.426  0.00  0.00     0.291 C 
ATOM      2  C2  MOL d          -9.696 -29.008 -25.862  0.00  0.00     0.248 C 
ATOM      3  C3  MOL d          -8.823 -29.569 -26.984  0.00  0.00     0.188 C 
ATOM      4  C4  MOL d          -9.691 -30.036 -28.150  0.00  0.00     0.181 C 
ATOM      5  C5  MOL d         -10.328 -28.793 -28.800  0.00  0.00     0.186 C 
ATOM      6  O1  MOL d         -11.172 -27.152 -25.683  0.00  0.00    -0.262 OA
ATOM      7  O5  MOL d         -10.913 -27.880 -27.785  0.00  0.00    -0.309 OA
ENDROOT
BRANCH   5   8
ATOM      8  C6  MOL d         -11.444 -29.207 -29.759  0.00  0.00     0.199 C 
BRANCH   8   9
ATOM      9  O6  MOL d         -10.903 -29.928 -30.864  0.00  0.00    -0.398 OA
ATOM     10  H10 MOL d         -11.606 -30.179 -31.452  0.00  0.00     0.209 HD
ENDBRANCH   8   9
ENDBRANCH   5   8
BRANCH   4  11
ATOM     11  O4  MOL d         -10.720 -30.914 -27.672  0.00  0.00    -0.390 OA
ATOM     12  H9  MOL d         -10.322 -31.678 -27.272  0.00  0.00     0.210 HD
ENDBRANCH   4  11
BRANCH   3  13
ATOM     13  O3  MOL d          -8.072 -30.654 -26.477  0.00  0.00    -0.390 OA
ATOM     14  H8  MOL d          -7.535 -30.355 -25.753  0.00  0.00     0.210 HD
ENDBRANCH   3  13
BRANCH   2  15
ATOM     15  O2  MOL d          -8.837 -28.427 -24.867  0.00  0.00    -0.383 OA
ATOM     16  H7  MOL d          -8.255 -29.095 -24.524  0.00  0.00     0.210 HD
ENDBRANCH   2  15
TORSDOF 5
