REMARK  9 active torsions:
REMARK  status: ('A' for Active; 'I' for Inactive)
REMARK    1  A    between atoms: C_3  and  CA_2 
REMARK       I    between atoms: N_9  and  C_3 
REMARK    2  A    between atoms: CA_10  and  N_9 
REMARK    3  A    between atoms: C_11  and  CA_10 
REMARK    4  A    between atoms: CA_10  and  CB_13 
REMARK       I    between atoms: C_11  and  N_17 
REMARK    5  A    between atoms: CB_13  and  CG_14 
REMARK       I    between atoms: CG_14  and  ND2_16 
REMARK    6  A    between atoms: N_17  and  CA_18 
REMARK    7  A    between atoms: CA_18  and  C_19 
REMARK    8  A    between atoms: CA_18  and  CB_21 
REMARK    9  A    between atoms: CB_21  and  CG_22 
ROOT
ATOM      1  C   MOL d          10.890   9.684   7.729  0.00  0.00     0.241 C 
ATOM      2  O   MOL d          11.633   9.558   8.692  0.00  0.00    -0.271 OA
ATOM      3  N   MOL d           9.848  10.506   7.709  0.00  0.00    -0.344 N 
ATOM      4  H13 MOL d           9.330  10.605   6.859  0.00  0.00     0.163 HD
ENDROOT
BRANCH   1   5
ATOM      5  CA  MOL d          11.147   8.896   6.452  0.00  0.00     0.185 C 
BRANCH   5   6
ATOM      6  CB  MOL d          10.699   7.448   6.707  0.00  0.00     0.137 C 
BRANCH   6   7
ATOM      7  CG  MOL d          10.382   6.690   5.425  0.00  0.00     0.217 C 
ATOM      8  OD1 MOL d           9.514   7.094   4.643  0.00  0.00    -0.274 OA
ATOM      9  ND2 MOL d          11.082   5.578   5.210  0.00  0.00    -0.370 N 
ATOM     10  H11 MOL d          10.919   5.036   4.385  0.00  0.00     0.159 HD
ATOM     11  H12 MOL d          11.770   5.284   5.873  0.00  0.00     0.159 HD
ENDBRANCH   6   7
ENDBRANCH   5   6
BRANCH   5  12
ATOM     12  N   MOL d          12.569   8.957   6.158  0.00  0.00    -0.346 N 
ATOM     13  C   MOL d          13.033   9.810   5.258  0.00  0.00     0.241 C 
ATOM     14  O   MOL d          12.295  10.584   4.639  0.00  0.00    -0.271 OA
ATOM     15  H7  MOL d          13.202   8.350   6.639  0.00  0.00     0.163 HD
BRANCH  13  16
ATOM     16  CA  MOL d          14.531   9.796   5.017  0.00  0.00     0.177 C 
ATOM     17  CB  MOL d          15.157  11.083   5.544  0.00  0.00     0.044 C 
ATOM     18  CG  MOL d          15.572  11.809   4.311  0.00  0.00     0.105 C 
ATOM     19  CD  MOL d          15.240  10.889   3.172  0.00  0.00     0.218 C 
ATOM     20  OE1 MOL d          15.420  11.182   1.994  0.00  0.00    -0.274 OA
ATOM     21  N   MOL d          14.734   9.722   3.561  0.00  0.00    -0.348 N 
ATOM     22  H1  MOL d          14.529   8.939   2.973  0.00  0.00     0.163 HD
ENDBRANCH  13  16
ENDBRANCH   5  12
ENDBRANCH   1   5
BRANCH   3  23
ATOM     23  CA  MOL d           9.428  11.272   8.882  0.00  0.00     0.190 C 
BRANCH  23  24
ATOM     24  C   MOL d           7.945  11.541   8.792  0.00  0.00     0.197 C 
ATOM     25  OXT MOL d           7.374  11.384   7.691  0.00  0.00    -0.646 OA
ATOM     26  O   MOL d           7.318  11.929   9.786  0.00  0.00    -0.646 OA
ENDBRANCH  23  24
BRANCH  23  27
ATOM     27  CB  MOL d          10.199  12.586   9.017  0.00  0.00     0.077 C 
BRANCH  27  28
ATOM     28  CG  MOL d           9.899  13.717   8.013  0.00  0.00    -0.028 A 
ATOM     29  CD2 MOL d          10.240  15.084   8.204  0.00  0.00    -0.002 A 
ATOM     30  CE2 MOL d           9.773  15.810   7.065  0.00  0.00     0.042 A 
ATOM     31  CE3 MOL d          10.886  15.775   9.218  0.00  0.00     0.014 A 
ATOM     32  NE1 MOL d           9.180  14.905   6.225  0.00  0.00    -0.365 N 
ATOM     33  CZ2 MOL d           9.936  17.198   6.936  0.00  0.00     0.030 A 
ATOM     34  CD1 MOL d           9.256  13.647   6.800  0.00  0.00     0.096 A 
ATOM     35  H18 MOL d           8.749  15.124   5.316  0.00  0.00     0.165 HD
ATOM     36  CH2 MOL d          10.591  17.857   7.971  0.00  0.00     0.002 A 
ATOM     37  CZ3 MOL d          11.063  17.155   9.099  0.00  0.00     0.001 A 
ENDBRANCH  27  28
ENDBRANCH  23  27
ENDBRANCH   3  23
TORSDOF 9
