REMARK  0 active torsions:
REMARK  status: ('A' for Active; 'I' for Inactive)
ROOT
ATOM      1  N1  URA d          23.244   9.869  10.493  0.00  0.00    -0.319 N 
ATOM      2  C2  URA d          22.336   8.868  10.149  0.00  0.00     0.326 A 
ATOM      3  O2  URA d          21.944   8.640   9.014  0.00  0.00    -0.247 OA
ATOM      4  N3  URA d          21.889   8.114  11.203  0.00  0.00    -0.276 N 
ATOM      5  C4  URA d          22.225   8.226  12.546  0.00  0.00     0.250 A 
ATOM      6  O4  URA d          21.802   7.523  13.469  0.00  0.00    -0.268 OA
ATOM      7  C5  URA d          23.175   9.299  12.806  0.00  0.00     0.091 A 
ATOM      8  C6  URA d          23.643  10.066  11.803  0.00  0.00     0.098 A 
ATOM      9  H1  URA d          23.616  10.458   9.776  0.00  0.00     0.170 HD
ATOM     10  H2  URA d          21.237   7.390  10.976  0.00  0.00     0.173 HD
ENDROOT
TORSDOF 0
