REMARK  8 active torsions:
REMARK  status: ('A' for Active; 'I' for Inactive)
REMARK       I    between atoms: N1_1  and  C14_2 
REMARK    1  A    between atoms: C14_2  and  C15_4 
REMARK    2  A    between atoms: C15_4  and  N16_22 
REMARK    3  A    between atoms: C2_8  and  C7_9 
REMARK       I    between atoms: C7_9  and  N23_10 
REMARK    4  A    between atoms: N23_10  and  C24_11 
REMARK    5  A    between atoms: C24_11  and  C25_12 
REMARK    6  A    between atoms: C28_15  and  C31_16 
REMARK    7  A    between atoms: C31_16  and  N49_17 
REMARK    8  A    between atoms: N16_22  and  C17_23 
ROOT
ATOM      1  C7  MOL d         -26.522   1.488  14.572  0.00  0.00     0.240 C 
ATOM      2  N23 MOL d         -25.369   1.176  14.064  0.00  0.00    -0.355 N 
ATOM      3  O22 MOL d         -26.645   2.658  14.898  0.00  0.00    -0.271 OA
ATOM      4  H10 MOL d         -25.257   0.214  13.816  0.00  0.00     0.162 HD
ENDROOT
BRANCH   1   5
ATOM      5  C2  MOL d         -27.623   0.507  14.756  0.00  0.00     0.179 C 
ATOM      6  N1  MOL d         -28.649   0.858  15.720  0.00  0.00    -0.337 N 
ATOM      7  C14 MOL d         -28.416   0.912  17.043  0.00  0.00     0.246 C 
ATOM      8  C5  MOL d         -29.972   1.127  15.108  0.00  0.00     0.127 C 
ATOM      9  O32 MOL d         -27.276   0.866  17.514  0.00  0.00    -0.272 OA
ATOM     10  C4  MOL d         -29.786   1.104  13.595  0.00  0.00     0.022 C 
ATOM     11  C3  MOL d         -28.460   0.390  13.490  0.00  0.00     0.037 C 
BRANCH   7  12
ATOM     12  C15 MOL d         -29.609   1.024  17.938  0.00  0.00     0.335 C 
BRANCH  12  13
ATOM     13  N16 MOL d         -29.356   0.447  19.227  0.00  0.00    -0.063 N 
ATOM     14  H21 MOL d         -29.657   1.109  19.924  0.00  0.00     0.278 HD
ATOM     15  H22 MOL d         -28.362   0.302  19.309  0.00  0.00     0.278 HD
BRANCH  13  16
ATOM     16  C17 MOL d         -30.014  -0.822  19.507  0.00  0.00     0.186 C 
ATOM     17  C21 MOL d         -29.085  -1.614  20.456  0.00  0.00     0.033 C 
ATOM     18  C20 MOL d         -29.593  -3.066  20.426  0.00  0.00     0.002 C 
ATOM     19  C19 MOL d         -30.047  -3.267  18.971  0.00  0.00     0.002 C 
ATOM     20  C18 MOL d         -30.389  -1.863  18.381  0.00  0.00     0.033 C 
ENDBRANCH  13  16
ENDBRANCH  12  13
ENDBRANCH   7  12
ENDBRANCH   1   5
BRANCH   2  21
ATOM     21  C24 MOL d         -24.252   1.997  13.811  0.00  0.00     0.161 C 
BRANCH  21  22
ATOM     22  C25 MOL d         -23.156   1.875  14.789  0.00  0.00    -0.040 A 
ATOM     23  C30 MOL d         -23.250   2.258  16.081  0.00  0.00     0.010 A 
ATOM     24  C29 MOL d         -22.176   2.116  16.955  0.00  0.00     0.016 A 
ATOM     25  C28 MOL d         -20.965   1.581  16.560  0.00  0.00     0.007 A 
ATOM     26  C27 MOL d         -20.871   1.184  15.221  0.00  0.00     0.016 A 
ATOM     27  C26 MOL d         -21.947   1.324  14.334  0.00  0.00     0.010 A 
BRANCH  25  28
ATOM     28  C31 MOL d         -19.828   1.444  17.538  0.00  0.00     0.102 C 
ATOM     29  N48 MOL d         -19.021   0.394  17.433  0.00  0.00    -0.385 N 
ATOM     30  H17 MOL d         -19.180  -0.305  16.694  0.00  0.00     0.157 HD
ATOM     31  H18 MOL d         -18.237   0.279  18.091  0.00  0.00     0.157 HD
BRANCH  28  32
ATOM     32  N49 MOL d         -19.641   2.361  18.487  0.00  0.00    -0.385 N 
ATOM     33  H15 MOL d         -18.861   2.261  19.153  0.00  0.00     0.157 HD
ATOM     34  H16 MOL d         -20.276   3.169  18.555  0.00  0.00     0.157 HD
ENDBRANCH  28  32
ENDBRANCH  25  28
ENDBRANCH  21  22
ENDBRANCH   2  21
TORSDOF 8
