REMARK  5 active torsions:
REMARK  status: ('A' for Active; 'I' for Inactive)
REMARK    1  A    between atoms: C7_7  and  N1_1 
REMARK    2  A    between atoms: C2_2  and  O3_3 
REMARK    3  A    between atoms: C8_8  and  C2_2 
REMARK    4  A    between atoms: O3_3  and  C9_9 
REMARK       I    between atoms: C9_9  and  N5_5 
REMARK    5  A    between atoms: C7_7  and  C8_8 
ROOT
ATOM      1  C2  XRX d         -99.894  38.843  25.089  0.00  0.00     0.182 C 
ENDROOT
BRANCH   1   2
ATOM      2  O3  XRX d        -101.280  38.695  25.414  0.00  0.00    -0.304 OA
BRANCH   2   3
ATOM      3  C9  XRX d        -102.225  39.211  24.586  0.00  0.00     0.362 C 
ATOM      4  N5  XRX d        -103.483  39.163  25.179  0.00  0.00    -0.337 N 
ATOM      5  C12 XRX d        -104.651  39.498  24.336  0.00  0.00     0.154 C 
ATOM      6  C13 XRX d        -103.719  38.462  26.448  0.00  0.00     0.154 C 
ATOM      7  O6  XRX d        -102.004  39.625  23.456  0.00  0.00    -0.238 OA
ENDBRANCH   2   3
ENDBRANCH   1   2
BRANCH   1   8
ATOM      8  C8  XRX d         -99.106  38.613  26.402  0.00  0.00     0.059 C 
BRANCH   8   9
ATOM      9  C7  XRX d         -98.966  37.136  26.856  0.00  0.00     0.185 C 
ATOM     10  C11 XRX d         -98.081  37.058  28.100  0.00  0.00     0.040 C 
BRANCH   9  11
ATOM     11  N1  XRX d        -100.241  36.487  27.247  0.00  0.00    -0.075 N 
ATOM     12  C4  XRX d        -100.845  37.122  28.459  0.00  0.00     0.269 C 
ATOM     13  C10 XRX d         -99.991  35.035  27.496  0.00  0.00     0.269 C 
ATOM     14  H1  XRX d        -100.894  36.579  26.484  0.00  0.00     0.279 HD
ENDBRANCH   9  11
ENDBRANCH   8   9
ENDBRANCH   1   8
TORSDOF 5
