REMARK  14 active torsions:
REMARK  status: ('A' for Active; 'I' for Inactive)
REMARK    1  A    between atoms: C_1  and  C2_4 
REMARK       I    between atoms: N_13  and  C_1 
REMARK    2  A    between atoms: CA_14  and  N_13 
REMARK    3  A    between atoms: C1_15  and  CA_14 
REMARK    4  A    between atoms: CA_14  and  CB_17 
REMARK       I    between atoms: N2_24  and  C1_15 
REMARK    5  A    between atoms: CB_17  and  CG_18 
REMARK       I    between atoms: CG_18  and  ND2_20 
REMARK    6  A    between atoms: C9_21  and  O2_22 
REMARK    7  A    between atoms: CA1_23  and  C9_21 
REMARK    8  A    between atoms: C9_21  and  CM_33 
REMARK    9  A    between atoms: CA1_23  and  N2_24 
REMARK   10  A    between atoms: CA1_23  and  CB1_25 
REMARK   11  A    between atoms: CB1_25  and  CG1_26 
REMARK   12  A    between atoms: CM_33  and  N11_32 
REMARK   13  A    between atoms: C21_34  and  CC_35 
REMARK       I    between atoms: CC_35  and  N3_45 
REMARK   14  A    between atoms: N3_45  and  CD_46 
ROOT
ATOM      1  CA1 ROC d           4.942  -1.769  15.790  0.00  0.00     0.119 C 
ENDROOT
BRANCH   1   2
ATOM      2  C9  ROC d           5.528  -0.356  16.089  0.00  0.00     0.167 C 
BRANCH   2   3
ATOM      3  O2  ROC d           5.251  -0.022  17.448  0.00  0.00    -0.392 OA
ATOM      4  H14 ROC d           5.605   0.839  17.640  0.00  0.00     0.210 HD
ENDBRANCH   2   3
BRANCH   2   5
ATOM      5  CM  ROC d           5.115   0.801  15.162  0.00  0.00     0.269 C 
BRANCH   5   6
ATOM      6  N11 ROC d           5.858   0.796  13.890  0.00  0.00    -0.055 N 
ATOM      7  C21 ROC d           5.065   1.360  12.743  0.00  0.00     0.279 C 
ATOM      8  C31 ROC d           5.901   1.368  11.448  0.00  0.00     0.048 C 
ATOM      9  C3A ROC d           7.206   2.146  11.676  0.00  0.00    -0.006 C 
ATOM     10  C41 ROC d           8.085   2.160  10.428  0.00  0.00     0.005 C 
ATOM     11  C7A ROC d           8.036   1.577  12.909  0.00  0.00     0.016 C 
ATOM     12  C51 ROC d           8.771   0.796  10.173  0.00  0.00     0.000 C 
ATOM     13  C61 ROC d           9.599   0.301  11.377  0.00  0.00     0.000 C 
ATOM     14  C71 ROC d           8.676   0.207  12.604  0.00  0.00     0.007 C 
ATOM     15  C81 ROC d           7.110   1.534  14.137  0.00  0.00     0.241 C 
ATOM     16  H24 ROC d           6.087  -0.157  13.656  0.00  0.00     0.281 HD
BRANCH   7  17
ATOM     17  CC  ROC d           3.783   0.603  12.420  0.00  0.00     0.249 C 
ATOM     18  O3  ROC d           3.810  -0.635  12.410  0.00  0.00    -0.271 OA
ATOM     19  N3  ROC d           2.718   1.408  12.220  0.00  0.00    -0.351 N 
ATOM     20  H42 ROC d           2.874   2.389  12.332  0.00  0.00     0.163 HD
BRANCH  19  21
ATOM     21  CD  ROC d           1.363   1.001  11.858  0.00  0.00     0.022 C 
ATOM     22  C11 ROC d           0.576   2.286  11.765  0.00  0.00     0.037 C 
ATOM     23  C22 ROC d           1.303   0.351  10.496  0.00  0.00     0.037 C 
ATOM     24  C32 ROC d           0.713   0.109  12.932  0.00  0.00     0.037 C 
ENDBRANCH  19  21
ENDBRANCH   7  17
ENDBRANCH   5   6
ENDBRANCH   2   5
ENDBRANCH   1   2
BRANCH   1  25
ATOM     25  N2  ROC d           5.757  -2.729  16.518  0.00  0.00    -0.352 N 
ATOM     26  C1  ROC d           6.551  -3.602  15.884  0.00  0.00     0.241 C 
ATOM     27  O1  ROC d           6.644  -3.647  14.657  0.00  0.00    -0.271 OA
ATOM     28  H16 ROC d           5.724  -2.737  17.517  0.00  0.00     0.163 HD
BRANCH  26  29
ATOM     29  CA  ROC d           7.317  -4.554  16.788  0.00  0.00     0.185 C 
BRANCH  29  30
ATOM     30  N   ROC d           6.587  -5.814  16.873  0.00  0.00    -0.342 N 
ATOM     31  C   ROC d           6.226  -6.345  18.059  0.00  0.00     0.271 C 
ATOM     32  O   ROC d           6.521  -5.737  19.098  0.00  0.00    -0.266 OA
ATOM     33  H7  ROC d           6.348  -6.296  16.030  0.00  0.00     0.163 HD
BRANCH  31  34
ATOM     34  C2  ROC d           5.494  -7.554  18.031  0.00  0.00     0.125 A 
ATOM     35  N1  ROC d           5.249  -8.134  16.794  0.00  0.00    -0.243 NA
ATOM     36  C8A ROC d           4.554  -9.290  16.618  0.00  0.00     0.068 A 
ATOM     37  C8  ROC d           4.355  -9.810  15.314  0.00  0.00     0.032 A 
ATOM     38  C4A ROC d           4.028  -9.961  17.785  0.00  0.00    -0.007 A 
ATOM     39  C7  ROC d           3.624 -11.018  15.161  0.00  0.00     0.002 A 
ATOM     40  C6  ROC d           3.099 -11.692  16.308  0.00  0.00     0.001 A 
ATOM     41  C5  ROC d           3.297 -11.171  17.625  0.00  0.00     0.014 A 
ATOM     42  C4  ROC d           4.253  -9.401  19.071  0.00  0.00     0.016 A 
ATOM     43  C3  ROC d           4.989  -8.190  19.203  0.00  0.00     0.038 A 
ENDBRANCH  31  34
ENDBRANCH  29  30
BRANCH  29  44
ATOM     44  CB  ROC d           8.729  -4.798  16.259  0.00  0.00     0.137 C 
BRANCH  44  45
ATOM     45  CG  ROC d           9.593  -5.524  17.268  0.00  0.00     0.217 C 
ATOM     46  OD1 ROC d           9.936  -4.970  18.311  0.00  0.00    -0.274 OA
ATOM     47  ND2 ROC d           9.927  -6.775  16.979  0.00  0.00    -0.370 N 
ATOM     48  H11 ROC d          10.496  -7.299  17.612  0.00  0.00     0.159 HD
ATOM     49  H12 ROC d           9.609  -7.194  16.128  0.00  0.00     0.159 HD
ENDBRANCH  44  45
ENDBRANCH  29  44
ENDBRANCH  26  29
ENDBRANCH   1  25
BRANCH   1  50
ATOM     50  CB1 ROC d           3.474  -1.950  16.270  0.00  0.00     0.066 C 
BRANCH  50  51
ATOM     51  CG1 ROC d           2.975  -3.377  16.156  0.00  0.00    -0.056 A 
ATOM     52  CD1 ROC d           2.602  -3.889  14.915  0.00  0.00     0.007 A 
ATOM     53  CE1 ROC d           2.191  -5.214  14.825  0.00  0.00     0.001 A 
ATOM     54  CZ  ROC d           2.154  -6.008  15.957  0.00  0.00     0.000 A 
ATOM     55  CE2 ROC d           2.524  -5.488  17.192  0.00  0.00     0.001 A 
ATOM     56  CD2 ROC d           2.936  -4.172  17.301  0.00  0.00     0.007 A 
ENDBRANCH  50  51
ENDBRANCH   1  50
TORSDOF 14
