REMARK  4 active torsions:
REMARK  status: ('A' for Active; 'I' for Inactive)
REMARK    1  A    between atoms: C3_3  and  O3_11 
REMARK    2  A    between atoms: C4_4  and  O4_12 
REMARK    3  A    between atoms: C5_5  and  C6_6 
REMARK    4  A    between atoms: C6_6  and  O6_14 
ROOT
ATOM      1  C1  NGT d          23.281   6.487  40.375  0.00  0.00     0.216 C 
ATOM      2  C2  NGT d          24.702   6.750  39.814  0.00  0.00     0.179 C 
ATOM      3  C3  NGT d          25.308   8.019  40.392  0.00  0.00     0.177 C 
ATOM      4  C4  NGT d          24.377   9.257  40.322  0.00  0.00     0.180 C 
ATOM      5  C5  NGT d          23.091   8.821  41.027  0.00  0.00     0.178 C 
ATOM      6  C7  NGT d          25.069   5.138  41.521  0.00  0.00     0.064 C 
ATOM      7  C8  NGT d          25.722   4.033  42.300  0.00  0.00     0.078 C 
ATOM      8  N2  NGT d          25.501   5.639  40.367  0.00  0.00    -0.276 NA
ATOM      9  S1  NGT d          23.537   5.754  42.037  0.00  0.00    -0.081 SA
ATOM     10  O5  NGT d          22.500   7.672  40.391  0.00  0.00    -0.363 OA
ENDROOT
BRANCH   5  11
ATOM     11  C6  NGT d          22.042   9.935  41.052  0.00  0.00     0.198 C 
BRANCH  11  12
ATOM     12  O6  NGT d          21.632  10.230  39.726  0.00  0.00    -0.398 OA
ATOM     13  H13 NGT d          21.258   9.451  39.331  0.00  0.00     0.209 HD
ENDBRANCH  11  12
ENDBRANCH   5  11
BRANCH   4  14
ATOM     14  O4  NGT d          24.968  10.403  40.964  0.00  0.00    -0.390 OA
ATOM     15  H12 NGT d          25.762  10.648  40.504  0.00  0.00     0.210 HD
ENDBRANCH   4  14
BRANCH   3  16
ATOM     16  O3  NGT d          26.579   8.358  39.710  0.00  0.00    -0.391 OA
ATOM     17  H11 NGT d          26.984   9.098  40.147  0.00  0.00     0.210 HD
ENDBRANCH   3  16
TORSDOF 4
