REMARK  6 active torsions:
REMARK  status: ('A' for Active; 'I' for Inactive)
REMARK    1  A    between atoms: PAP_2  and  CAJ_5 
REMARK    2  A    between atoms: CAJ_5  and  CAN_6 
REMARK       I    between atoms: CAN_6  and  N_8 
REMARK    3  A    between atoms: N_8  and  CA_9 
REMARK    4  A    between atoms: CA_9  and  CB_10 
REMARK    5  A    between atoms: CA_9  and  C_14 
REMARK    6  A    between atoms: CB_10  and  CG_11 
REMARK       I    between atoms: C_14  and  NAA_16 
ROOT
ATOM      1  CA  MOL d          67.123  53.872  61.673  0.00  0.00     0.186 C 
ENDROOT
BRANCH   1   2
ATOM      2  N   MOL d          67.793  52.647  62.135  0.00  0.00    -0.347 N 
ATOM      3  CAN MOL d          67.370  51.935  63.179  0.00  0.00     0.231 C 
ATOM      4  OAD MOL d          66.369  52.201  63.840  0.00  0.00    -0.273 OA
ATOM      5  H3  MOL d          68.605  52.333  61.642  0.00  0.00     0.163 HD
BRANCH   3   6
ATOM      6  CAJ MOL d          68.234  50.714  63.508  0.00  0.00     0.248 C 
BRANCH   6   7
ATOM      7  PAP MOL d          67.370  49.145  63.255  0.00  0.00     0.268 P 
ATOM      8  OAH MOL d          68.517  48.016  63.280  0.00  0.00    -0.639 OA
ATOM      9  OAG MOL d          66.811  49.174  61.747  0.00  0.00    -0.639 OA
ATOM     10  OAE MOL d          66.313  48.894  64.261  0.00  0.00    -0.639 OA
ENDBRANCH   6   7
ENDBRANCH   3   6
ENDBRANCH   1   2
BRANCH   1  11
ATOM     11  CB  MOL d          67.984  54.567  60.614  0.00  0.00     0.147 C 
BRANCH  11  12
ATOM     12  CG  MOL d          68.227  53.711  59.368  0.00  0.00     0.175 C 
ATOM     13  OD2 MOL d          67.455  52.750  59.160  0.00  0.00    -0.648 OA
ATOM     14  OD1 MOL d          69.186  54.047  58.640  0.00  0.00    -0.648 OA
ENDBRANCH  11  12
ENDBRANCH   1  11
BRANCH   1  15
ATOM     15  C   MOL d          65.719  53.605  61.126  0.00  0.00     0.238 C 
ATOM     16  O   MOL d          65.244  52.472  61.090  0.00  0.00    -0.271 OA
ATOM     17  NAA MOL d          65.073  54.689  60.705  0.00  0.00    -0.368 N 
ATOM     18  H7  MOL d          64.149  54.607  60.332  0.00  0.00     0.159 HD
ATOM     19  H8  MOL d          65.511  55.586  60.762  0.00  0.00     0.159 HD
ENDBRANCH   1  15
TORSDOF 6
