REMARK  9 active torsions:
REMARK  status: ('A' for Active; 'I' for Inactive)
REMARK    1  A    between atoms: N10_17  and  C1_19 
REMARK    2  A    between atoms: C1_19  and  C2_20 
REMARK    3  A    between atoms: C2_20  and  O2_21 
REMARK    4  A    between atoms: C2_20  and  C3_22 
REMARK    5  A    between atoms: C3_22  and  O3_23 
REMARK    6  A    between atoms: C3_22  and  C4_24 
REMARK    7  A    between atoms: C4_24  and  O4_25 
REMARK    8  A    between atoms: C4_24  and  C5_26 
REMARK    9  A    between atoms: C5_26  and  O5_27 
ROOT
ATOM      1  N1  RBF d           0.229  22.714  -2.893  0.00  0.00    -0.173 NA
ATOM      2  C2  RBF d          -0.465  22.331  -3.992  0.00  0.00     0.350 A 
ATOM      3  O2  RBF d          -0.923  23.247  -4.708  0.00  0.00    -0.244 OA
ATOM      4  N3  RBF d          -0.639  21.043  -4.326  0.00  0.00    -0.272 N 
ATOM      5  C4  RBF d          -0.195  20.031  -3.595  0.00  0.00     0.282 A 
ATOM      6  O4  RBF d          -0.358  18.840  -3.920  0.00  0.00    -0.265 OA
ATOM      7  C4A RBF d           0.567  20.357  -2.369  0.00  0.00     0.171 A 
ATOM      8  N5  RBF d           1.061  19.389  -1.581  0.00  0.00    -0.237 NA
ATOM      9  C5A RBF d           1.756  19.720  -0.453  0.00  0.00     0.085 A 
ATOM     10  C6  RBF d           2.252  18.710   0.355  0.00  0.00     0.041 A 
ATOM     11  C7  RBF d           2.977  19.021   1.514  0.00  0.00    -0.054 A 
ATOM     12  C7M RBF d           3.533  17.889   2.372  0.00  0.00     0.049 C 
ATOM     13  C8  RBF d           3.192  20.443   1.874  0.00  0.00    -0.054 A 
ATOM     14  C8M RBF d           3.966  20.782   3.135  0.00  0.00     0.049 C 
ATOM     15  C9  RBF d           2.687  21.475   1.081  0.00  0.00     0.039 A 
ATOM     16  C9A RBF d           1.969  21.145  -0.088  0.00  0.00     0.065 A 
ATOM     17  N10 RBF d           1.457  22.172  -0.922  0.00  0.00    -0.325 N 
ATOM     18  C10 RBF d           0.739  21.785  -2.065  0.00  0.00     0.170 A 
ATOM     19  H1  RBF d          -1.130  20.836  -5.172  0.00  0.00     0.174 HD
ENDROOT
BRANCH  17  20
ATOM     20  C1  RBF d           1.596  23.600  -0.593  0.00  0.00     0.165 C 
BRANCH  20  21
ATOM     21  C2  RBF d           2.570  24.380  -1.447  0.00  0.00     0.167 C 
BRANCH  21  22
ATOM     22  O2  RBF d           3.858  24.147  -0.886  0.00  0.00    -0.391 OA
ATOM     23  H13 RBF d           4.511  24.618  -1.389  0.00  0.00     0.210 HD
ENDBRANCH  21  22
BRANCH  21  24
ATOM     24  C3  RBF d           2.177  25.863  -1.506  0.00  0.00     0.179 C 
BRANCH  24  25
ATOM     25  O3  RBF d           2.080  26.382  -0.179  0.00  0.00    -0.390 OA
ATOM     26  H15 RBF d           1.837  27.300  -0.216  0.00  0.00     0.210 HD
ENDBRANCH  24  25
BRANCH  24  27
ATOM     27  C4  RBF d           0.851  25.991  -2.317  0.00  0.00     0.173 C 
BRANCH  27  28
ATOM     28  O4  RBF d           1.143  25.771  -3.698  0.00  0.00    -0.391 OA
ATOM     29  H17 RBF d           0.343  25.846  -4.205  0.00  0.00     0.210 HD
ENDBRANCH  27  28
BRANCH  27  30
ATOM     30  C5  RBF d           0.080  27.301  -2.183  0.00  0.00     0.198 C 
BRANCH  30  31
ATOM     31  O5  RBF d          -1.066  27.325  -3.063  0.00  0.00    -0.398 OA
ATOM     32  H20 RBF d          -0.775  27.235  -3.963  0.00  0.00     0.209 HD
ENDBRANCH  30  31
ENDBRANCH  27  30
ENDBRANCH  24  27
ENDBRANCH  21  24
ENDBRANCH  20  21
ENDBRANCH  17  20
TORSDOF 9
