REMARK  6 active torsions:
REMARK  status: ('A' for Active; 'I' for Inactive)
REMARK    1  A    between atoms: C1_1  and  C2_2 
REMARK    2  A    between atoms: C2_2  and  C3_3 
REMARK    3  A    between atoms: C3_3  and  C4_4 
REMARK    4  A    between atoms: C5_5  and  C7_7 
REMARK    5  A    between atoms: C7_7  and  O7_8 
REMARK    6  A    between atoms: C10_11  and  O10_12 
ROOT
ATOM      1  C7  A8S d          31.859 -18.247  18.594  0.00  0.00     0.109 C 
ATOM      2  C8  A8S d          33.088 -18.045  17.701  0.00  0.00    -0.042 C 
ATOM      3  C9  A8S d          33.620 -19.198  17.422  0.00  0.00     0.042 C 
ATOM      4  C10 A8S d          33.529 -20.425  17.666  0.00  0.00     0.063 C 
ATOM      5  C11 A8S d          32.429 -20.645  18.481  0.00  0.00     0.022 C 
ATOM      6  C12 A8S d          31.265 -19.672  18.392  0.00  0.00     0.011 C 
ATOM      7  C13 A8S d          33.443 -16.659  17.240  0.00  0.00     0.047 C 
ATOM      8  C14 A8S d          30.632 -19.913  16.999  0.00  0.00     0.023 C 
ATOM      9  C15 A8S d          30.150 -19.980  19.429  0.00  0.00     0.023 C 
ENDROOT
BRANCH   1  10
ATOM     10  C5  A8S d          32.187 -18.101  20.084  0.00  0.00     0.013 C 
ATOM     11  C4  A8S d          31.827 -16.940  20.688  0.00  0.00    -0.023 C 
BRANCH  11  12
ATOM     12  C3  A8S d          32.033 -16.811  22.205  0.00  0.00     0.014 C 
ATOM     13  C6  A8S d          33.282 -17.493  22.741  0.00  0.00     0.015 C 
BRANCH  12  14
ATOM     14  C2  A8S d          31.779 -15.485  22.893  0.00  0.00     0.121 C 
BRANCH  14  15
ATOM     15  C1  A8S d          30.480 -14.779  22.586  0.00  0.00     0.173 C 
ATOM     16  O11 A8S d          29.990 -14.073  23.517  0.00  0.00    -0.648 OA
ATOM     17  O12 A8S d          30.013 -14.788  21.417  0.00  0.00    -0.648 OA
ENDBRANCH  14  15
ENDBRANCH  12  14
ENDBRANCH  11  12
ENDBRANCH   1  10
BRANCH   1  18
ATOM     18  O7  A8S d          30.807 -17.327  18.223  0.00  0.00    -0.380 OA
ATOM     19  H9  A8S d          30.612 -17.426  17.299  0.00  0.00     0.211 HD
ENDBRANCH   1  18
BRANCH   4  20
ATOM     20  O10 A8S d          34.329 -21.423  17.291  0.00  0.00    -0.361 OA
ATOM     21  H11 A8S d          33.993 -22.243  17.634  0.00  0.00     0.217 HD
ENDBRANCH   4  20
TORSDOF 6
