REMARK  5 active torsions:
REMARK  status: ('A' for Active; 'I' for Inactive)
REMARK    1  A    between atoms: N_1  and  CA_2 
REMARK    2  A    between atoms: CA_2  and  C_3 
REMARK    3  A    between atoms: CA_2  and  CB_5 
REMARK    4  A    between atoms: CB_5  and  CG_6 
REMARK    5  A    between atoms: CG_6  and  CD_7 
ROOT
ATOM      1  CA  GLU d           5.552  30.497  28.594  0.00  0.00     0.283 C 
ENDROOT
BRANCH   1   2
ATOM      2  N   GLU d           6.405  30.706  29.813  0.00  0.00    -0.065 N 
ATOM      3  H1  GLU d           6.780  31.642  29.804  0.00  0.00     0.275 HD
ATOM      4  H2  GLU d           7.162  30.040  29.812  0.00  0.00     0.275 HD
ATOM      5  H3  GLU d           5.845  30.577  30.641  0.00  0.00     0.275 HD
ENDBRANCH   1   2
BRANCH   1   6
ATOM      6  C   GLU d           4.954  29.103  28.546  0.00  0.00     0.204 C 
ATOM      7  O   GLU d           4.011  28.853  27.771  0.00  0.00    -0.646 OA
ATOM      8  OXT GLU d           5.422  28.237  29.311  0.00  0.00    -0.646 OA
ENDBRANCH   1   6
BRANCH   1   9
ATOM      9  CB  GLU d           6.345  30.749  27.322  0.00  0.00     0.054 C 
BRANCH   9  10
ATOM     10  CG  GLU d           7.525  29.807  27.056  0.00  0.00     0.116 C 
BRANCH  10  11
ATOM     11  CD  GLU d           8.180  30.128  25.728  0.00  0.00     0.172 C 
ATOM     12  OE1 GLU d           8.892  31.161  25.662  0.00  0.00    -0.648 OA
ATOM     13  OE2 GLU d           8.017  29.358  24.753  0.00  0.00    -0.648 OA
ENDBRANCH  10  11
ENDBRANCH   9  10
ENDBRANCH   1   9
TORSDOF 5
