REMARK  8 active torsions:
REMARK  status: ('A' for Active; 'I' for Inactive)
REMARK    1  A    between atoms: CAA_1  and  OBM_39 
REMARK    2  A    between atoms: OAK_11  and  CAG_7 
REMARK    3  A    between atoms: CAL_12  and  OAK_11 
REMARK    4  A    between atoms: NAR_18  and  CAP_16 
REMARK       I    between atoms: CAU_21  and  NAR_18 
REMARK    5  A    between atoms: CAT_20  and  CAU_21 
REMARK    6  A    between atoms: NAW_23  and  CBI_35 
REMARK    7  A    between atoms: CBI_35  and  CBJ_36 
REMARK    8  A    between atoms: CBJ_36  and  OBL_38 
ROOT
ATOM      1  NAR 044 d          23.277  -2.807  15.480  0.00  0.00    -0.323 N 
ATOM      2  CAU 044 d          23.326  -1.534  15.059  0.00  0.00     0.263 C 
ATOM      3  OAV 044 d          22.904  -0.569  15.697  0.00  0.00    -0.267 OA
ATOM      4  H9  044 d          23.670  -3.481  14.854  0.00  0.00     0.169 HD
ENDROOT
BRANCH   1   5
ATOM      5  CAP 044 d          22.773  -3.307  16.628  0.00  0.00     0.038 A 
ATOM      6  CAO 044 d          22.779  -4.696  16.776  0.00  0.00     0.074 A 
ATOM      7  CAN 044 d          22.305  -5.287  17.944  0.00  0.00     0.152 A 
ATOM      8  CAL 044 d          21.837  -4.511  18.992  0.00  0.00     0.114 A 
ATOM      9  FBG 044 d          22.307  -6.624  18.092  0.00  0.00    -0.203 F 
ATOM     10  CAM 044 d          21.822  -3.116  18.865  0.00  0.00     0.043 A 
ATOM     11  CAQ 044 d          22.299  -2.525  17.686  0.00  0.00     0.032 A 
BRANCH   8  12
ATOM     12  OAK 044 d          21.380  -5.163  20.103  0.00  0.00    -0.307 OA
BRANCH  12  13
ATOM     13  CAG 044 d          22.162  -5.174  21.233  0.00  0.00     0.090 A 
ATOM     14  CAB 044 d          23.517  -4.821  21.238  0.00  0.00     0.057 A 
ATOM     15  CAC 044 d          24.237  -4.853  22.435  0.00  0.00     0.120 A 
ATOM     16  NAD 044 d          23.650  -5.218  23.571  0.00  0.00    -0.260 NA
ATOM     17  CAE 044 d          22.343  -5.557  23.608  0.00  0.00     0.072 A 
ATOM     18  CAF 044 d          21.574  -5.550  22.436  0.00  0.00     0.027 A 
ATOM     19  CAH 044 d          21.752  -5.930  24.812  0.00  0.00     0.069 A 
ATOM     20  CAJ 044 d          20.222  -5.900  22.475  0.00  0.00     0.019 A 
ATOM     21  CAI 044 d          19.636  -6.266  23.684  0.00  0.00     0.038 A 
ATOM     22  CAA 044 d          20.398  -6.290  24.850  0.00  0.00     0.070 A 
BRANCH  22  23
ATOM     23  OBM 044 d          19.784  -6.655  26.011  0.00  0.00    -0.356 OA
ATOM     24  CBN 044 d          20.682  -7.074  27.056  0.00  0.00     0.210 C 
ENDBRANCH  22  23
ENDBRANCH  12  13
ENDBRANCH   8  12
ENDBRANCH   1   5
BRANCH   2  25
ATOM     25  CAT 044 d          24.047  -1.351  13.705  0.00  0.00     0.125 A 
ATOM     26  CAS 044 d          24.503  -2.362  12.874  0.00  0.00     0.284 A 
ATOM     27  NAY 044 d          25.085  -1.782  11.819  0.00  0.00    -0.217 N 
ATOM     28  OAZ 044 d          24.357  -3.571  13.065  0.00  0.00    -0.265 OA
ATOM     29  NAW 044 d          25.057  -0.537  11.920  0.00  0.00    -0.283 N 
ATOM     30  CBA 044 d          25.680  -2.460  10.834  0.00  0.00     0.060 A 
ATOM     31  CAX 044 d          24.449  -0.183  13.067  0.00  0.00     0.046 A 
ATOM     32  CBH 044 d          24.209   1.256  13.558  0.00  0.00     0.071 C 
ATOM     33  CBB 044 d          27.068  -2.622  10.939  0.00  0.00     0.031 A 
ATOM     34  CBC 044 d          24.999  -3.003   9.744  0.00  0.00     0.031 A 
ATOM     35  CBE 044 d          27.786  -3.313   9.964  0.00  0.00     0.002 A 
ATOM     36  CBF 044 d          27.102  -3.851   8.874  0.00  0.00     0.000 A 
ATOM     37  CBD 044 d          25.720  -3.695   8.768  0.00  0.00     0.002 A 
BRANCH  29  38
ATOM     38  CBI 044 d          25.672   0.414  10.945  0.00  0.00     0.180 C 
BRANCH  38  39
ATOM     39  CBJ 044 d          24.766   1.069   9.901  0.00  0.00     0.134 C 
ATOM     40  CBK 044 d          25.578   2.081   9.077  0.00  0.00     0.041 C 
BRANCH  39  41
ATOM     41  OBL 044 d          24.200   0.081   9.049  0.00  0.00    -0.394 OA
ATOM     42  H24 044 d          23.701  -0.537   9.570  0.00  0.00     0.210 HD
ENDBRANCH  39  41
ENDBRANCH  38  39
ENDBRANCH  29  38
ENDBRANCH   2  25
TORSDOF 8
