REMARK  7 active torsions:
REMARK  status: ('A' for Active; 'I' for Inactive)
REMARK       I    between atoms: C24_2  and  N4_3 
REMARK    1  A    between atoms: C24_2  and  C21_8 
REMARK    2  A    between atoms: N4_3  and  C25_4 
REMARK    3  A    between atoms: C25_4  and  C26_5 
REMARK    4  A    between atoms: C18_13  and  C17_14 
REMARK    5  A    between atoms: C5_18  and  N1_21 
REMARK       I    between atoms: N1_21  and  C6_22 
REMARK    6  A    between atoms: C6_22  and  C7_24 
REMARK    7  A    between atoms: C10_26  and  N3_30 
ROOT
ATOM      1  C17 GK6 d          41.122  31.128  32.335  0.00  0.00    -0.018 A 
ATOM      2  C2  GK6 d          39.964  31.526  31.645  0.00  0.00    -0.051 A 
ATOM      3  C1  GK6 d          40.047  32.566  30.552  0.00  0.00     0.049 C 
ATOM      4  C16 GK6 d          40.990  30.150  33.336  0.00  0.00     0.042 A 
ATOM      5  C5  GK6 d          39.724  29.613  33.676  0.00  0.00     0.035 A 
ATOM      6  C4  GK6 d          38.579  30.037  32.991  0.00  0.00     0.030 A 
ATOM      7  C3  GK6 d          38.705  30.995  31.966  0.00  0.00     0.010 A 
ENDROOT
BRANCH   5   8
ATOM      8  N1  GK6 d          39.581  28.685  34.669  0.00  0.00    -0.323 N 
ATOM      9  C6  GK6 d          40.202  28.710  35.876  0.00  0.00     0.256 C 
ATOM     10  O1  GK6 d          41.120  29.470  36.168  0.00  0.00    -0.267 OA
ATOM     11  H19 GK6 d          38.964  27.919  34.490  0.00  0.00     0.169 HD
BRANCH   9  12
ATOM     12  C7  GK6 d          39.799  27.713  36.957  0.00  0.00     0.037 A 
ATOM     13  C11 GK6 d          40.100  27.985  38.311  0.00  0.00     0.067 A 
ATOM     14  C10 GK6 d          39.745  27.041  39.298  0.00  0.00     0.126 A 
ATOM     15  N2  GK6 d          39.150  25.884  38.914  0.00  0.00    -0.243 NA
ATOM     16  C9  GK6 d          38.861  25.597  37.623  0.00  0.00     0.120 A 
ATOM     17  C8  GK6 d          39.185  26.500  36.604  0.00  0.00     0.036 A 
BRANCH  14  18
ATOM     18  N3  GK6 d          40.060  27.277  40.659  0.00  0.00    -0.362 N 
ATOM     19  C15 GK6 d          39.984  26.146  41.584  0.00  0.00     0.150 C 
ATOM     20  C14 GK6 d          39.854  26.637  43.027  0.00  0.00     0.187 C 
ATOM     21  O2  GK6 d          40.774  27.698  43.270  0.00  0.00    -0.388 OA
ATOM     22  C13 GK6 d          40.355  28.840  42.526  0.00  0.00     0.187 C 
ATOM     23  C12 GK6 d          40.592  28.605  41.032  0.00  0.00     0.150 C 
ENDBRANCH  14  18
ENDBRANCH   9  12
ENDBRANCH   5   8
BRANCH   1  24
ATOM     24  C18 GK6 d          42.346  31.722  31.944  0.00  0.00    -0.025 A 
ATOM     25  C19 GK6 d          43.219  31.071  31.075  0.00  0.00     0.013 A 
ATOM     26  C20 GK6 d          44.399  31.712  30.636  0.00  0.00     0.018 A 
ATOM     27  C21 GK6 d          44.713  33.005  31.055  0.00  0.00     0.032 A 
ATOM     28  C22 GK6 d          43.832  33.667  31.915  0.00  0.00     0.018 A 
ATOM     29  C23 GK6 d          42.654  33.028  32.352  0.00  0.00     0.013 A 
BRANCH  27  30
ATOM     30  C24 GK6 d          46.001  33.685  30.574  0.00  0.00     0.251 C 
ATOM     31  O3  GK6 d          46.293  34.818  30.977  0.00  0.00    -0.268 OA
ATOM     32  N4  GK6 d          46.775  33.042  29.677  0.00  0.00    -0.356 N 
ATOM     33  H1  GK6 d          46.507  32.121  29.393  0.00  0.00     0.162 HD
BRANCH  32  34
ATOM     34  C25 GK6 d          47.987  33.621  29.097  0.00  0.00     0.127 C 
BRANCH  34  35
ATOM     35  C26 GK6 d          49.069  32.561  28.847  0.00  0.00     0.003 A 
ATOM     36  C28 GK6 d          50.423  33.126  29.281  0.00  0.00     0.007 A 
ATOM     37  C27 GK6 d          49.713  32.097  30.154  0.00  0.00     0.007 A 
ENDBRANCH  34  35
ENDBRANCH  32  34
ENDBRANCH  27  30
ENDBRANCH   1  24
TORSDOF 7
