REMARK  9 active torsions:
REMARK  status: ('A' for Active; 'I' for Inactive)
REMARK    1  A    between atoms: C18_2  and  C19_3 
REMARK       I    between atoms: C18_2  and  N1_12 
REMARK    2  A    between atoms: C19_3  and  C20_4 
REMARK    3  A    between atoms: C20_4  and  N2_5 
REMARK    4  A    between atoms: N2_5  and  C21_6 
REMARK    5  A    between atoms: N1_12  and  C2_13 
REMARK    6  A    between atoms: C3_15  and  C10_24 
REMARK    7  A    between atoms: C1_16  and  C4_17 
REMARK       I    between atoms: C10_24  and  N_26 
REMARK    8  A    between atoms: N_26  and  C11_27 
REMARK    9  A    between atoms: C11_27  and  C12_28 
ROOT
ATOM      1  C2  IXV d          23.102   5.401  57.613  0.00  0.00     0.093 A 
ATOM      2  S   IXV d          22.764   6.379  56.387  0.00  0.00    -0.082 SA
ATOM      3  C3  IXV d          24.138   5.950  58.366  0.00  0.00     0.077 A 
ATOM      4  C1  IXV d          24.551   7.183  57.845  0.00  0.00    -0.001 A 
ATOM      5  C   IXV d          23.828   7.533  56.714  0.00  0.00     0.065 A 
ENDROOT
BRANCH   1   6
ATOM      6  N1  IXV d          22.419   4.180  57.797  0.00  0.00    -0.320 N 
ATOM      7  C18 IXV d          22.660   3.016  57.106  0.00  0.00     0.224 C 
ATOM      8  O1  IXV d          23.142   3.048  55.996  0.00  0.00    -0.273 OA
ATOM      9  H11 IXV d          21.698   4.160  58.489  0.00  0.00     0.169 HD
BRANCH   7  10
ATOM     10  C19 IXV d          22.285   1.710  57.773  0.00  0.00     0.122 C 
BRANCH  10  11
ATOM     11  C20 IXV d          22.592   0.505  56.900  0.00  0.00     0.129 C 
BRANCH  11  12
ATOM     12  N2  IXV d          22.185  -0.735  57.569  0.00  0.00    -0.389 N 
ATOM     13  H5  IXV d          22.849  -1.157  58.234  0.00  0.00     0.159 HD
BRANCH  12  14
ATOM     14  C21 IXV d          20.952  -1.393  57.370  0.00  0.00     0.027 A 
ATOM     15  C23 IXV d          20.577  -2.486  58.141  0.00  0.00     0.029 A 
ATOM     16  C25 IXV d          19.356  -3.100  57.912  0.00  0.00     0.002 A 
ATOM     17  C26 IXV d          18.513  -2.626  56.920  0.00  0.00     0.000 A 
ATOM     18  C24 IXV d          18.887  -1.533  56.156  0.00  0.00     0.002 A 
ATOM     19  C22 IXV d          20.106  -0.917  56.382  0.00  0.00     0.029 A 
ENDBRANCH  12  14
ENDBRANCH  11  12
ENDBRANCH  10  11
ENDBRANCH   7  10
ENDBRANCH   1   6
BRANCH   3  20
ATOM     20  C10 IXV d          24.719   5.333  59.581  0.00  0.00     0.255 C 
ATOM     21  O   IXV d          24.521   5.816  60.671  0.00  0.00    -0.268 OA
ATOM     22  N   IXV d          25.498   4.194  59.452  0.00  0.00    -0.353 N 
ATOM     23  H18 IXV d          25.809   3.940  58.536  0.00  0.00     0.163 HD
BRANCH  22  24
ATOM     24  C11 IXV d          25.898   3.332  60.584  0.00  0.00     0.161 C 
BRANCH  24  25
ATOM     25  C12 IXV d          24.924   2.219  60.888  0.00  0.00    -0.041 A 
ATOM     26  C14 IXV d          25.304   0.893  60.809  0.00  0.00     0.009 A 
ATOM     27  C16 IXV d          24.381  -0.104  61.095  0.00  0.00     0.001 A 
ATOM     28  C17 IXV d          23.084   0.219  61.462  0.00  0.00     0.000 A 
ATOM     29  C15 IXV d          22.702   1.550  61.539  0.00  0.00     0.001 A 
ATOM     30  C13 IXV d          23.625   2.543  61.252  0.00  0.00     0.009 A 
ENDBRANCH  24  25
ENDBRANCH  22  24
ENDBRANCH   3  20
BRANCH   4  31
ATOM     31  C4  IXV d          25.609   8.057  58.398  0.00  0.00    -0.024 A 
ATOM     32  C6  IXV d          25.345   9.409  58.550  0.00  0.00     0.012 A 
ATOM     33  C8  IXV d          26.316  10.258  59.059  0.00  0.00     0.001 A 
ATOM     34  C9  IXV d          27.554   9.758  59.425  0.00  0.00     0.000 A 
ATOM     35  C7  IXV d          27.820   8.405  59.275  0.00  0.00     0.001 A 
ATOM     36  C5  IXV d          26.850   7.553  58.760  0.00  0.00     0.012 A 
ENDBRANCH   4  31
TORSDOF 9
