REMARK  5 active torsions:
REMARK  status: ('A' for Active; 'I' for Inactive)
REMARK    1  A    between atoms: C9_10  and  C1'_11 
REMARK    2  A    between atoms: C2'_12  and  O2'_13 
REMARK    3  A    between atoms: C3'_14  and  O3'_15 
REMARK    4  A    between atoms: C4'_16  and  C5'_18 
REMARK    5  A    between atoms: C5'_18  and  O5'_19 
ROOT
ATOM      1  N1  FMB d         -18.629  72.496  64.781  0.00  0.00    -0.316 N 
ATOM      2  C2  FMB d         -17.659  72.843  65.692  0.00  0.00     0.210 A 
ATOM      3  N3  FMB d         -17.434  72.188  66.828  0.00  0.00    -0.239 NA
ATOM      4  C4  FMB d         -18.265  71.135  66.971  0.00  0.00     0.120 A 
ATOM      5  C5  FMB d         -19.264  70.708  66.118  0.00  0.00     0.149 A 
ATOM      6  C6  FMB d         -19.496  71.412  64.920  0.00  0.00     0.277 A 
ATOM      7  O6  FMB d         -20.335  71.177  64.046  0.00  0.00    -0.266 OA
ATOM      8  N7  FMB d         -19.900  69.584  66.623  0.00  0.00    -0.270 N 
ATOM      9  N8  FMB d         -19.289  69.356  67.760  0.00  0.00    -0.174 NA
ATOM     10  C9  FMB d         -18.282  70.263  68.034  0.00  0.00     0.117 A 
ATOM     11  H1  FMB d         -18.719  73.061  63.961  0.00  0.00     0.170 HD
ATOM     12  H3  FMB d         -20.674  69.051  66.202  0.00  0.00     0.189 HD
ENDROOT
BRANCH  10  13
ATOM     13  C1' FMB d         -17.551  69.797  69.239  0.00  0.00     0.209 C 
ATOM     14  C2' FMB d         -16.412  70.730  69.634  0.00  0.00     0.184 C 
ATOM     15  C3' FMB d         -16.846  71.330  70.995  0.00  0.00     0.180 C 
ATOM     16  C4' FMB d         -18.319  70.954  71.113  0.00  0.00     0.177 C 
ATOM     17  O4' FMB d         -18.459  69.746  70.329  0.00  0.00    -0.367 OA
BRANCH  14  18
ATOM     18  O2' FMB d         -15.204  69.995  69.656  0.00  0.00    -0.390 OA
ATOM     19  H6  FMB d         -15.275  69.289  70.288  0.00  0.00     0.210 HD
ENDBRANCH  14  18
BRANCH  15  20
ATOM     20  O3' FMB d         -16.116  70.800  72.122  0.00  0.00    -0.390 OA
ATOM     21  H8  FMB d         -15.190  70.984  72.013  0.00  0.00     0.210 HD
ENDBRANCH  15  20
BRANCH  16  22
ATOM     22  C5' FMB d         -19.287  72.022  70.609  0.00  0.00     0.198 C 
BRANCH  22  23
ATOM     23  O5' FMB d         -20.656  71.580  70.556  0.00  0.00    -0.398 OA
ATOM     24  H12 FMB d         -20.725  70.835  69.971  0.00  0.00     0.209 HD
ENDBRANCH  22  23
ENDBRANCH  16  22
ENDBRANCH  10  13
TORSDOF 5
