REMARK  1 active torsions:
REMARK  status: ('A' for Active; 'I' for Inactive)
REMARK    1  A    between atoms: C10_6  and  C9_9 
ROOT
ATOM      1  C4  MOL d          10.889  -6.400 -11.255  0.00  0.00     0.031 A 
ATOM      2  C5  MOL d          10.651  -5.630 -10.016  0.00  0.00    -0.022 A 
ATOM      3  C6  MOL d          11.356  -5.895  -8.718  0.00  0.00     0.041 C 
ATOM      4  C7  MOL d          11.948  -7.305  -8.760  0.00  0.00     0.006 C 
ATOM      5  C8  MOL d          12.694  -7.631 -10.063  0.00  0.00     0.022 C 
ATOM      6  C9  MOL d          11.856  -7.517 -11.343  0.00  0.00     0.137 C 
ATOM      7  C2  MOL d           9.631  -4.641 -10.397  0.00  0.00     0.000 A 
ATOM      8  C1  MOL d           8.975  -3.633  -9.710  0.00  0.00     0.038 A 
ATOM      9  N   MOL d          10.105  -5.929 -12.255  0.00  0.00    -0.358 N 
ATOM     10  C3  MOL d           9.345  -4.904 -11.828  0.00  0.00     0.043 A 
ATOM     11  C11 MOL d           8.405  -4.100 -12.466  0.00  0.00     0.032 A 
ATOM     12  C12 MOL d           7.758  -3.098 -11.749  0.00  0.00     0.026 A 
ATOM     13  C   MOL d           8.031  -2.871 -10.402  0.00  0.00     0.035 A 
ATOM     14 CL   MOL d           7.129  -1.548  -9.613  0.00  0.00    -0.084 Cl
ATOM     15  H   MOL d          10.092  -6.305 -13.214  0.00  0.00     0.166 HD
ENDROOT
BRANCH   6  16
ATOM     16  C10 MOL d          11.101  -8.788 -11.598  0.00  0.00     0.183 C 
ATOM     17  O1  MOL d           9.904  -8.873 -11.388  0.00  0.00    -0.647 OA
ATOM     18  O   MOL d          11.736  -9.855 -12.062  0.00  0.00    -0.647 OA
ENDBRANCH   6  16
TORSDOF 1
