REMARK WARNING: 32 MAX_TORS EXCEEDED!!!
REMARK  36 active torsions:
REMARK  status: ('A' for Active; 'I' for Inactive)
REMARK    1  A    between atoms: N_1  and  CA_2 
REMARK    2  A    between atoms: CA_2  and  C_3 
REMARK       I    between atoms: C_3  and  N_6 
REMARK    3  A    between atoms: N_6  and  CA_7 
REMARK    4  A    between atoms: CA_7  and  C_8 
REMARK    5  A    between atoms: CA_7  and  CB_10 
REMARK       I    between atoms: C_8  and  N_17 
REMARK    6  A    between atoms: CB_10  and  CG_11 
REMARK    7  A    between atoms: CG_11  and  CD_12 
REMARK    8  A    between atoms: CD_12  and  NE_13 
REMARK       I    between atoms: NE_13  and  CZ_14 
REMARK       I    between atoms: CZ_14  and  NH1_15 
REMARK       I    between atoms: CZ_14  and  NH2_16 
REMARK    9  A    between atoms: N_17  and  CA_18 
REMARK   10  A    between atoms: CA_18  and  C_19 
REMARK   11  A    between atoms: CA_18  and  CB_21 
REMARK       I    between atoms: C_19  and  N_24 
REMARK   12  A    between atoms: CB_21  and  OG1_22 
REMARK   13  A    between atoms: N_24  and  CA_25 
REMARK   14  A    between atoms: CA_25  and  CB_26 
REMARK   15  A    between atoms: CA_25  and  C_31 
REMARK   16  A    between atoms: CB_26  and  CG_27 
REMARK   17  A    between atoms: CG_27  and  CD_28 
REMARK   18  A    between atoms: CD_28  and  CE_29 
REMARK   19  A    between atoms: CE_29  and  NZ_30 
REMARK       I    between atoms: C_31  and  N_36 
REMARK   20  A    between atoms: N_36  and  CA_37 
REMARK   21  A    between atoms: CA_37  and  C_38 
REMARK   22  A    between atoms: CA_37  and  CB_40 
REMARK       I    between atoms: C_38  and  N_45 
REMARK   23  A    between atoms: CB_40  and  CG_41 
REMARK   24  A    between atoms: CG_41  and  CD_42 
REMARK       I    between atoms: CD_42  and  NE2_44 
REMARK   25  A    between atoms: N_45  and  CA_46 
REMARK   26  A    between atoms: CA_46  and  C_47 
REMARK   27  A    between atoms: CA_46  and  CB_49 
REMARK       I    between atoms: C_47  and  N_52 
REMARK   28  A    between atoms: CB_49  and  OG1_50 
REMARK   29  A    between atoms: N_52  and  CA_53 
REMARK   30  A    between atoms: CA_53  and  C_54 
REMARK       I    between atoms: C_54  and  N_57 
REMARK   31  A    between atoms: N_57  and  CA_58 
REMARK   32  A    between atoms: CA_58  and  C_59 
REMARK   33  A    between atoms: CA_58  and  CB_61 
REMARK   34  A    between atoms: CB_61  and  CG_62 
REMARK   35  A    between atoms: CG_62  and  CD_63 
REMARK   36  A    between atoms: CD_63  and  NE_64 
REMARK       I    between atoms: NE_64  and  CZ_65 
REMARK       I    between atoms: CZ_65  and  NH1_66 
ROOT
ATOM      1  C   ALA d          15.019   2.738  -1.846  0.00  0.00     0.241 C 
ATOM      2  O   ALA d          15.150   2.021  -2.845  0.00  0.00    -0.271 OA
ATOM      3  N   ALA d          16.036   3.060  -1.049  0.00  0.00    -0.346 N 
ATOM      4  H47 ALA d          15.908   3.758  -0.344  0.00  0.00     0.163 HD
ENDROOT
BRANCH   1   5
ATOM      5  CA  ALA d          13.682   3.321  -1.500  0.00  0.00     0.176 C 
BRANCH   5   6
ATOM      6  N   ALA d          13.088   3.953  -2.707  0.00  0.00    -0.346 N 
ATOM      7  C   ALA d          13.556   5.088  -3.213  0.00  0.00     0.243 C 
ATOM      8  O   ALA d          14.463   5.750  -2.687  0.00  0.00    -0.271 OA
ATOM      9  H28 ALA d          12.311   3.509  -3.152  0.00  0.00     0.163 HD
BRANCH   7  10
ATOM     10  CA  ALA d          12.882   5.565  -4.482  0.00  0.00     0.205 C 
BRANCH  10  11
ATOM     11  N   ALA d          12.517   6.949  -4.284  0.00  0.00    -0.344 N 
ATOM     12  C   ALA d          11.333   7.273  -3.793  0.00  0.00     0.241 C 
ATOM     13  O   ALA d          10.428   6.459  -3.600  0.00  0.00    -0.271 OA
ATOM     14  H21 ALA d          13.168   7.670  -4.521  0.00  0.00     0.163 HD
BRANCH  12  15
ATOM     15  CA  ALA d          11.155   8.726  -3.461  0.00  0.00     0.176 C 
BRANCH  15  16
ATOM     16  N   ALA d           9.755   9.099  -3.605  0.00  0.00    -0.346 N 
ATOM     17  C   ALA d           9.155   9.093  -4.793  0.00  0.00     0.248 C 
ATOM     18  O   ALA d           9.734   8.783  -5.835  0.00  0.00    -0.271 OA
ATOM     19  H8  ALA d           9.233   9.365  -2.794  0.00  0.00     0.163 HD
BRANCH  17  20
ATOM     20  CA  ALA d           7.685   9.497  -4.820  0.00  0.00     0.270 C 
ATOM     21  CB  ALA d           6.821   8.398  -4.217  0.00  0.00     0.050 C 
BRANCH  20  22
ATOM     22  N   ALA d           7.266   9.780  -6.191  0.00  0.00    -0.067 N 
ATOM     23  H1  ALA d           6.294  10.046  -6.197  0.00  0.00     0.275 HD
ATOM     24  H2  ALA d           7.393   8.956  -6.758  0.00  0.00     0.275 HD
ATOM     25  H3  ALA d           7.822  10.533  -6.564  0.00  0.00     0.275 HD
ENDBRANCH  20  22
ENDBRANCH  17  20
ENDBRANCH  15  16
BRANCH  15  26
ATOM     26  CB  ALA d          11.644   8.928  -2.029  0.00  0.00     0.036 C 
BRANCH  26  27
ATOM     27  CG  ALA d          11.742  10.352  -1.625  0.00  0.00     0.023 C 
BRANCH  27  28
ATOM     28  CD  ALA d          12.097  10.505  -0.151  0.00  0.00     0.138 C 
BRANCH  28  29
ATOM     29  NE  ALA d          11.827  11.889   0.208  0.00  0.00    -0.227 N 
ATOM     30  CZ  ALA d          12.656  12.889  -0.055  0.00  0.00     0.665 C 
ATOM     31  NH1 ALA d          13.824  12.636  -0.635  0.00  0.00    -0.235 N 
ATOM     32  NH2 ALA d          12.332  14.132   0.280  0.00  0.00    -0.235 N 
ATOM     33  H17 ALA d          14.474  13.408  -0.843  0.00  0.00     0.174 HD
ATOM     34  H18 ALA d          14.080  11.668  -0.877  0.00  0.00     0.174 HD
ATOM     35  H19 ALA d          11.425  14.325   0.730  0.00  0.00     0.174 HD
ATOM     36  H20 ALA d          12.987  14.904   0.090  0.00  0.00     0.174 HD
ATOM     37  H16 ALA d          10.944  12.103   0.693  0.00  0.00     0.177 HD
ENDBRANCH  28  29
ENDBRANCH  27  28
ENDBRANCH  26  27
ENDBRANCH  15  26
ENDBRANCH  12  15
ENDBRANCH  10  11
BRANCH  10  38
ATOM     38  CB  ALA d          13.826   5.399  -5.676  0.00  0.00     0.146 C 
ATOM     39  CG2 ALA d          13.942   3.929  -6.056  0.00  0.00     0.042 C 
BRANCH  38  40
ATOM     40  OG1 ALA d          13.313   6.140  -6.792  0.00  0.00    -0.393 OA
ATOM     41  H24 ALA d          13.898   6.038  -7.534  0.00  0.00     0.210 HD
ENDBRANCH  38  40
ENDBRANCH  10  38
ENDBRANCH   7  10
ENDBRANCH   5   6
BRANCH   5  42
ATOM     42  CB  ALA d          12.727   2.217  -1.048  0.00  0.00     0.035 C 
BRANCH  42  43
ATOM     43  CG  ALA d          12.992   1.694   0.356  0.00  0.00     0.004 C 
BRANCH  43  44
ATOM     44  CD  ALA d          12.633   2.695   1.455  0.00  0.00     0.028 C 
BRANCH  44  45
ATOM     45  CE  ALA d          12.968   2.077   2.809  0.00  0.00     0.236 C 
BRANCH  45  46
ATOM     46  NZ  ALA d          12.753   2.980   3.954  0.00  0.00    -0.079 N 
ATOM     47  CM1 ALA d          13.096   2.226   5.175  0.00  0.00     0.271 C 
ATOM     48  CM2 ALA d          11.360   3.430   4.039  0.00  0.00     0.271 C 
ATOM     49  CM3 ALA d          13.600   4.174   3.851  0.00  0.00     0.271 C 
ENDBRANCH  45  46
ENDBRANCH  44  45
ENDBRANCH  43  44
ENDBRANCH  42  43
ENDBRANCH   5  42
ENDBRANCH   1   5
BRANCH   3  50
ATOM     50  CA  ALA d          17.333   2.409  -1.189  0.00  0.00     0.177 C 
BRANCH  50  51
ATOM     51  C   ALA d          17.260   1.053  -0.480  0.00  0.00     0.241 C 
ATOM     52  O   ALA d          16.987   0.988   0.718  0.00  0.00    -0.271 OA
ATOM     53  N   ALA d          17.491  -0.027  -1.216  0.00  0.00    -0.344 N 
ATOM     54  H55 ALA d          17.805   0.078  -2.160  0.00  0.00     0.163 HD
BRANCH  53  55
ATOM     55  CA  ALA d          17.293  -1.371  -0.666  0.00  0.00     0.205 C 
BRANCH  55  56
ATOM     56  C   ALA d          18.391  -1.760   0.317  0.00  0.00     0.243 C 
ATOM     57  O   ALA d          18.192  -2.615   1.184  0.00  0.00    -0.271 OA
ATOM     58  N   ALA d          19.555  -1.138   0.169  0.00  0.00    -0.346 N 
ATOM     59  H62 ALA d          19.675  -0.496  -0.588  0.00  0.00     0.163 HD
BRANCH  58  60
ATOM     60  CA  ALA d          20.660  -1.372   1.087  0.00  0.00     0.172 C 
ATOM     61  CB  ALA d          21.880  -1.869   0.338  0.00  0.00     0.042 C 
BRANCH  60  62
ATOM     62  C   ALA d          20.980  -0.097   1.854  0.00  0.00     0.240 C 
ATOM     63  O   ALA d          20.676   1.007   1.395  0.00  0.00    -0.271 OA
ATOM     64  N   ALA d          21.599  -0.251   3.019  0.00  0.00    -0.345 N 
ATOM     65  H67 ALA d          21.883  -1.165   3.309  0.00  0.00     0.163 HD
BRANCH  64  66
ATOM     66  CA  ALA d          21.870   0.892   3.881  0.00  0.00     0.185 C 
BRANCH  66  67
ATOM     67  C   ALA d          22.814   0.544   5.034  0.00  0.00     0.196 C 
ATOM     68  O   ALA d          23.050  -0.627   5.345  0.00  0.00    -0.646 OA
ATOM     69  OXT ALA d          23.356   1.435   5.692  0.00  0.00    -0.646 OA
ENDBRANCH  66  67
BRANCH  66  70
ATOM     70  CB  ALA d          20.559   1.429   4.446  0.00  0.00     0.038 C 
BRANCH  70  71
ATOM     71  CG  ALA d          20.143   0.763   5.748  0.00  0.00     0.023 C 
BRANCH  71  72
ATOM     72  CD  ALA d          19.050  -0.259   5.576  0.00  0.00     0.138 C 
BRANCH  72  73
ATOM     73  NE  ALA d          18.423  -0.560   6.860  0.00  0.00    -0.227 N 
ATOM     74  CZ  ALA d          19.019  -1.225   7.841  0.00  0.00     0.665 C 
ATOM     75  NH1 ALA d          18.372  -1.454   8.978  0.00  0.00    -0.235 N 
ATOM     76  NH2 ALA d          20.262  -1.663   7.686  0.00  0.00    -0.235 N 
ATOM     77  H76 ALA d          18.835  -1.970   9.739  0.00  0.00     0.174 HD
ATOM     78  H77 ALA d          17.407  -1.115   9.099  0.00  0.00     0.174 HD
ATOM     79  H78 ALA d          20.764  -1.486   6.804  0.00  0.00     0.174 HD
ATOM     80  H79 ALA d          20.724  -2.180   8.447  0.00  0.00     0.174 HD
ATOM     81  H75 ALA d          17.457  -0.236   7.014  0.00  0.00     0.177 HD
ENDBRANCH  72  73
ENDBRANCH  71  72
ENDBRANCH  70  71
ENDBRANCH  66  70
ENDBRANCH  64  66
ENDBRANCH  60  62
ENDBRANCH  58  60
ENDBRANCH  55  56
BRANCH  55  82
ATOM     82  CB  ALA d          17.204  -2.442  -1.775  0.00  0.00     0.146 C 
ATOM     83  CG2 ALA d          15.876  -2.334  -2.531  0.00  0.00     0.042 C 
BRANCH  82  84
ATOM     84  OG1 ALA d          18.291  -2.264  -2.690  0.00  0.00    -0.393 OA
ATOM     85  H58 ALA d          18.239  -2.922  -3.374  0.00  0.00     0.210 HD
ENDBRANCH  82  84
ENDBRANCH  55  82
ENDBRANCH  53  55
ENDBRANCH  50  51
BRANCH  50  86
ATOM     86  CB  ALA d          18.436   3.275  -0.577  0.00  0.00     0.044 C 
BRANCH  86  87
ATOM     87  CG  ALA d          18.508   4.689  -1.163  0.00  0.00     0.105 C 
BRANCH  87  88
ATOM     88  CD  ALA d          19.658   5.502  -0.582  0.00  0.00     0.215 C 
ATOM     89  OE1 ALA d          19.934   5.457   0.625  0.00  0.00    -0.274 OA
ATOM     90  NE2 ALA d          20.336   6.242  -1.440  0.00  0.00    -0.370 N 
ATOM     91  H53 ALA d          21.103   6.800  -1.123  0.00  0.00     0.159 HD
ATOM     92  H54 ALA d          20.082   6.245  -2.407  0.00  0.00     0.159 HD
ENDBRANCH  87  88
ENDBRANCH  86  87
ENDBRANCH  50  86
ENDBRANCH   3  50
TORSDOF 36
