REMARK  1 active torsions:
REMARK  status: ('A' for Active; 'I' for Inactive)
REMARK    1  A    between atoms: C26_26  and  N27_27 
ROOT
ATOM      1  C1  VHA d          10.671   0.666  15.062  0.00  0.00     0.051 A 
ATOM      2  C2  VHA d           9.753   0.780  14.009  0.00  0.00     0.002 A 
ATOM      3  C3  VHA d           9.042  -0.348  13.571  0.00  0.00    -0.049 A 
ATOM      4  C4  VHA d           8.017  -0.313  12.437  0.00  0.00     0.049 C 
ATOM      5  C5  VHA d           9.263  -1.588  14.205  0.00  0.00     0.010 A 
ATOM      6  C6  VHA d          10.175  -1.674  15.254  0.00  0.00     0.037 A 
ATOM      7  C7  VHA d          10.910  -0.561  15.683  0.00  0.00     0.069 A 
ATOM      8  O8  VHA d          11.855  -0.673  16.698  0.00  0.00    -0.351 OA
ATOM      9  C9  VHA d          12.647   0.523  17.011  0.00  0.00     0.175 C 
ATOM     10  C10 VHA d          13.899   0.344  17.911  0.00  0.00     0.029 C 
ATOM     11  C11 VHA d          14.644   1.667  18.174  0.00  0.00     0.029 C 
ATOM     12  C12 VHA d          15.328   2.206  16.910  0.00  0.00     0.175 C 
ATOM     13  O13 VHA d          14.264   3.001  16.294  0.00  0.00    -0.351 OA
ATOM     14  C14 VHA d          14.435   3.404  15.012  0.00  0.00     0.070 A 
ATOM     15  C15 VHA d          13.310   3.963  14.408  0.00  0.00     0.055 A 
ATOM     16  C16 VHA d          15.646   3.353  14.303  0.00  0.00     0.037 A 
ATOM     17  C17 VHA d          15.712   3.806  12.986  0.00  0.00     0.004 A 
ATOM     18  C18 VHA d          14.575   4.376  12.386  0.00  0.00     0.019 A 
ATOM     19  C19 VHA d          13.386   4.408  13.089  0.00  0.00     0.009 A 
ATOM     20  S20 VHA d          11.991   5.109  12.269  0.00  0.00    -0.070 SA
ATOM     21  C21 VHA d          10.616   4.091  12.671  0.00  0.00     0.119 A 
ATOM     22  N22 VHA d           9.438   4.664  12.532  0.00  0.00    -0.056 NA
ATOM     23  C23 VHA d          10.755   2.779  13.123  0.00  0.00     0.073 A 
ATOM     24  C24 VHA d           9.618   2.069  13.486  0.00  0.00     0.089 A 
ATOM     25  N25 VHA d           8.422   2.689  13.381  0.00  0.00    -0.062 NA
ATOM     26  C26 VHA d           8.335   3.935  12.865  0.00  0.00     0.721 A 
ENDROOT
BRANCH  26  27
ATOM     27  N27 VHA d           7.138   4.509  12.796  0.00  0.00    -0.231 N 
ATOM     28  H20 VHA d           7.044   5.458  12.407  0.00  0.00     0.174 HD
ATOM     29  H21 VHA d           6.305   4.005  13.132  0.00  0.00     0.174 HD
ENDBRANCH  26  27
TORSDOF 1
