REMARK  3 active torsions:
REMARK  status: ('A' for Active; 'I' for Inactive)
REMARK    1  A    between atoms: C1_1  and  O7_7 
REMARK    2  A    between atoms: C2_2  and  O8_8 
REMARK    3  A    between atoms: C4_4  and  N9_9 
ROOT
ATOM      1  C1  MOL d           9.914 -13.047  41.284  0.00  0.00     0.098 A 
ATOM      2  C2  MOL d           9.606 -14.139  40.503  0.00  0.00     0.101 A 
ATOM      3  C3  MOL d          10.598 -14.968  40.026  0.00  0.00     0.075 A 
ATOM      4  C4  MOL d          11.915 -14.695  40.343  0.00  0.00     0.105 A 
ATOM      5  C5  MOL d          12.235 -13.602  41.131  0.00  0.00     0.039 A 
ATOM      6  C6  MOL d          11.230 -12.781  41.596  0.00  0.00     0.042 A 
ENDROOT
BRANCH   4   7
ATOM      7  N9  MOL d          12.968 -15.556  39.837  0.00  0.00    -0.116 N 
ATOM      8  O11 MOL d          14.173 -15.343  40.094  0.00  0.00    -0.532 OA
ATOM      9  O10 MOL d          12.705 -16.540  39.114  0.00  0.00    -0.532 OA
ENDBRANCH   4   7
BRANCH   2  10
ATOM     10  O8  MOL d           8.272 -14.383  40.215  0.00  0.00    -0.358 OA
ATOM     11  H5  MOL d           8.203 -15.160  39.673  0.00  0.00     0.217 HD
ENDBRANCH   2  10
BRANCH   1  12
ATOM     12  O7  MOL d           8.899 -12.227  41.755  0.00  0.00    -0.358 OA
ATOM     13  H4  MOL d           8.062 -12.553  41.447  0.00  0.00     0.217 HD
ENDBRANCH   1  12
TORSDOF 3
