REMARK  2 active torsions:
REMARK  status: ('A' for Active; 'I' for Inactive)
REMARK    1  A    between atoms: C1_1  and  C2_4 
REMARK    2  A    between atoms: C2_4  and  O3_5 
ROOT
ATOM      1  C2  PYR d          29.400  47.063  52.230  0.00  0.00     0.214 C 
ATOM      2  C3  PYR d          28.574  47.084  53.467  0.00  0.00     0.050 C 
ENDROOT
BRANCH   1   3
ATOM      3  C1  PYR d          29.736  45.806  51.716  0.00  0.00     0.202 C 
ATOM      4  O1  PYR d          30.449  45.725  50.638  0.00  0.00    -0.646 OA
ATOM      5  O2  PYR d          29.321  44.714  52.305  0.00  0.00    -0.646 OA
ENDBRANCH   1   3
BRANCH   1   6
ATOM      6  O3  PYR d          29.811  48.166  51.626  0.00  0.00    -0.385 OA
ATOM      7  H2  PYR d          29.496  48.924  52.104  0.00  0.00     0.210 HD
ENDBRANCH   1   6
TORSDOF 2
