REMARK  14 active torsions:
REMARK  status: ('A' for Active; 'I' for Inactive)
REMARK    1  A    between atoms: N1_1  and  C6_4 
REMARK    2  A    between atoms: C4_2  and  C7_5 
REMARK    3  A    between atoms: C5_3  and  C27_25 
REMARK    4  A    between atoms: C7_5  and  C8_6 
REMARK    5  A    between atoms: C8_6  and  C9_23 
REMARK    6  A    between atoms: C10_7  and  C11_21 
REMARK    7  A    between atoms: C9_23  and  C10_7 
REMARK    8  A    between atoms: C35_20  and  C36_18 
REMARK    9  A    between atoms: C11_21  and  C35_20 
REMARK   10  A    between atoms: C11_21  and  O3_22 
REMARK   11  A    between atoms: C9_23  and  O4_24 
REMARK   12  A    between atoms: C3_37  and  C2_30 
REMARK   13  A    between atoms: C1_31  and  C31_32 
REMARK       I    between atoms: N2_39  and  C3_37 
REMARK   14  A    between atoms: N2_39  and  C32_40 
ROOT
ATOM      1  N1  MOL d          -4.376 -16.149   5.981  0.00  0.00    -0.340 N 
ATOM      2  C4  MOL d          -4.314 -16.166   7.337  0.00  0.00     0.025 A 
ATOM      3  C5  MOL d          -5.592 -15.923   7.783  0.00  0.00     0.010 A 
ATOM      4  C2  MOL d          -5.651 -15.899   5.575  0.00  0.00     0.116 A 
ATOM      5  C1  MOL d          -6.400 -15.696   6.719  0.00  0.00     0.020 A 
ENDROOT
BRANCH   2   6
ATOM      6  C7  MOL d          -3.116 -16.437   8.207  0.00  0.00     0.061 C 
BRANCH   6   7
ATOM      7  C8  MOL d          -2.136 -15.281   8.159  0.00  0.00     0.038 C 
BRANCH   7   8
ATOM      8  C9  MOL d          -1.146 -15.448   9.304  0.00  0.00     0.120 C 
BRANCH   8   9
ATOM      9  C10 MOL d          -0.606 -14.078   9.693  0.00  0.00     0.064 C 
BRANCH   9  10
ATOM     10  C11 MOL d          -1.550 -13.391  10.670  0.00  0.00     0.130 C 
BRANCH  10  11
ATOM     11  C35 MOL d          -1.102 -11.948  10.874  0.00  0.00     0.144 C 
BRANCH  11  12
ATOM     12  C36 MOL d          -2.148 -11.136  11.607  0.00  0.00     0.175 C 
ATOM     13  O7  MOL d          -1.992 -10.922  12.830  0.00  0.00    -0.648 OA
ATOM     14  O6  MOL d          -3.126 -10.698  10.963  0.00  0.00    -0.648 OA
ENDBRANCH  11  12
ENDBRANCH  10  11
BRANCH  10  15
ATOM     15  O3  MOL d          -1.507 -14.144  11.870  0.00  0.00    -0.395 OA
ATOM     16  H21 MOL d          -1.793 -15.033  11.695  0.00  0.00     0.210 HD
ENDBRANCH  10  15
ENDBRANCH   9  10
ENDBRANCH   8   9
BRANCH   8  17
ATOM     17  O4  MOL d          -0.093 -16.295   8.881  0.00  0.00    -0.395 OA
ATOM     18  H23 MOL d          -0.447 -17.144   8.643  0.00  0.00     0.210 HD
ENDBRANCH   8  17
ENDBRANCH   7   8
ENDBRANCH   6   7
ENDBRANCH   2   6
BRANCH   1  19
ATOM     19  C6  MOL d          -3.205 -16.403   5.093  0.00  0.00     0.082 C 
ATOM     20  C13 MOL d          -2.812 -15.151   4.314  0.00  0.00     0.032 C 
ATOM     21  C14 MOL d          -3.544 -17.567   4.181  0.00  0.00     0.032 C 
ENDBRANCH   1  19
BRANCH   3  22
ATOM     22  C27 MOL d          -5.972 -15.788   9.219  0.00  0.00    -0.023 A 
ATOM     23  C21 MOL d          -5.422 -14.696   9.894  0.00  0.00     0.015 A 
ATOM     24  C24 MOL d          -5.709 -14.473  11.235  0.00  0.00     0.043 A 
ATOM     25  C30 MOL d          -6.565 -15.343  11.901  0.00  0.00     0.116 A 
ATOM     26  C15 MOL d          -7.123 -16.434  11.228  0.00  0.00     0.043 A 
ATOM     27  F1  MOL d          -6.845 -15.128  13.198  0.00  0.00    -0.206 F 
ATOM     28  C18 MOL d          -6.830 -16.662   9.881  0.00  0.00     0.015 A 
ENDBRANCH   3  22
BRANCH   4  29
ATOM     29  C3  MOL d          -6.203 -15.747   4.202  0.00  0.00     0.273 C 
ATOM     30  O1  MOL d          -5.809 -14.754   3.600  0.00  0.00    -0.266 OA
ATOM     31  N2  MOL d          -7.003 -16.674   3.651  0.00  0.00    -0.322 N 
ATOM     32  H31 MOL d          -7.302 -17.451   4.205  0.00  0.00     0.169 HD
BRANCH  31  33
ATOM     33  C32 MOL d          -7.434 -16.580   2.305  0.00  0.00     0.035 A 
ATOM     34  C17 MOL d          -7.856 -15.370   1.745  0.00  0.00     0.029 A 
ATOM     35  C20 MOL d          -8.258 -15.307   0.413  0.00  0.00     0.002 A 
ATOM     36  C29 MOL d          -8.260 -16.453  -0.377  0.00  0.00     0.000 A 
ATOM     37  C23 MOL d          -7.848 -17.663   0.175  0.00  0.00     0.002 A 
ATOM     38  C26 MOL d          -7.435 -17.725   1.504  0.00  0.00     0.029 A 
ENDBRANCH  31  33
ENDBRANCH   4  29
BRANCH   5  39
ATOM     39  C31 MOL d          -7.851 -15.450   6.887  0.00  0.00    -0.022 A 
ATOM     40  C25 MOL d          -8.323 -14.339   7.575  0.00  0.00     0.015 A 
ATOM     41  C22 MOL d          -9.690 -14.171   7.754  0.00  0.00     0.043 A 
ATOM     42  C28 MOL d         -10.580 -15.129   7.272  0.00  0.00     0.116 A 
ATOM     43  F2  MOL d         -11.895 -14.948   7.452  0.00  0.00    -0.206 F 
ATOM     44  C19 MOL d         -10.109 -16.256   6.606  0.00  0.00     0.043 A 
ATOM     45  C16 MOL d          -8.738 -16.422   6.426  0.00  0.00     0.015 A 
ENDBRANCH   5  39
TORSDOF 14
