REMARK  2 active torsions:
REMARK  status: ('A' for Active; 'I' for Inactive)
REMARK    1  A    between atoms: C1_5  and  S_8 
REMARK    2  A    between atoms: S_8  and  N_9 
ROOT
ATOM      1  C4  FB1 d          16.404   6.135  14.289  0.00  0.00     0.002 A 
ATOM      2 CL1  FB1 d          14.272   5.573  17.489  0.00  0.00    -0.083 Cl
ATOM      3  C3  FB1 d          16.844   4.851  14.015  0.00  0.00     0.002 A 
ATOM      4  C2  FB1 d          16.480   3.776  14.818  0.00  0.00     0.027 A 
ATOM      5  C1  FB1 d          15.659   3.923  15.951  0.00  0.00     0.101 A 
ATOM      6  C6  FB1 d          15.235   5.227  16.183  0.00  0.00     0.057 A 
ATOM      7  C5  FB1 d          15.575   6.303  15.362  0.00  0.00     0.025 A 
ENDROOT
BRANCH   5   8
ATOM      8  S   FB1 d          15.185   2.603  16.858  0.00  0.00     0.258 S 
ATOM      9  O1  FB1 d          15.626   2.744  18.182  0.00  0.00    -0.201 OA
ATOM     10  O2  FB1 d          13.754   2.567  16.835  0.00  0.00    -0.201 OA
BRANCH   8  11
ATOM     11  N   FB1 d          15.670   1.223  16.174  0.00  0.00    -0.324 N 
ATOM     12  H5  FB1 d          15.456   0.348  16.608  0.00  0.00     0.169 HD
ATOM     13  H6  FB1 d          16.184   1.244  15.316  0.00  0.00     0.169 HD
ENDBRANCH   8  11
ENDBRANCH   5   8
TORSDOF 2
