REMARK  17 active torsions:
REMARK  status: ('A' for Active; 'I' for Inactive)
REMARK    1  A    between atoms: C2_2  and  O2_3 
REMARK    2  A    between atoms: C3_4  and  O3_5 
REMARK    3  A    between atoms: O4_7  and  C4_6 
REMARK    4  A    between atoms: C1_12  and  O4_7 
REMARK    5  A    between atoms: C5_8  and  C6_10 
REMARK    6  A    between atoms: C6_10  and  O6_11 
REMARK    7  A    between atoms: C2_13  and  N2_20 
REMARK    8  A    between atoms: C3_14  and  O3_21 
REMARK    9  A    between atoms: O4_22  and  C4_15 
REMARK   10  A    between atoms: C5_16  and  C6_17 
REMARK   11  A    between atoms: C6_17  and  O6_24 
REMARK       I    between atoms: N2_20  and  C7_18 
REMARK   12  A    between atoms: C1_26  and  O4_22 
REMARK   13  A    between atoms: N2_34  and  C2_27 
REMARK   14  A    between atoms: C3_28  and  O3_35 
REMARK   15  A    between atoms: C4_29  and  O4_36 
REMARK   16  A    between atoms: C5_30  and  C6_31 
REMARK   17  A    between atoms: C6_31  and  O6_38 
REMARK       I    between atoms: C7_32  and  N2_34 
ROOT
ATOM      1  C1  NOJ d         -24.334  -5.007  -7.589  0.00  0.00     0.286 C 
ATOM      2  C2  NOJ d         -23.487  -3.863  -8.104  0.00  0.00     0.170 C 
ATOM      3  C3  NOJ d         -24.288  -3.116  -9.173  0.00  0.00     0.177 C 
ATOM      4  C4  NOJ d         -24.897  -4.029 -10.260  0.00  0.00     0.186 C 
ATOM      5  C5  NOJ d         -25.574  -5.230  -9.600  0.00  0.00     0.180 C 
ATOM      6  O5  NOJ d         -24.695  -5.838  -8.674  0.00  0.00    -0.349 OA
ENDROOT
BRANCH   4   7
ATOM      7  O4  NOJ d         -25.868  -3.331 -11.022  0.00  0.00    -0.348 OA
BRANCH   7   8
ATOM      8  C1  NOJ d         -25.558  -3.253 -12.425  0.00  0.00     0.286 C 
ATOM      9  C2  NOJ d         -26.857  -3.000 -13.212  0.00  0.00     0.170 C 
ATOM     10  C3  NOJ d         -26.572  -2.669 -14.682  0.00  0.00     0.177 C 
ATOM     11  C4  NOJ d         -25.478  -1.615 -14.830  0.00  0.00     0.180 C 
ATOM     12  C5  NOJ d         -24.253  -1.996 -13.998  0.00  0.00     0.179 C 
ATOM     13  O5  NOJ d         -24.636  -2.213 -12.655  0.00  0.00    -0.349 OA
BRANCH   9  14
ATOM     14  N2  NOJ d         -27.767  -4.135 -13.143  0.00  0.00    -0.349 N 
ATOM     15  C7  NOJ d         -28.848  -4.169 -12.359  0.00  0.00     0.214 C 
ATOM     16  C8  NOJ d         -29.682  -5.416 -12.418  0.00  0.00     0.117 C 
ATOM     17  O7  NOJ d         -29.179  -3.254 -11.604  0.00  0.00    -0.274 OA
ATOM     18  H37 NOJ d         -27.572  -4.933 -13.714  0.00  0.00     0.163 HD
ENDBRANCH   9  14
BRANCH  10  19
ATOM     19  O3  NOJ d         -27.748  -2.216 -15.326  0.00  0.00    -0.391 OA
ATOM     20  H38 NOJ d         -27.567  -2.071 -16.247  0.00  0.00     0.210 HD
ENDBRANCH  10  19
BRANCH  11  21
ATOM     21  O4  NOJ d         -25.120  -1.473 -16.190  0.00  0.00    -0.390 OA
ATOM     22  H39 NOJ d         -25.889  -1.236 -16.696  0.00  0.00     0.210 HD
ENDBRANCH  11  21
BRANCH  12  23
ATOM     23  C6  NOJ d         -23.240  -0.867 -14.003  0.00  0.00     0.198 C 
BRANCH  23  24
ATOM     24  O6  NOJ d         -23.801   0.231 -13.308  0.00  0.00    -0.398 OA
ATOM     25  H40 NOJ d         -23.998  -0.028 -12.416  0.00  0.00     0.209 HD
ENDBRANCH  23  24
ENDBRANCH  12  23
ENDBRANCH   7   8
ENDBRANCH   4   7
BRANCH   3  26
ATOM     26  O3  NOJ d         -23.456  -2.148  -9.742  0.00  0.00    -0.391 OA
ATOM     27  H25 NOJ d         -23.960  -1.613 -10.343  0.00  0.00     0.210 HD
ENDBRANCH   3  26
BRANCH   5  28
ATOM     28  C6  NOJ d         -26.016  -6.305 -10.590  0.00  0.00     0.198 C 
BRANCH  28  29
ATOM     29  O6  NOJ d         -26.401  -7.446  -9.858  0.00  0.00    -0.398 OA
ATOM     30  H26 NOJ d         -25.663  -7.756  -9.346  0.00  0.00     0.209 HD
ENDBRANCH  28  29
ENDBRANCH   5  28
BRANCH   2  31
ATOM     31  N2  NOJ d         -23.170  -3.029  -6.957  0.00  0.00    -0.349 N 
ATOM     32  C7  NOJ d         -21.941  -2.821  -6.484  0.00  0.00     0.214 C 
ATOM     33  C8  NOJ d         -21.841  -1.954  -5.268  0.00  0.00     0.117 C 
ATOM     34  O7  NOJ d         -20.916  -3.291  -6.978  0.00  0.00    -0.274 OA
ATOM     35  H24 NOJ d         -23.929  -2.578  -6.488  0.00  0.00     0.163 HD
ENDBRANCH   2  31
BRANCH   1  36
ATOM     36  O4  NOJ d         -23.526  -5.680  -6.620  0.00  0.00    -0.349 OA
BRANCH  36  37
ATOM     37  C4  NOJ d         -24.176  -6.397  -5.569  0.00  0.00     0.188 C 
ATOM     38  C3  NOJ d         -24.517  -7.806  -6.074  0.00  0.00     0.179 C 
ATOM     39  C2  NOJ d         -24.882  -8.759  -4.946  0.00  0.00     0.175 C 
ATOM     40  C1  NOJ d         -23.784  -8.789  -3.884  0.00  0.00     0.267 C 
ATOM     41  N5  NOJ d         -23.483  -7.447  -3.416  0.00  0.00    -0.064 N 
ATOM     42  C5  NOJ d         -23.231  -6.364  -4.357  0.00  0.00     0.240 C 
ATOM     43  H9  NOJ d         -22.660  -7.522  -2.839  0.00  0.00     0.277 HD
ATOM     44  H10 NOJ d         -24.265  -7.159  -2.850  0.00  0.00     0.277 HD
BRANCH  38  45
ATOM     45  O3  NOJ d         -25.623  -7.752  -6.988  0.00  0.00    -0.390 OA
ATOM     46  H6  NOJ d         -25.414  -7.160  -7.702  0.00  0.00     0.210 HD
ENDBRANCH  38  45
BRANCH  39  47
ATOM     47  O2  NOJ d         -25.060 -10.066  -5.507  0.00  0.00    -0.391 OA
ATOM     48  H4  NOJ d         -25.744 -10.036  -6.165  0.00  0.00     0.210 HD
ENDBRANCH  39  47
BRANCH  42  49
ATOM     49  C6  NOJ d         -23.283  -5.028  -3.608  0.00  0.00     0.199 C 
BRANCH  49  50
ATOM     50  O6  NOJ d         -24.518  -4.868  -2.893  0.00  0.00    -0.399 OA
ATOM     51  H13 NOJ d         -24.515  -4.032  -2.442  0.00  0.00     0.209 HD
ENDBRANCH  49  50
ENDBRANCH  42  49
ENDBRANCH  36  37
ENDBRANCH   1  36
TORSDOF 17
