2qrm_ligand

Created by X-TOOL on Fri Sep 26 17:34:40 2014
 40 42  0  0  0  0  0  0  0  0999 V2000
   36.6780   24.5020   31.1920  C 0  0  0  2  0  3
   37.3420   24.9560   32.3400  C 0  0  0  2  0  3
   36.6090   25.4560   33.4240  C 0  0  0  1  0  3
   37.2180   25.8980   34.5350  N 0  0  0  1  0  3
   38.6190   26.1100   34.5570  O 0  0  0  1  0  1
   36.4580   26.1600   35.7100  O 0  0  0  1  0  1
   35.2160   25.4980   33.3520  C 0  0  0  2  0  3
   34.5570   25.0440   32.2090  C 0  0  0  2  0  3
   35.2780   24.5430   31.1280  C 0  0  0  1  0  3
   34.5840   24.1120   29.9890  C 0  0  0  1  0  3
   35.1790   23.4320   28.7600  C 0  0  0  3  0  4
   33.2710   24.2520   29.7820  N 0  0  0  1  0  2
   32.8500   23.7430   28.5110  O 0  0  0  1  0  2
   33.9420   22.9760   27.9790  C 0  0  0  1  0  4
   33.7100   21.5730   28.2340  O 0  0  0  1  0  2
   32.5160   21.0510   27.5850  C 0  0  0  2  0  4
   32.3730   19.5830   28.0010  C 0  0  0  3  0  4
   33.4110   18.8130   27.3890  O 0  0  0  2  0  2
   32.6240   21.2220   26.0500  C 0  0  0  2  0  4
   31.4130   20.7890   25.4240  O 0  0  0  2  0  2
   32.9120   22.6730   25.6560  C 0  0  0  2  0  4
   33.1810   22.7210   24.2440  O 0  0  0  2  0  2
   34.1110   23.2240   26.4560  C 0  0  0  2  0  4
   34.3030   24.6190   26.1700  O 0  0  0  2  0  2
   37.2474   24.1189   30.3529  H 0  0  0  1  0  1
   38.4243   24.9201   32.3890  H 0  0  0  1  0  1
   34.6437   25.8849   34.1874  H 0  0  0  1  0  1
   33.4747   25.0816   32.1620  H 0  0  0  1  0  1
   35.8027   22.5728   29.0477  H 0  0  0  1  0  1
   35.7795   24.1396   28.1696  H 0  0  0  1  0  1
   31.6355   21.6093   27.9357  H 0  0  0  1  0  1
   31.3935   19.2029   27.6754  H 0  0  0  1  0  1
   32.4525   19.5021   29.0951  H 0  0  0  1  0  1
   34.2563   19.1424   27.6709  H 0  0  0  1  0  1
   33.4524   20.5941   25.6902  H 0  0  0  1  0  1
   31.4879   20.8973   24.4831  H 0  0  0  1  0  1
   32.0274   23.2888   25.8757  H 0  0  0  1  0  1
   32.4243   22.4003   23.7675  H 0  0  0  1  0  1
   35.0119   22.6847   26.1281  H 0  0  0  1  0  1
   34.4714   24.7305   25.2417  H 0  0  0  1  0  1
  1  2  4  0  0  1
  1  9  4  0  0  1
  2  3  4  0  0  1
  3  4  1  0  0  2
  3  7  4  0  0  1
  4  5  2  0  0  2
  4  6  2  0  0  2
  7  8  4  0  0  1
  8  9  4  0  0  1
  9 10  1  0  0  2
 10 11  1  0  0  1
 10 12  2  0  0  1
 11 14  1  0  0  1
 12 13  1  0  0  1
 13 14  1  0  0  1
 14 15  1  0  0  1
 14 23  1  0  0  1
 15 16  1  0  0  1
 16 17  1  0  0  2
 16 19  1  0  0  1
 17 18  1  0  0  2
 19 20  1  0  0  2
 19 21  1  0  0  1
 21 22  1  0  0  2
 21 23  1  0  0  1
 23 24  1  0  0  2
  1 25  1  0  0  2
  2 26  1  0  0  2
  7 27  1  0  0  2
  8 28  1  0  0  2
 11 29  1  0  0  2
 11 30  1  0  0  2
 16 31  1  0  0  2
 17 32  1  0  0  2
 17 33  1  0  0  2
 18 34  1  0  0  2
 19 35  1  0  0  2
 20 36  1  0  0  2
 21 37  1  0  0  2
 22 38  1  0  0  2
 23 39  1  0  0  2
 24 40  1  0  0  2
M  END
> <MOLECULAR_FORMULA>
C14H16N2O8

> <MOLECULAR_WEIGHT>
340.2

> <NUM_HB_ATOMS>
9  

> <NUM_ROTOR>
1  

> <XLOGP2>
-0.00

$$$$
