REMARK  7 active torsions:
REMARK  status: ('A' for Active; 'I' for Inactive)
REMARK    1  A    between atoms: C12_3  and  N2_4 
REMARK    2  A    between atoms: C9_9  and  C8_10 
REMARK    3  A    between atoms: C5_16  and  C6_17 
REMARK    4  A    between atoms: C6_17  and  O6_18 
REMARK    5  A    between atoms: C4_19  and  O4_20 
REMARK    6  A    between atoms: C3_21  and  O3_22 
REMARK    7  A    between atoms: C2_23  and  O2_24 
ROOT
ATOM      1  C8  M09 d          34.584  24.112  29.989  0.00  0.00     0.077 C 
ATOM      2  C7  M09 d          35.179  23.432  28.760  0.00  0.00     0.136 C 
ATOM      3  N1  M09 d          33.271  24.252  29.782  0.00  0.00    -0.134 NA
ATOM      4  O7  M09 d          32.850  23.743  28.511  0.00  0.00    -0.213 OA
ATOM      5  C1  M09 d          33.942  22.976  27.979  0.00  0.00     0.226 C 
ATOM      6  O5  M09 d          33.710  21.573  28.234  0.00  0.00    -0.341 OA
ATOM      7  C5  M09 d          32.516  21.051  27.585  0.00  0.00     0.180 C 
ATOM      8  C4  M09 d          32.624  21.222  26.050  0.00  0.00     0.180 C 
ATOM      9  C3  M09 d          32.912  22.673  25.656  0.00  0.00     0.183 C 
ATOM     10  C2  M09 d          34.111  23.224  26.456  0.00  0.00     0.214 C 
ENDROOT
BRANCH  10  11
ATOM     11  O2  M09 d          34.303  24.619  26.170  0.00  0.00    -0.387 OA
ATOM     12  H16 M09 d          34.471  24.730  25.242  0.00  0.00     0.210 HD
ENDBRANCH  10  11
BRANCH   1  13
ATOM     13  C9  M09 d          35.278  24.543  31.128  0.00  0.00    -0.009 A 
ATOM     14  C10 M09 d          36.678  24.502  31.192  0.00  0.00     0.016 A 
ATOM     15  C11 M09 d          37.342  24.956  32.340  0.00  0.00     0.037 A 
ATOM     16  C12 M09 d          36.609  25.456  33.424  0.00  0.00     0.102 A 
ATOM     17  C13 M09 d          35.216  25.498  33.352  0.00  0.00     0.037 A 
ATOM     18  C14 M09 d          34.557  25.044  32.209  0.00  0.00     0.016 A 
BRANCH  16  19
ATOM     19  N2  M09 d          37.218  25.898  34.535  0.00  0.00    -0.116 N 
ATOM     20  O9  M09 d          38.619  26.110  34.557  0.00  0.00    -0.532 OA
ATOM     21  O8  M09 d          36.458  26.160  35.710  0.00  0.00    -0.532 OA
ENDBRANCH  16  19
ENDBRANCH   1  13
BRANCH   7  22
ATOM     22  C6  M09 d          32.373  19.583  28.001  0.00  0.00     0.198 C 
BRANCH  22  23
ATOM     23  O6  M09 d          33.411  18.813  27.389  0.00  0.00    -0.398 OA
ATOM     24  H10 M09 d          34.256  19.142  27.671  0.00  0.00     0.209 HD
ENDBRANCH  22  23
ENDBRANCH   7  22
BRANCH   9  25
ATOM     25  O3  M09 d          33.181  22.721  24.244  0.00  0.00    -0.390 OA
ATOM     26  H14 M09 d          32.424  22.400  23.767  0.00  0.00     0.210 HD
ENDBRANCH   9  25
BRANCH   8  27
ATOM     27  O4  M09 d          31.413  20.789  25.424  0.00  0.00    -0.390 OA
ATOM     28  H12 M09 d          31.488  20.897  24.483  0.00  0.00     0.210 HD
ENDBRANCH   8  27
TORSDOF 7
