REMARK  12 active torsions:
REMARK  status: ('A' for Active; 'I' for Inactive)
REMARK    1  A    between atoms: C1_1  and  S1_2 
REMARK    2  A    between atoms: S1_2  and  C1'_13 
REMARK    3  A    between atoms: C2_3  and  O2_4 
REMARK    4  A    between atoms: C3_5  and  O3_6 
REMARK    5  A    between atoms: C4_7  and  O4_8 
REMARK    6  A    between atoms: C5_9  and  C6_11 
REMARK    7  A    between atoms: C6_11  and  O6_12 
REMARK    8  A    between atoms: C2'_14  and  O2'_15 
REMARK    9  A    between atoms: C3'_16  and  O3'_17 
REMARK   10  A    between atoms: C4'_18  and  O4'_19 
REMARK   11  A    between atoms: C5'_20  and  C6'_22 
REMARK   12  A    between atoms: C6'_22  and  O6'_23 
ROOT
ATOM      1  S1  TDG d          24.287  -0.931  17.098  0.00  0.00    -0.100 SA
ENDROOT
BRANCH   1   2
ATOM      2  C1  TDG d          23.385   0.365  17.897  0.00  0.00     0.217 C 
ATOM      3  C2  TDG d          23.766   1.736  17.328  0.00  0.00     0.188 C 
ATOM      4  C3  TDG d          22.860   2.823  17.915  0.00  0.00     0.181 C 
ATOM      5  C4  TDG d          21.392   2.460  17.713  0.00  0.00     0.180 C 
ATOM      6  C5  TDG d          21.144   1.114  18.386  0.00  0.00     0.178 C 
ATOM      7  O5  TDG d          21.972   0.130  17.744  0.00  0.00    -0.363 OA
BRANCH   3   8
ATOM      8  O2  TDG d          25.125   2.048  17.638  0.00  0.00    -0.389 OA
ATOM      9  H3  TDG d          25.343   2.900  17.278  0.00  0.00     0.210 HD
ENDBRANCH   3   8
BRANCH   4  10
ATOM     10  O3  TDG d          23.137   4.101  17.337  0.00  0.00    -0.390 OA
ATOM     11  H5  TDG d          24.041   4.336  17.509  0.00  0.00     0.210 HD
ENDBRANCH   4  10
BRANCH   5  12
ATOM     12  O4  TDG d          21.096   2.373  16.308  0.00  0.00    -0.390 OA
ATOM     13  H7  TDG d          21.642   1.704  15.911  0.00  0.00     0.210 HD
ENDBRANCH   5  12
BRANCH   6  14
ATOM     14  C6  TDG d          19.677   0.702  18.327  0.00  0.00     0.198 C 
BRANCH  14  15
ATOM     15  O6  TDG d          19.494  -0.522  19.062  0.00  0.00    -0.398 OA
ATOM     16  H11 TDG d          20.031  -1.204  18.677  0.00  0.00     0.209 HD
ENDBRANCH  14  15
ENDBRANCH   6  14
ENDBRANCH   1   2
BRANCH   1  17
ATOM     17  C1' TDG d          23.592  -2.302  17.977  0.00  0.00     0.217 C 
ATOM     18  C2' TDG d          23.232  -3.467  17.042  0.00  0.00     0.188 C 
ATOM     19  C3' TDG d          22.702  -4.652  17.864  0.00  0.00     0.181 C 
ATOM     20  C4' TDG d          23.610  -4.996  19.048  0.00  0.00     0.180 C 
ATOM     21  C5' TDG d          23.891  -3.731  19.865  0.00  0.00     0.178 C 
ATOM     22  O5' TDG d          24.495  -2.750  19.004  0.00  0.00    -0.363 OA
BRANCH  18  23
ATOM     23  O2' TDG d          22.221  -3.077  16.102  0.00  0.00    -0.389 OA
ATOM     24  H14 TDG d          22.016  -3.812  15.536  0.00  0.00     0.210 HD
ENDBRANCH  18  23
BRANCH  19  25
ATOM     25  O3' TDG d          22.519  -5.804  17.036  0.00  0.00    -0.390 OA
ATOM     26  H16 TDG d          23.351  -6.048  16.647  0.00  0.00     0.210 HD
ENDBRANCH  19  25
BRANCH  20  27
ATOM     27  O4' TDG d          24.839  -5.550  18.567  0.00  0.00    -0.390 OA
ATOM     28  H18 TDG d          24.656  -6.338  18.070  0.00  0.00     0.210 HD
ENDBRANCH  20  27
BRANCH  21  29
ATOM     29  C6' TDG d          24.718  -4.013  21.126  0.00  0.00     0.198 C 
BRANCH  29  30
ATOM     30  O6' TDG d          26.067  -3.547  20.994  0.00  0.00    -0.398 OA
ATOM     31  H22 TDG d          26.064  -2.609  20.843  0.00  0.00     0.209 HD
ENDBRANCH  29  30
ENDBRANCH  21  29
ENDBRANCH   1  17
TORSDOF 12
