REMARK  2 active torsions:
REMARK  status: ('A' for Active; 'I' for Inactive)
REMARK    1  A    between atoms: P1_1  and  N1_5 
REMARK    2  A    between atoms: N1_5  and  P2_6 
ROOT
ATOM      1  N1  MOL d         -42.704 -65.531  51.752  0.00  0.00    -0.210 N 
ATOM      2  H1  MOL d         -42.920 -66.507  51.767  0.00  0.00     0.180 HD
ENDROOT
BRANCH   1   3
ATOM      3  P1  MOL d         -41.062 -65.211  51.607  0.00  0.00     0.382 P 
ATOM      4  O1  MOL d         -40.368 -66.108  52.654  0.00  0.00    -0.622 OA
ATOM      5  O2  MOL d         -40.931 -63.758  51.962  0.00  0.00    -0.622 OA
ATOM      6  O3  MOL d         -40.754 -65.659  50.204  0.00  0.00    -0.622 OA
ENDBRANCH   1   3
BRANCH   1   7
ATOM      7  P2  MOL d         -44.047 -64.552  51.876  0.00  0.00     0.382 P 
ATOM      8  O4  MOL d         -44.596 -64.521  53.328  0.00  0.00    -0.622 OA
ATOM      9  O5  MOL d         -43.658 -63.122  51.503  0.00  0.00    -0.622 OA
ATOM     10  O6  MOL d         -45.037 -65.249  50.895  0.00  0.00    -0.622 OA
ENDBRANCH   1   7
TORSDOF 2
