REMARK  3 active torsions:
REMARK  status: ('A' for Active; 'I' for Inactive)
REMARK    1  A    between atoms: N1_1  and  C28_18 
REMARK    2  A    between atoms: C6_6  and  N10_10 
REMARK    3  A    between atoms: C9_9  and  C11_11 
ROOT
ATOM      1  N1  PP1 d         -21.034 -27.162 -17.721  0.00  0.00    -0.242 N 
ATOM      2  C2  PP1 d         -21.897 -25.138 -20.568  0.00  0.00     0.237 A 
ATOM      3  N3  PP1 d         -21.540 -25.381 -19.322  0.00  0.00    -0.222 NA
ATOM      4  C4  PP1 d         -21.372 -26.649 -18.901  0.00  0.00     0.164 A 
ATOM      5  C5  PP1 d         -21.562 -27.716 -19.768  0.00  0.00     0.088 A 
ATOM      6  C6  PP1 d         -21.937 -27.406 -21.084  0.00  0.00     0.139 A 
ATOM      7  N7  PP1 d         -22.089 -26.127 -21.422  0.00  0.00    -0.224 NA
ATOM      8  N8  PP1 d         -20.991 -28.399 -17.743  0.00  0.00    -0.168 NA
ATOM      9  C9  PP1 d         -21.272 -28.841 -18.977  0.00  0.00     0.105 A 
ENDROOT
BRANCH   9  10
ATOM     10  C11 PP1 d         -21.359 -30.198 -19.317  0.00  0.00    -0.005 A 
ATOM     11  C12 PP1 d         -21.550 -30.665 -20.612  0.00  0.00     0.014 A 
ATOM     12  C13 PP1 d         -21.622 -32.024 -20.894  0.00  0.00     0.007 A 
ATOM     13  C14 PP1 d         -21.494 -32.943 -19.866  0.00  0.00    -0.062 A 
ATOM     14  C15 PP1 d         -21.292 -32.497 -18.563  0.00  0.00     0.007 A 
ATOM     15  C24 PP1 d         -21.572 -34.439 -20.174  0.00  0.00     0.048 C 
ATOM     16  C16 PP1 d         -21.211 -31.133 -18.296  0.00  0.00     0.014 A 
ENDBRANCH   9  10
BRANCH   6  17
ATOM     17  N10 PP1 d         -22.159 -28.298 -22.051  0.00  0.00    -0.383 N 
ATOM     18  H2  PP1 d         -22.432 -27.980 -22.992  0.00  0.00     0.157 HD
ATOM     19  H3  PP1 d         -22.058 -29.304 -21.857  0.00  0.00     0.157 HD
ENDBRANCH   6  17
BRANCH   1  20
ATOM     20  C28 PP1 d         -20.723 -26.353 -16.506  0.00  0.00     0.047 C 
ATOM     21  C29 PP1 d         -20.337 -27.333 -15.397  0.00  0.00     0.040 C 
ATOM     22  C33 PP1 d         -19.534 -25.427 -16.821  0.00  0.00     0.040 C 
ATOM     23  C37 PP1 d         -21.956 -25.533 -16.106  0.00  0.00     0.040 C 
ENDBRANCH   1  20
TORSDOF 3
