REMARK  1 active torsions:
REMARK  status: ('A' for Active; 'I' for Inactive)
REMARK    1  A    between atoms: C7_7  and  N8_8 
ROOT
ATOM      1  C1  MOL d           5.693  11.082  44.763  0.00  0.00     0.071 C 
ATOM      2  C2  MOL d           4.891  12.203  44.130  0.00  0.00     0.051 A 
ATOM      3  C3  MOL d           4.785  12.337  42.729  0.00  0.00     0.054 A 
ATOM      4  C4  MOL d           4.016  13.394  42.212  0.00  0.00     0.051 A 
ATOM      5  C5  MOL d           3.839  13.613  40.722  0.00  0.00     0.071 C 
ATOM      6  N6  MOL d           3.417  14.264  43.066  0.00  0.00    -0.068 NA
ATOM      7  C7  MOL d           3.537  14.119  44.409  0.00  0.00     0.720 A 
ATOM      8  N9  MOL d           4.253  13.091  44.940  0.00  0.00    -0.068 NA
ENDROOT
BRANCH   7   9
ATOM      9  N8  MOL d           2.916  14.990  45.213  0.00  0.00    -0.231 N 
ATOM     10  H   MOL d           2.374  15.768  44.809  0.00  0.00     0.174 HD
ATOM     11  H   MOL d           2.980  14.883  46.235  0.00  0.00     0.174 HD
ENDBRANCH   7   9
TORSDOF 1
