REMARK  5 active torsions:
REMARK  status: ('A' for Active; 'I' for Inactive)
REMARK    1  A    between atoms: C2_2  and  O2_3 
REMARK    2  A    between atoms: C3_4  and  O3_5 
REMARK    3  A    between atoms: C4_6  and  O4_7 
REMARK    4  A    between atoms: C5_8  and  C6_9 
REMARK    5  A    between atoms: C6_9  and  O6_10 
ROOT
ATOM      1  C1  GLS d          33.945  22.824  27.575  0.00  0.00     0.250 A 
ATOM      2  C2  GLS d          33.920  23.170  26.040  0.00  0.00     0.215 C 
ATOM      3  C3  GLS d          32.629  22.586  25.382  0.00  0.00     0.183 C 
ATOM      4  C4  GLS d          32.568  21.114  25.758  0.00  0.00     0.180 C 
ATOM      5  C5  GLS d          32.540  20.878  27.265  0.00  0.00     0.180 C 
ATOM      6  O5  GLS d          33.686  21.436  27.897  0.00  0.00    -0.340 OA
ATOM      7  N2  GLS d          35.241  23.150  28.148  0.00  0.00    -0.300 N 
ATOM      8  C8  GLS d          35.063  23.988  29.175  0.00  0.00     0.325 A 
ATOM      9  O8  GLS d          36.020  24.419  29.870  0.00  0.00    -0.247 OA
ATOM     10  N1  GLS d          33.811  24.356  29.431  0.00  0.00    -0.275 N 
ATOM     11  C7  GLS d          33.060  23.672  28.497  0.00  0.00     0.284 A 
ATOM     12  O7  GLS d          31.844  23.772  28.471  0.00  0.00    -0.267 OA
ATOM     13  H11 GLS d          36.122  22.804  27.826  0.00  0.00     0.167 HD
ATOM     14  H12 GLS d          33.488  24.985  30.138  0.00  0.00     0.173 HD
ENDROOT
BRANCH   2  15
ATOM     15  O2  GLS d          33.883  24.589  25.923  0.00  0.00    -0.387 OA
ATOM     16  H2  GLS d          33.867  24.830  25.004  0.00  0.00     0.210 HD
ENDBRANCH   2  15
BRANCH   3  17
ATOM     17  O3  GLS d          32.893  22.675  23.997  0.00  0.00    -0.390 OA
ATOM     18  H4  GLS d          32.150  22.337  23.512  0.00  0.00     0.210 HD
ENDBRANCH   3  17
BRANCH   5  19
ATOM     19  C6  GLS d          32.374  19.439  27.716  0.00  0.00     0.198 C 
BRANCH  19  20
ATOM     20  O6  GLS d          33.434  18.667  27.141  0.00  0.00    -0.398 OA
ATOM     21  H10 GLS d          34.270  19.009  27.437  0.00  0.00     0.209 HD
ENDBRANCH  19  20
ENDBRANCH   5  19
BRANCH   4  22
ATOM     22  O4  GLS d          31.444  20.526  25.119  0.00  0.00    -0.390 OA
ATOM     23  H6  GLS d          31.534  20.615  24.177  0.00  0.00     0.210 HD
ENDBRANCH   4  22
TORSDOF 5
