REMARK  2 active torsions:
REMARK  status: ('A' for Active; 'I' for Inactive)
REMARK    1  A    between atoms: C2_4  and  S_1 
REMARK    2  A    between atoms: C2_4  and  S3_5 
ROOT
ATOM      1  S   DSS d          60.671  -5.462  -0.241  0.00  0.00     0.020 S 
ATOM      2  O   DSS d          60.149  -6.488   0.729  0.00  0.00    -0.258 OA
ATOM      3  C1  DSS d          59.837  -5.692  -1.805  0.00  0.00     0.128 C 
ENDROOT
BRANCH   1   4
ATOM      4  C2  DSS d          59.960  -3.949   0.163  0.00  0.00     0.181 C 
BRANCH   4   5
ATOM      5  S3  DSS d          60.504  -2.604  -0.898  0.00  0.00    -0.161 SA
ATOM      6  C4  DSS d          60.050  -1.196   0.212  0.00  0.00     0.090 C 
ENDBRANCH   4   5
ENDBRANCH   1   4
TORSDOF 2
