REMARK  13 active torsions:
REMARK  status: ('A' for Active; 'I' for Inactive)
REMARK    1  A    between atoms: C1_1  and  C13_7 
REMARK    2  A    between atoms: C2_2  and  O28_22 
REMARK    3  A    between atoms: C3_3  and  O29_23 
REMARK    4  A    between atoms: C4_4  and  O30_24 
REMARK    5  A    between atoms: C6_6  and  C19_13 
REMARK    6  A    between atoms: C14_8  and  O16_10 
REMARK    7  A    between atoms: O16_10  and  C17_11 
REMARK    8  A    between atoms: C19_13  and  C20_14 
REMARK    9  A    between atoms: C20_14  and  C21_15 
REMARK   10  A    between atoms: C21_15  and  C22_16 
REMARK   11  A    between atoms: C22_16  and  C23_17 
REMARK   12  A    between atoms: C23_17  and  C24_18 
REMARK   13  A    between atoms: C24_18  and  C25_19 
ROOT
ATOM      1  C1  TMY d         -11.127  24.278   5.558  0.00  0.00    -0.003 A 
ATOM      2  C2  TMY d         -11.036  25.405   4.723  0.00  0.00     0.111 A 
ATOM      3  C3  TMY d         -11.189  26.703   5.297  0.00  0.00     0.135 A 
ATOM      4  C4  TMY d         -11.417  26.855   6.659  0.00  0.00     0.105 A 
ATOM      5  C5  TMY d         -11.501  25.763   7.494  0.00  0.00     0.055 A 
ATOM      6  C6  TMY d         -11.366  24.477   7.010  0.00  0.00     0.022 A 
ENDROOT
BRANCH   6   7
ATOM      7  C19 TMY d         -11.501  23.356   8.010  0.00  0.00     0.160 C 
ATOM      8  O27 TMY d         -10.529  22.706   8.329  0.00  0.00    -0.292 OA
BRANCH   7   9
ATOM      9  C20 TMY d         -12.857  23.106   8.635  0.00  0.00     0.084 C 
BRANCH   9  10
ATOM     10  C21 TMY d         -13.150  21.706   9.186  0.00  0.00     0.008 C 
BRANCH  10  11
ATOM     11  C22 TMY d         -14.646  21.427   9.011  0.00  0.00     0.000 C 
BRANCH  11  12
ATOM     12  C23 TMY d         -15.538  22.477   9.692  0.00  0.00     0.000 C 
BRANCH  12  13
ATOM     13  C24 TMY d         -16.459  23.213   8.709  0.00  0.00    -0.000 C 
BRANCH  13  14
ATOM     14  C25 TMY d         -17.247  24.337   9.379  0.00  0.00    -0.005 C 
ATOM     15  C26 TMY d         -17.602  25.410   8.372  0.00  0.00     0.005 C 
ENDBRANCH  13  14
ENDBRANCH  12  13
ENDBRANCH  11  12
ENDBRANCH  10  11
ENDBRANCH   9  10
ENDBRANCH   7   9
ENDBRANCH   6   7
BRANCH   1  16
ATOM     16  C13 TMY d         -11.006  22.870   5.143  0.00  0.00     0.120 C 
ATOM     17  C14 TMY d         -12.077  22.055   5.226  0.00  0.00     0.261 C 
ATOM     18  O15 TMY d         -13.248  22.566   5.622  0.00  0.00    -0.191 OA
BRANCH  17  19
ATOM     19  O16 TMY d         -11.992  20.635   4.882  0.00  0.00    -0.349 OA
BRANCH  19  20
ATOM     20  C17 TMY d         -11.335  19.721   5.770  0.00  0.00     0.167 C 
ATOM     21  C18 TMY d         -11.794  19.796   7.220  0.00  0.00     0.033 C 
ENDBRANCH  19  20
ENDBRANCH  17  19
ENDBRANCH   1  16
BRANCH   2  22
ATOM     22  O28 TMY d         -10.804  25.286   3.379  0.00  0.00    -0.352 OA
ATOM     23  C31 TMY d         -11.669  24.432   2.623  0.00  0.00     0.210 C 
ENDBRANCH   2  22
BRANCH   4  24
ATOM     24  O30 TMY d         -11.564  28.073   7.219  0.00  0.00    -0.353 OA
ATOM     25  C33 TMY d         -11.096  28.304   8.553  0.00  0.00     0.210 C 
ENDBRANCH   4  24
BRANCH   3  26
ATOM     26  O29 TMY d         -11.079  27.845   4.554  0.00  0.00    -0.351 OA
ATOM     27  C32 TMY d          -9.883  28.546   4.745  0.00  0.00     0.210 C 
ENDBRANCH   3  26
TORSDOF 13
