REMARK  3 active torsions:
REMARK  status: ('A' for Active; 'I' for Inactive)
REMARK    1  A    between atoms: C2_3  and  N7_14 
REMARK    2  A    between atoms: N7_14  and  C1B_15 
REMARK    3  A    between atoms: C4B_18  and  N7B_21 
ROOT
ATOM      1  C6  CK8 d          25.840  38.933   7.693  0.00  0.00     0.139 A 
ATOM      2  N1  CK8 d          24.807  39.625   7.158  0.00  0.00    -0.075 NA
ATOM      3  C2  CK8 d          24.634  40.889   7.540  0.00  0.00     0.727 A 
ATOM      4  N3  CK8 d          25.407  41.531   8.414  0.00  0.00    -0.061 NA
ATOM      5  C4  CK8 d          26.458  40.912   8.987  0.00  0.00     0.096 A 
ATOM      6  C5  CK8 d          26.726  39.530   8.638  0.00  0.00     0.053 A 
ATOM      7  C5A CK8 d          27.230  41.703   9.921  0.00  0.00     0.060 A 
ATOM      8  C1A CK8 d          28.488  41.558  10.551  0.00  0.00     0.051 A 
ATOM      9  N2A CK8 d          28.838  42.588  11.393  0.00  0.00    -0.250 NA
ATOM     10  C3A CK8 d          27.880  43.516  11.423  0.00  0.00     0.072 A 
ATOM     11  S4A CK8 d          26.520  43.212  10.451  0.00  0.00    -0.071 SA
ATOM     12  C6A CK8 d          29.486  40.414  10.409  0.00  0.00     0.072 C 
ATOM     13  C7A CK8 d          27.950  44.781  12.254  0.00  0.00     0.078 C 
ENDROOT
BRANCH   3  14
ATOM     14  N7  CK8 d          23.522  41.571   6.943  0.00  0.00    -0.188 N 
ATOM     15  H9  CK8 d          23.015  40.972   6.276  0.00  0.00     0.184 HD
BRANCH  14  16
ATOM     16  C1B CK8 d          22.931  42.898   7.044  0.00  0.00     0.049 A 
ATOM     17  C2B CK8 d          23.427  43.911   7.925  0.00  0.00     0.032 A 
ATOM     18  C3B CK8 d          22.812  45.181   7.976  0.00  0.00     0.031 A 
ATOM     19  C4B CK8 d          21.676  45.489   7.147  0.00  0.00     0.029 A 
ATOM     20  C5B CK8 d          21.190  44.454   6.271  0.00  0.00     0.031 A 
ATOM     21  C6B CK8 d          21.807  43.183   6.225  0.00  0.00     0.032 A 
BRANCH  19  22
ATOM     22  N7B CK8 d          21.026  46.845   7.198  0.00  0.00    -0.390 N 
ATOM     23  C8B CK8 d          19.847  47.208   6.356  0.00  0.00     0.149 C 
ATOM     24  C9B CK8 d          21.513  47.936   8.096  0.00  0.00     0.149 C 
ENDBRANCH  19  22
ENDBRANCH  14  16
ENDBRANCH   3  14
TORSDOF 3
