REMARK  10 active torsions:
REMARK  status: ('A' for Active; 'I' for Inactive)
REMARK    1  A    between atoms: O4_1  and  C4_2 
REMARK    2  A    between atoms: C1_16  and  O4_1 
REMARK    3  A    between atoms: C3_3  and  O3_4 
REMARK    4  A    between atoms: C5_8  and  C6_9 
REMARK    5  A    between atoms: C6_9  and  O6_10 
REMARK    6  A    between atoms: C2_11  and  O2_17 
REMARK    7  A    between atoms: C3_12  and  O3_18 
REMARK    8  A    between atoms: C4_13  and  O4_19 
REMARK    9  A    between atoms: C5_14  and  C6_15 
REMARK   10  A    between atoms: C6_15  and  O6_21 
ROOT
ATOM      1  C2  IFM d          61.873  47.891  36.477  0.00  0.00     0.204 C 
ATOM      2  C3  IFM d          61.233  48.838  37.504  0.00  0.00     0.183 C 
ATOM      3  C4  IFM d          59.760  48.588  37.617  0.00  0.00     0.180 C 
ATOM      4  C5  IFM d          59.494  47.108  37.940  0.00  0.00     0.179 C 
ATOM      5  C1  IFM d          61.438  46.456  36.830  0.00  0.00     0.292 C 
ATOM      6  O5  IFM d          60.049  46.325  36.880  0.00  0.00    -0.348 OA
ENDROOT
BRANCH   5   7
ATOM      7  O4  IFM d          61.927  45.649  35.766  0.00  0.00    -0.350 OA
BRANCH   7   8
ATOM      8  C4  IFM d          61.847  44.254  35.990  0.00  0.00     0.162 C 
ATOM      9  C3  IFM d          61.283  43.618  34.710  0.00  0.00     0.173 C 
ATOM     10  C2  IFM d          61.240  42.116  34.874  0.00  0.00     0.266 C 
ATOM     11  N   IFM d          62.577  41.565  35.236  0.00  0.00    -0.072 N 
ATOM     12  C1  IFM d          63.131  42.172  36.459  0.00  0.00     0.241 C 
ATOM     13  H6  IFM d          63.214  41.737  34.474  0.00  0.00     0.277 HD
ATOM     14  H7  IFM d          62.488  40.572  35.381  0.00  0.00     0.277 HD
ATOM     15  C5  IFM d          63.209  43.685  36.298  0.00  0.00     0.066 C 
BRANCH   9  16
ATOM     16  O3  IFM d          59.977  44.035  34.427  0.00  0.00    -0.391 OA
ATOM     17  H3  IFM d          59.965  44.978  34.313  0.00  0.00     0.210 HD
ENDBRANCH   9  16
BRANCH  15  18
ATOM     18  C6  IFM d          63.900  44.304  37.510  0.00  0.00     0.173 C 
BRANCH  18  19
ATOM     19  O6  IFM d          63.122  44.062  38.693  0.00  0.00    -0.400 OA
ATOM     20  H13 IFM d          63.558  44.450  39.442  0.00  0.00     0.209 HD
ENDBRANCH  18  19
ENDBRANCH  15  18
ENDBRANCH   7   8
ENDBRANCH   5   7
BRANCH   1  21
ATOM     21  O2  IFM d          63.263  48.015  36.447  0.00  0.00    -0.388 OA
ATOM     22  H21 IFM d          63.620  47.415  35.802  0.00  0.00     0.210 HD
ENDBRANCH   1  21
BRANCH   2  23
ATOM     23  O3  IFM d          61.444  50.204  37.087  0.00  0.00    -0.390 OA
ATOM     24  H22 IFM d          61.066  50.792  37.730  0.00  0.00     0.210 HD
ENDBRANCH   2  23
BRANCH   4  25
ATOM     25  C6  IFM d          58.050  46.724  38.038  0.00  0.00     0.198 C 
BRANCH  25  26
ATOM     26  O6  IFM d          57.403  46.939  36.769  0.00  0.00    -0.398 OA
ATOM     27  H24 IFM d          57.826  46.408  36.105  0.00  0.00     0.209 HD
ENDBRANCH  25  26
ENDBRANCH   4  25
BRANCH   3  28
ATOM     28  O4  IFM d          59.181  49.390  38.655  0.00  0.00    -0.390 OA
ATOM     29  H23 IFM d          59.338  50.308  38.469  0.00  0.00     0.210 HD
ENDBRANCH   3  28
TORSDOF 10
