REMARK  3 active torsions:
REMARK  status: ('A' for Active; 'I' for Inactive)
REMARK    1  A    between atoms: O2_2  and  C3_3 
REMARK    2  A    between atoms: C8_8  and  C9_9 
REMARK    3  A    between atoms: C14_14  and  N15_15 
ROOT
ATOM      1  C9  WOE d          54.924  35.566  86.687  0.00  0.00     0.092 A 
ATOM      2  C10 WOE d          54.002  34.845  87.435  0.00  0.00     0.078 A 
ATOM      3  C11 WOE d          53.541  33.632  86.933  0.00  0.00     0.147 A 
ATOM      4 CL1  WOE d          52.388  32.707  87.830  0.00  0.00    -0.062 Cl
ATOM      5  N13 WOE d          53.965  33.161  85.766  0.00  0.00    -0.051 NA
ATOM      6  C14 WOE d          54.846  33.893  85.095  0.00  0.00     0.722 A 
ATOM      7  N16 WOE d          55.338  35.058  85.496  0.00  0.00    -0.062 NA
ENDROOT
BRANCH   1   8
ATOM      8  C8  WOE d          55.463  36.869  87.155  0.00  0.00     0.027 A 
ATOM      9  C3  WOE d          55.961  37.010  88.425  0.00  0.00     0.080 A 
ATOM     10  C4  WOE d          56.473  38.235  88.840  0.00  0.00     0.037 A 
ATOM     11  C5  WOE d          56.482  39.321  87.971  0.00  0.00     0.003 A 
ATOM     12  C6  WOE d          55.973  39.178  86.685  0.00  0.00     0.001 A 
ATOM     13  C7  WOE d          55.464  37.949  86.280  0.00  0.00     0.016 A 
BRANCH   9  14
ATOM     14  O2  WOE d          55.945  35.925  89.278  0.00  0.00    -0.355 OA
ATOM     15  C1  WOE d          56.253  36.294  90.615  0.00  0.00     0.210 C 
ENDBRANCH   9  14
ENDBRANCH   1   8
BRANCH   6  16
ATOM     16  N15 WOE d          55.276  33.410  83.904  0.00  0.00    -0.231 N 
ATOM     17  H9  WOE d          54.920  32.509  83.555  0.00  0.00     0.174 HD
ATOM     18  H10 WOE d          55.959  33.944  83.348  0.00  0.00     0.174 HD
ENDBRANCH   6  16
TORSDOF 3
