REMARK  24 active torsions:
REMARK  status: ('A' for Active; 'I' for Inactive)
REMARK    1  A    between atoms: O1B_1  and  C1B_2 
REMARK    2  A    between atoms: C2B_3  and  O2B_4 
REMARK    3  A    between atoms: C3B_5  and  O3B_6 
REMARK    4  A    between atoms: C5B_8  and  C6B_9 
REMARK    5  A    between atoms: C6B_9  and  O6B_10 
REMARK    6  A    between atoms: C4B_11  and  O4B_12 
REMARK    7  A    between atoms: O4B_12  and  C1C_13 
REMARK    8  A    between atoms: C2C_14  and  O2C_15 
REMARK    9  A    between atoms: C3C_16  and  O3C_17 
REMARK   10  A    between atoms: C5C_19  and  C6C_20 
REMARK   11  A    between atoms: C6C_20  and  O6C_21 
REMARK   12  A    between atoms: C4C_22  and  O4C_23 
REMARK   13  A    between atoms: O4C_23  and  C1D_24 
REMARK   14  A    between atoms: C2D_25  and  O2D_26 
REMARK   15  A    between atoms: C3D_27  and  O3D_28 
REMARK   16  A    between atoms: C5D_30  and  C6D_31 
REMARK   17  A    between atoms: C6D_31  and  O6D_32 
REMARK   18  A    between atoms: C4D_33  and  O4D_34 
REMARK   19  A    between atoms: O4D_34  and  C1E_35 
REMARK   20  A    between atoms: C2E_36  and  O2E_37 
REMARK   21  A    between atoms: C3E_38  and  O3E_39 
REMARK   22  A    between atoms: C4E_40  and  O4E_41 
REMARK   23  A    between atoms: C5E_43  and  C6E_44 
REMARK   24  A    between atoms: C6E_44  and  O6E_45 
ROOT
ATOM      1  O4C CTT d          -5.532  -1.531  49.914  0.00  0.00    -0.348 OA
ENDROOT
BRANCH   1   2
ATOM      2  C4C CTT d          -6.438  -2.118  50.865  0.00  0.00     0.187 C 
ATOM      3  C3C CTT d          -5.722  -2.384  52.182  0.00  0.00     0.183 C 
ATOM      4  C2C CTT d          -6.681  -2.953  53.228  0.00  0.00     0.204 C 
ATOM      5  C1C CTT d          -7.972  -2.150  53.399  0.00  0.00     0.292 C 
ATOM      6  O5C CTT d          -8.522  -1.794  52.117  0.00  0.00    -0.348 OA
ATOM      7  C5C CTT d          -7.612  -1.195  51.176  0.00  0.00     0.180 C 
BRANCH   3   8
ATOM      8  O3C CTT d          -4.662  -3.313  51.965  0.00  0.00    -0.390 OA
ATOM      9  H16 CTT d          -4.064  -2.963  51.315  0.00  0.00     0.210 HD
ENDBRANCH   3   8
BRANCH   4  10
ATOM     10  O2C CTT d          -6.024  -3.062  54.496  0.00  0.00    -0.388 OA
ATOM     11  H14 CTT d          -6.597  -3.505  55.111  0.00  0.00     0.210 HD
ENDBRANCH   4  10
BRANCH   5  12
ATOM     12  O4B CTT d          -8.847  -3.037  54.118  0.00  0.00    -0.348 OA
BRANCH  12  13
ATOM     13  C4B CTT d          -9.956  -2.469  54.824  0.00  0.00     0.187 C 
ATOM     14  C3B CTT d         -11.239  -3.225  54.478  0.00  0.00     0.183 C 
ATOM     15  C2B CTT d         -12.396  -2.525  55.201  0.00  0.00     0.204 C 
ATOM     16  C1B CTT d         -12.150  -2.627  56.705  0.00  0.00     0.288 C 
ATOM     17  O5B CTT d         -10.918  -1.956  56.996  0.00  0.00    -0.349 OA
ATOM     18  C5B CTT d          -9.774  -2.534  56.347  0.00  0.00     0.180 C 
BRANCH  14  19
ATOM     19  O3B CTT d         -11.453  -3.305  53.055  0.00  0.00    -0.390 OA
ATOM     20  H6  CTT d         -11.536  -2.428  52.699  0.00  0.00     0.210 HD
ENDBRANCH  14  19
BRANCH  15  21
ATOM     21  O2B CTT d         -13.672  -3.090  54.882  0.00  0.00    -0.388 OA
ATOM     22  H4  CTT d         -14.352  -2.616  55.346  0.00  0.00     0.210 HD
ENDBRANCH  15  21
BRANCH  16  23
ATOM     23  O1B CTT d         -13.243  -2.046  57.429  0.00  0.00    -0.369 OA
ATOM     24  H1  CTT d         -13.332  -1.132  57.187  0.00  0.00     0.212 HD
ENDBRANCH  16  23
BRANCH  18  25
ATOM     25  C6B CTT d          -8.525  -1.804  56.857  0.00  0.00     0.198 C 
BRANCH  25  26
ATOM     26  O6B CTT d          -8.681  -0.396  56.637  0.00  0.00    -0.398 OA
ATOM     27  H10 CTT d          -9.447  -0.086  57.106  0.00  0.00     0.209 HD
ENDBRANCH  25  26
ENDBRANCH  18  25
ENDBRANCH  12  13
ENDBRANCH   5  12
BRANCH   7  28
ATOM     28  C6C CTT d          -8.386  -0.837  49.914  0.00  0.00     0.198 C 
BRANCH  28  29
ATOM     29  O6C CTT d          -9.417   0.084  50.270  0.00  0.00    -0.398 OA
ATOM     30  H20 CTT d          -9.996  -0.321  50.905  0.00  0.00     0.209 HD
ENDBRANCH  28  29
ENDBRANCH   7  28
ENDBRANCH   1   2
BRANCH   1  31
ATOM     31  C1D CTT d          -5.029  -2.384  48.868  0.00  0.00     0.292 C 
ATOM     32  C2D CTT d          -4.316  -1.556  47.802  0.00  0.00     0.204 C 
ATOM     33  C3D CTT d          -3.747  -2.425  46.684  0.00  0.00     0.183 C 
ATOM     34  C4D CTT d          -2.943  -3.639  47.163  0.00  0.00     0.187 C 
ATOM     35  C5D CTT d          -3.734  -4.293  48.304  0.00  0.00     0.180 C 
ATOM     36  O5D CTT d          -4.056  -3.323  49.317  0.00  0.00    -0.348 OA
BRANCH  32  37
ATOM     37  O2D CTT d          -5.255  -0.614  47.286  0.00  0.00    -0.388 OA
ATOM     38  H24 CTT d          -5.560  -0.055  47.990  0.00  0.00     0.210 HD
ENDBRANCH  32  37
BRANCH  33  39
ATOM     39  O3D CTT d          -2.914  -1.648  45.808  0.00  0.00    -0.390 OA
ATOM     40  H26 CTT d          -2.194  -1.276  46.304  0.00  0.00     0.210 HD
ENDBRANCH  33  39
BRANCH  34  41
ATOM     41  O4D CTT d          -2.780  -4.493  46.008  0.00  0.00    -0.348 OA
BRANCH  41  42
ATOM     42  C1E CTT d          -1.553  -5.241  45.710  0.00  0.00     0.292 C 
ATOM     43  C2E CTT d          -1.448  -5.545  44.173  0.00  0.00     0.204 C 
ATOM     44  C3E CTT d          -0.206  -5.014  43.470  0.00  0.00     0.183 C 
ATOM     45  C4E CTT d           0.097  -3.658  44.077  0.00  0.00     0.180 C 
ATOM     46  C5E CTT d           0.579  -3.926  45.498  0.00  0.00     0.179 C 
ATOM     47  O5E CTT d          -0.405  -4.592  46.302  0.00  0.00    -0.348 OA
BRANCH  43  48
ATOM     48  O2E CTT d          -1.429  -6.952  43.857  0.00  0.00    -0.388 OA
ATOM     49  H34 CTT d          -0.681  -7.360  44.277  0.00  0.00     0.210 HD
ENDBRANCH  43  48
BRANCH  44  50
ATOM     50  O3E CTT d          -0.416  -4.973  42.036  0.00  0.00    -0.390 OA
ATOM     51  H36 CTT d           0.366  -4.640  41.612  0.00  0.00     0.210 HD
ENDBRANCH  44  50
BRANCH  45  52
ATOM     52  O4E CTT d           1.089  -2.973  43.308  0.00  0.00    -0.390 OA
ATOM     53  H38 CTT d           1.266  -2.127  43.703  0.00  0.00     0.210 HD
ENDBRANCH  45  52
BRANCH  46  54
ATOM     54  C6E CTT d           0.959  -2.645  46.239  0.00  0.00     0.198 C 
BRANCH  54  55
ATOM     55  O6E CTT d          -0.177  -1.765  46.332  0.00  0.00    -0.398 OA
ATOM     56  H42 CTT d          -0.475  -1.541  45.458  0.00  0.00     0.209 HD
ENDBRANCH  54  55
ENDBRANCH  46  54
ENDBRANCH  41  42
ENDBRANCH  34  41
BRANCH  35  57
ATOM     57  C6D CTT d          -3.028  -5.453  48.990  0.00  0.00     0.198 C 
BRANCH  57  58
ATOM     58  O6D CTT d          -3.812  -5.822  50.145  0.00  0.00    -0.398 OA
ATOM     59  H30 CTT d          -3.392  -6.547  50.593  0.00  0.00     0.209 HD
ENDBRANCH  57  58
ENDBRANCH  35  57
ENDBRANCH   1  31
TORSDOF 24
