REMARK  4 active torsions:
REMARK  status: ('A' for Active; 'I' for Inactive)
REMARK    1  A    between atoms: C3_4  and  C9_11 
REMARK    2  A    between atoms: C5_6  and  C11_14 
REMARK    3  A    between atoms: C9_11  and  C12_15 
REMARK    4  A    between atoms: C12_15  and  N2_13 
ROOT
ATOM      1  N1  RZH d         122.215 103.499 -46.605  0.00  0.00    -0.358 N 
ATOM      2  C1  RZH d         123.560 103.462 -44.792  0.00  0.00     0.001 A 
ATOM      3  C2  RZH d         123.098 102.677 -45.876  0.00  0.00     0.049 A 
ATOM      4  C3  RZH d         122.950 104.784 -44.885  0.00  0.00    -0.022 A 
ATOM      5  C4  RZH d         122.115 104.767 -46.021  0.00  0.00     0.013 A 
ATOM      6  C5  RZH d         123.491 101.338 -46.093  0.00  0.00    -0.030 A 
ATOM      7  C6  RZH d         124.454 102.892 -43.887  0.00  0.00     0.033 A 
ATOM      8  C7  RZH d         124.394 100.808 -45.161  0.00  0.00     0.028 A 
ATOM      9  C8  RZH d         124.864 101.573 -44.078  0.00  0.00     0.012 A 
ATOM     10 BR   RZH d         126.117 100.805 -42.800  0.00  0.00    -0.051 Br
ATOM     11  C10 RZH d         121.267 105.914 -46.527  0.00  0.00     0.068 C 
ATOM     12  H1  RZH d         121.711 103.206 -47.454  0.00  0.00     0.166 HD
ENDROOT
BRANCH   4  13
ATOM     13  C9  RZH d         123.159 105.950 -43.916  0.00  0.00     0.068 C 
BRANCH  13  14
ATOM     14  C12 RZH d         124.304 106.846 -44.350  0.00  0.00     0.234 C 
BRANCH  14  15
ATOM     15  N2  RZH d         124.558 107.805 -43.279  0.00  0.00    -0.079 N 
ATOM     16  H9  RZH d         125.317 108.413 -43.545  0.00  0.00     0.274 HD
ATOM     17  H10 RZH d         124.804 107.310 -42.436  0.00  0.00     0.274 HD
ATOM     18  H11 RZH d         123.729 108.355 -43.116  0.00  0.00     0.274 HD
ENDBRANCH  14  15
ENDBRANCH  13  14
ENDBRANCH   4  13
BRANCH   6  19
ATOM     19  C11 RZH d         122.981 100.511 -47.264  0.00  0.00     0.036 C 
ATOM     20  C13 RZH d         124.078  99.579 -47.738  0.00  0.00     0.010 C 
ENDBRANCH   6  19
TORSDOF 4
