REMARK  12 active torsions:
REMARK  status: ('A' for Active; 'I' for Inactive)
REMARK    1  A    between atoms: C3_3  and  C44_18 
REMARK    2  A    between atoms: C8_5  and  C7_4 
REMARK    3  A    between atoms: C7_4  and  C5_22 
REMARK    4  A    between atoms: C8_5  and  C9_6 
REMARK    5  A    between atoms: N24_23  and  C8_5 
REMARK       I    between atoms: C9_6  and  N11_35 
REMARK    6  A    between atoms: C14_9  and  C17_36 
REMARK    7  A    between atoms: C32_14  and  C34_16 
REMARK    8  A    between atoms: C44_18  and  N46_19 
REMARK    9  A    between atoms: S25_24  and  N24_23 
REMARK   10  A    between atoms: S25_24  and  C28_25 
REMARK   11  A    between atoms: C17_36  and  C18_37 
REMARK   12  A    between atoms: C18_37  and  N19_38 
ROOT
ATOM      1  C8  MOL d          20.091   0.056  20.445  0.00  0.00     0.189 C 
ENDROOT
BRANCH   1   2
ATOM      2  C7  MOL d          18.672  -0.201  19.912  0.00  0.00     0.074 C 
BRANCH   2   3
ATOM      3  C5  MOL d          17.622   0.524  20.743  0.00  0.00    -0.055 A 
ATOM      4  C4  MOL d          17.037  -0.110  21.832  0.00  0.00     0.022 A 
ATOM      5  C3  MOL d          16.088   0.542  22.600  0.00  0.00     0.007 A 
ATOM      6  C2  MOL d          15.706   1.832  22.285  0.00  0.00     0.015 A 
ATOM      7  C1  MOL d          16.289   2.474  21.197  0.00  0.00     0.002 A 
ATOM      8  C6  MOL d          17.238   1.823  20.423  0.00  0.00     0.007 A 
BRANCH   5   9
ATOM      9  C44 MOL d          15.455  -0.150  23.762  0.00  0.00     0.102 C 
ATOM     10  N45 MOL d          15.753  -1.341  24.023  0.00  0.00    -0.385 N 
ATOM     11  H20 MOL d          16.450  -1.835  23.448  0.00  0.00     0.157 HD
ATOM     12  H21 MOL d          15.300  -1.824  24.812  0.00  0.00     0.157 HD
BRANCH   9  13
ATOM     13  N46 MOL d          14.558   0.485  24.502  0.00  0.00    -0.385 N 
ATOM     14  H18 MOL d          14.121   0.008  25.304  0.00  0.00     0.157 HD
ATOM     15  H19 MOL d          14.298   1.456  24.276  0.00  0.00     0.157 HD
ENDBRANCH   9  13
ENDBRANCH   5   9
ENDBRANCH   2   3
ENDBRANCH   1   2
BRANCH   1  16
ATOM     16  C9  MOL d          20.289   1.488  20.879  0.00  0.00     0.243 C 
ATOM     17  N11 MOL d          20.591   2.426  19.990  0.00  0.00    -0.350 N 
ATOM     18  C12 MOL d          20.731   3.803  20.464  0.00  0.00     0.126 C 
ATOM     19  C16 MOL d          20.734   2.153  18.554  0.00  0.00     0.126 C 
ATOM     20  C13 MOL d          21.965   4.441  19.826  0.00  0.00     0.024 C 
ATOM     21  C14 MOL d          21.927   4.306  18.317  0.00  0.00    -0.010 C 
ATOM     22  C15 MOL d          22.002   2.816  18.035  0.00  0.00     0.024 C 
ATOM     23  O10 MOL d          20.152   1.789  22.051  0.00  0.00    -0.271 OA
BRANCH  21  24
ATOM     24  C17 MOL d          23.124   5.024  17.704  0.00  0.00     0.032 C 
BRANCH  24  25
ATOM     25  C18 MOL d          22.724   5.959  16.564  0.00  0.00     0.230 C 
BRANCH  25  26
ATOM     26  N19 MOL d          22.556   5.220  15.327  0.00  0.00    -0.079 N 
ATOM     27  H32 MOL d          22.293   5.855  14.589  0.00  0.00     0.274 HD
ATOM     28  H33 MOL d          21.835   4.526  15.446  0.00  0.00     0.274 HD
ATOM     29  H34 MOL d          23.423   4.766  15.086  0.00  0.00     0.274 HD
ENDBRANCH  25  26
ENDBRANCH  24  25
ENDBRANCH  21  24
ENDBRANCH   1  16
BRANCH   1  30
ATOM     30  N24 MOL d          20.394  -0.842  21.550  0.00  0.00    -0.301 N 
ATOM     31  H23 MOL d          19.728  -0.974  22.284  0.00  0.00     0.173 HD
BRANCH  30  32
ATOM     32  S25 MOL d          21.803  -1.623  21.589  0.00  0.00     0.259 S 
ATOM     33  O27 MOL d          21.847  -2.431  22.786  0.00  0.00    -0.201 OA
ATOM     34  O26 MOL d          21.870  -2.457  20.431  0.00  0.00    -0.201 OA
BRANCH  32  35
ATOM     35  C28 MOL d          23.009  -0.562  21.579  0.00  0.00     0.080 A 
ATOM     36  C33 MOL d          23.035   0.507  22.476  0.00  0.00     0.037 A 
ATOM     37  C32 MOL d          24.079   1.438  22.500  0.00  0.00    -0.023 A 
ATOM     38  C31 MOL d          25.099   1.314  21.569  0.00  0.00     0.012 A 
ATOM     39  C30 MOL d          25.080   0.247  20.666  0.00  0.00     0.002 A 
ATOM     40  C29 MOL d          24.051  -0.689  20.668  0.00  0.00     0.025 A 
BRANCH  37  41
ATOM     41  C34 MOL d          24.015   2.572  23.474  0.00  0.00    -0.004 A 
ATOM     42  C35 MOL d          23.753   2.368  24.821  0.00  0.00     0.046 A 
ATOM     43  C36 MOL d          23.660   3.431  25.705  0.00  0.00     0.048 A 
ATOM     44 CL1  MOL d          23.546   0.734  25.512  0.00  0.00    -0.083 Cl
ATOM     45  C37 MOL d          23.823   4.721  25.251  0.00  0.00     0.035 A 
ATOM     46  C38 MOL d          24.078   4.948  23.909  0.00  0.00     0.025 A 
ATOM     47 CL2  MOL d          23.679   6.056  26.437  0.00  0.00    -0.084 Cl
ATOM     48  C39 MOL d          24.165   3.876  23.019  0.00  0.00     0.015 A 
ENDBRANCH  37  41
ENDBRANCH  32  35
ENDBRANCH  30  32
ENDBRANCH   1  30
TORSDOF 12
