REMARK  3 active torsions:
REMARK  status: ('A' for Active; 'I' for Inactive)
REMARK    1  A    between atoms: C7_2  and  C6_4 
REMARK    2  A    between atoms: C13_10  and  O13_12 
REMARK    3  A    between atoms: C3_20  and  O31_21 
ROOT
ATOM      1  C6  GA3 d          10.667   0.605  20.008  0.00  0.00     0.105 C 
ATOM      2  C5  GA3 d          11.573   0.258  18.818  0.00  0.00     0.061 C 
ATOM      3  C8  GA3 d          11.067   2.058  20.364  0.00  0.00    -0.013 C 
ATOM      4  C15 GA3 d          10.196   3.213  19.843  0.00  0.00     0.047 C 
ATOM      5  C16 GA3 d          10.578   4.328  20.771  0.00  0.00    -0.054 C 
ATOM      6  C17 GA3 d          10.449   5.625  20.562  0.00  0.00     0.017 C 
ATOM      7  C13 GA3 d          11.345   3.779  21.962  0.00  0.00     0.081 C 
ATOM      8  C14 GA3 d          11.030   2.275  21.878  0.00  0.00     0.053 C 
ATOM      9  C12 GA3 d          12.855   3.947  21.724  0.00  0.00     0.043 C 
ATOM     10  C11 GA3 d          13.419   2.691  21.056  0.00  0.00     0.012 C 
ATOM     11  C9  GA3 d          12.524   2.282  19.885  0.00  0.00     0.035 C 
ATOM     12  C10 GA3 d          12.881   0.948  19.252  0.00  0.00     0.098 C 
ATOM     13  O92 GA3 d          13.375  -0.062  20.233  0.00  0.00    -0.304 OA
ATOM     14  C1  GA3 d          13.917   0.928  18.169  0.00  0.00     0.011 C 
ATOM     15  C2  GA3 d          13.988  -0.154  17.395  0.00  0.00     0.005 C 
ATOM     16  C3  GA3 d          13.015  -1.306  17.457  0.00  0.00     0.159 C 
ATOM     17  C4  GA3 d          12.064  -1.208  18.680  0.00  0.00     0.081 C 
ATOM     18  C18 GA3 d          10.989  -2.295  18.698  0.00  0.00     0.029 C 
ATOM     19  C19 GA3 d          12.944  -1.311  19.906  0.00  0.00     0.271 C 
ATOM     20  O91 GA3 d          13.240  -2.268  20.549  0.00  0.00    -0.264 OA
ENDROOT
BRANCH   1  21
ATOM     21  C7  GA3 d           9.168   0.586  19.750  0.00  0.00     0.178 C 
ATOM     22  O71 GA3 d           8.373   0.310  20.680  0.00  0.00    -0.648 OA
ATOM     23  O72 GA3 d           8.809   0.883  18.592  0.00  0.00    -0.648 OA
ENDBRANCH   1  21
BRANCH  16  24
ATOM     24  O31 GA3 d          12.311  -1.298  16.222  0.00  0.00    -0.390 OA
ATOM     25  H   GA3 d          12.927  -1.408  15.507  0.00  0.00     0.210 HD
ENDBRANCH  16  24
BRANCH   7  26
ATOM     26  O13 GA3 d          11.074   4.412  23.229  0.00  0.00    -0.385 OA
ATOM     27  H   GA3 d          10.151   4.323  23.435  0.00  0.00     0.211 HD
ENDBRANCH   7  26
TORSDOF 3
