REMARK  3 active torsions:
REMARK  status: ('A' for Active; 'I' for Inactive)
REMARK    1  A    between atoms: C5_5  and  C12_12 
REMARK    2  A    between atoms: C7_7  and  N10_10 
REMARK    3  A    between atoms: C12_12  and  C14_14 
ROOT
ATOM      1  C1  H05 d           6.251  11.916  24.055  0.00  0.00     0.159 A 
ATOM      2  N2  H05 d           5.292  11.091  23.596  0.00  0.00    -0.186 N 
ATOM      3  N3  H05 d           7.457  11.358  23.783  0.00  0.00    -0.171 N 
ATOM      4  N4  H05 d           5.816   9.934  22.992  0.00  0.00     0.027 NA
ATOM      5  C5  H05 d           3.981  11.408  23.752  0.00  0.00     0.131 A 
ATOM      6  N6  H05 d           3.653  12.589  24.369  0.00  0.00    -0.233 NA
ATOM      7  C7  H05 d           7.140  10.189  23.153  0.00  0.00     0.717 A 
ATOM      8  C8  H05 d           5.974  13.128  24.690  0.00  0.00     0.039 A 
ATOM      9  C9  H05 d           4.618  13.451  24.838  0.00  0.00     0.072 A 
ATOM     10  C11 H05 d           6.982  13.986  25.160  0.00  0.00     0.018 A 
ATOM     11  C13 H05 d           4.279  14.655  25.472  0.00  0.00     0.032 A 
ATOM     12  C15 H05 d           6.629  15.173  25.787  0.00  0.00     0.001 A 
ATOM     13  C16 H05 d           5.287  15.503  25.939  0.00  0.00     0.002 A 
ATOM     14  H1  H05 d           8.393  11.729  24.001  0.00  0.00     0.186 HD
ENDROOT
BRANCH   5  15
ATOM     15  C12 H05 d           2.878  10.487  23.262  0.00  0.00     0.080 C 
BRANCH  15  16
ATOM     16  C14 H05 d           2.774   9.249  24.159  0.00  0.00     0.003 C 
ATOM     17  C17 H05 d           2.295   9.574  25.562  0.00  0.00     0.005 C 
ENDBRANCH  15  16
ENDBRANCH   5  15
BRANCH   7  18
ATOM     18  N10 H05 d           8.105   9.341  22.713  0.00  0.00    -0.231 N 
ATOM     19  H   H05 d           9.098   9.573  22.856  0.00  0.00     0.174 HD
ATOM     20  H   H05 d           7.844   8.466  22.237  0.00  0.00     0.174 HD
ENDBRANCH   7  18
TORSDOF 3
