REMARK  2 active torsions:
REMARK  status: ('A' for Active; 'I' for Inactive)
REMARK    1  A    between atoms: C2'_10  and  O2'_11 
REMARK    2  A    between atoms: C1'_12  and  N9_13 
ROOT
ATOM      1  N9  PCG d          17.749  -3.640  87.133  0.00  0.00    -0.295 N 
ATOM      2  C8  PCG d          18.703  -4.170  86.298  0.00  0.00     0.214 A 
ATOM      3  N7  PCG d          19.368  -5.168  86.883  0.00  0.00    -0.234 NA
ATOM      4  C5  PCG d          18.822  -5.277  88.139  0.00  0.00     0.171 A 
ATOM      5  C6  PCG d          19.113  -6.168  89.228  0.00  0.00     0.292 A 
ATOM      6  O6  PCG d          19.991  -7.065  89.227  0.00  0.00    -0.265 OA
ATOM      7  N1  PCG d          18.338  -5.969  90.345  0.00  0.00    -0.154 N 
ATOM      8  C2  PCG d          17.317  -5.035  90.428  0.00  0.00     0.680 A 
ATOM      9  N2  PCG d          16.608  -4.943  91.568  0.00  0.00    -0.234 N 
ATOM     10  N3  PCG d          17.009  -4.167  89.412  0.00  0.00    -0.174 N 
ATOM     11  C4  PCG d          17.814  -4.351  88.268  0.00  0.00     0.161 A 
ATOM     12  H   PCG d          18.522  -6.534  91.149  0.00  0.00     0.187 HD
ATOM     13  H   PCG d          15.846  -4.254  91.646  0.00  0.00     0.174 HD
ATOM     14  H   PCG d          16.827  -5.561  92.362  0.00  0.00     0.174 HD
ATOM     15  H   PCG d          16.267  -3.455  89.477  0.00  0.00     0.186 HD
ENDROOT
BRANCH   1  16
ATOM     16  C1' PCG d          16.781  -2.633  86.815  0.00  0.00     0.262 C 
ATOM     17  O4' PCG d          16.981  -1.478  87.768  0.00  0.00    -0.353 OA
ATOM     18  C4' PCG d          15.601  -0.985  87.947  0.00  0.00     0.180 C 
ATOM     19  C5' PCG d          15.295  -0.058  89.137  0.00  0.00     0.216 C 
ATOM     20  C3' PCG d          14.809  -2.109  88.020  0.00  0.00     0.198 C 
ATOM     21  O5' PCG d          13.987   0.292  89.071  0.00  0.00    -0.287 OA
ATOM     22  PA  PCG d          12.899  -0.802  88.985  0.00  0.00     0.408 P 
ATOM     23  O1A PCG d          11.616  -0.160  88.499  0.00  0.00    -0.624 OA
ATOM     24  O2A PCG d          12.833  -1.516  90.288  0.00  0.00    -0.624 OA
ATOM     25  O3' PCG d          13.388  -1.806  87.855  0.00  0.00    -0.279 OA
ATOM     26  C2' PCG d          15.428  -3.009  86.874  0.00  0.00     0.199 C 
BRANCH  26  27
ATOM     27  O2' PCG d          14.751  -2.732  85.648  0.00  0.00    -0.388 OA
ATOM     28  H   PCG d          13.827  -2.929  85.746  0.00  0.00     0.210 HD
ENDBRANCH  26  27
ENDBRANCH   1  16
TORSDOF 2
