REMARK  2 active torsions:
REMARK  status: ('A' for Active; 'I' for Inactive)
REMARK    1  A    between atoms: C2_4  and  C8_8 
REMARK    2  A    between atoms: C17_18  and  O20_19 
ROOT
ATOM      1  C8  GYN d           5.297  24.803  -7.823  0.00  0.00    -0.048 C 
ATOM      2  C13 GYN d           4.330  25.580  -7.294  0.00  0.00    -0.070 C 
ATOM      3  C14 GYN d           3.603  26.572  -8.177  0.00  0.00     0.044 C 
ATOM      4  C12 GYN d           3.929  25.531  -5.834  0.00  0.00     0.051 C 
ATOM      5  C27 GYN d           4.970  24.809  -4.965  0.00  0.00     0.011 C 
ATOM      6  C10 GYN d           5.361  23.510  -5.671  0.00  0.00     0.021 C 
ATOM      7  C9  GYN d           5.954  23.680  -7.061  0.00  0.00     0.038 C 
ATOM      8  C15 GYN d           3.690  26.947  -5.333  0.00  0.00    -0.012 C 
ATOM      9  C16 GYN d           2.505  27.471  -4.948  0.00  0.00    -0.059 C 
ATOM     10  C19 GYN d           1.212  26.691  -4.979  0.00  0.00     0.046 C 
ATOM     11  C17 GYN d           2.498  28.909  -4.487  0.00  0.00     0.146 C 
ATOM     12  C18 GYN d           1.891  29.041  -3.095  0.00  0.00     0.039 C 
ATOM     13  C21 GYN d           2.893  28.878  -1.967  0.00  0.00     0.035 C 
ATOM     14  C43 GYN d           2.662  27.604  -1.168  0.00  0.00     0.122 C 
ATOM     15  C47 GYN d           3.259  27.640   0.235  0.00  0.00     0.039 C 
ATOM     16  C48 GYN d           2.332  26.775   1.073  0.00  0.00     0.017 C 
ATOM     17  C49 GYN d           1.707  27.610   2.192  0.00  0.00     0.013 C 
ATOM     18  O43 GYN d           1.290  27.232  -0.970  0.00  0.00    -0.376 OA
ATOM     19  C37 GYN d           1.261  26.277   0.110  0.00  0.00     0.154 C 
ATOM     20  C36 GYN d           1.550  24.864  -0.351  0.00  0.00    -0.059 C 
ATOM     21  C38 GYN d           1.195  23.700   0.546  0.00  0.00     0.046 C 
ATOM     22  C35 GYN d           2.102  24.667  -1.567  0.00  0.00    -0.021 C 
ATOM     23  C34 GYN d           2.470  23.338  -2.202  0.00  0.00     0.033 C 
ATOM     24  C33 GYN d           3.031  23.560  -3.615  0.00  0.00     0.059 C 
ATOM     25  C32 GYN d           4.337  24.352  -3.654  0.00  0.00     0.016 C 
ATOM     26  N31 GYN d           4.931  24.609  -2.560  0.00  0.00    -0.298 NA
ATOM     27  C30 GYN d           6.312  24.999  -2.316  0.00  0.00     0.148 C 
ATOM     28  C46 GYN d           6.596  26.096  -3.331  0.00  0.00     0.023 C 
ATOM     29  C28 GYN d           6.211  25.711  -4.757  0.00  0.00     0.018 C 
ENDROOT
BRANCH   1  30
ATOM     30  C2  GYN d           5.795  25.069  -9.217  0.00  0.00     0.162 C 
ATOM     31  O1  GYN d           7.159  25.489  -9.161  0.00  0.00    -0.311 OA
ATOM     32  C5  GYN d           7.836  24.787 -10.227  0.00  0.00     0.263 C 
ATOM     33  O6  GYN d           9.016  24.954 -10.465  0.00  0.00    -0.265 OA
ATOM     34  C4  GYN d           6.961  23.871 -11.004  0.00  0.00     0.084 C 
ATOM     35  C3  GYN d           5.713  23.838 -10.130  0.00  0.00     0.051 C 
ATOM     36  C7  GYN d           7.619  22.517 -11.209  0.00  0.00     0.020 C 
ENDBRANCH   1  30
BRANCH  11  37
ATOM     37  O20 GYN d           1.698  29.668  -5.406  0.00  0.00    -0.391 OA
ATOM     38  H21 GYN d           1.681  30.578  -5.133  0.00  0.00     0.210 HD
ENDBRANCH  11  37
TORSDOF 2
