REMARK  6 active torsions:
REMARK  status: ('A' for Active; 'I' for Inactive)
REMARK    1  A    between atoms: N_25  and  C3_3 
REMARK    2  A    between atoms: C6_6  and  N_25 
REMARK    3  A    between atoms: N3_24  and  C8_10 
REMARK    4  A    between atoms: C10_13  and  N7_12 
REMARK    5  A    between atoms: C11_15  and  N6_16 
REMARK    6  A    between atoms: N6_16  and  C12_17 
ROOT
ATOM      1  C10 MOL d          11.843  10.058   1.496  0.00  0.00     0.739 A 
ATOM      2  N4  MOL d          12.399   8.857   1.704  0.00  0.00     0.131 NA
ATOM      3  C11 MOL d          13.431   9.125   2.568  0.00  0.00     0.760 A 
ATOM      4  N5  MOL d          13.532  10.398   2.912  0.00  0.00     0.043 NA
ATOM      5  N3  MOL d          12.497  11.006   2.213  0.00  0.00    -0.027 N 
ENDROOT
BRANCH   5   6
ATOM      6  C8  MOL d          12.343  12.397   2.375  0.00  0.00     0.174 A 
ATOM      7  N1  MOL d          11.376  12.974   1.638  0.00  0.00    -0.222 NA
ATOM      8  C9  MOL d          11.366  14.317   1.684  0.00  0.00     0.237 A 
ATOM      9  N2  MOL d          12.208  15.133   2.341  0.00  0.00    -0.224 NA
ATOM     10  C6  MOL d          13.174  14.509   3.051  0.00  0.00     0.133 A 
ATOM     11  C7  MOL d          13.253  13.117   3.152  0.00  0.00     0.103 A 
BRANCH  10  12
ATOM     12  N   MOL d          14.265  15.199   3.550  0.00  0.00    -0.341 N 
ATOM     13  H15 MOL d          14.257  16.201   3.312  0.00  0.00     0.167 HD
BRANCH  12  14
ATOM     14  C3  MOL d          15.389  14.814   4.319  0.00  0.00     0.033 A 
ATOM     15  C2  MOL d          15.417  13.752   5.228  0.00  0.00     0.029 A 
ATOM     16  C1  MOL d          16.634  13.207   5.633  0.00  0.00     0.002 A 
ATOM     17  C   MOL d          17.825  13.713   5.138  0.00  0.00     0.000 A 
ATOM     18  C5  MOL d          17.805  14.779   4.252  0.00  0.00     0.002 A 
ATOM     19  C4  MOL d          16.591  15.343   3.852  0.00  0.00     0.029 A 
ENDBRANCH  12  14
ENDBRANCH  10  12
ENDBRANCH   5   6
BRANCH   1  20
ATOM     20  N7  MOL d          10.857  10.331   0.642  0.00  0.00    -0.230 N 
ATOM     21  H7  MOL d          10.397   9.568   0.125  0.00  0.00     0.174 HD
ATOM     22  H8  MOL d          10.555  11.305   0.499  0.00  0.00     0.174 HD
ENDBRANCH   1  20
BRANCH   3  23
ATOM     23  N6  MOL d          14.248   8.105   3.016  0.00  0.00    -0.186 N 
ATOM     24  H9  MOL d          13.986   7.171   2.669  0.00  0.00     0.184 HD
BRANCH  23  25
ATOM     25  C12 MOL d          15.387   8.113   3.871  0.00  0.00     0.049 A 
ATOM     26  C17 MOL d          15.959   9.292   4.367  0.00  0.00     0.030 A 
ATOM     27  C16 MOL d          17.045   9.223   5.245  0.00  0.00     0.002 A 
ATOM     28  C15 MOL d          17.560   7.986   5.629  0.00  0.00     0.000 A 
ATOM     29  C14 MOL d          17.004   6.823   5.135  0.00  0.00     0.002 A 
ATOM     30  C13 MOL d          15.921   6.877   4.254  0.00  0.00     0.030 A 
ENDBRANCH  23  25
ENDBRANCH   3  23
TORSDOF 6
