REMARK  5 active torsions:
REMARK  status: ('A' for Active; 'I' for Inactive)
REMARK    1  A    between atoms: O5'_1  and  C5'_2 
REMARK    2  A    between atoms: C5'_2  and  C4'_3 
REMARK    3  A    between atoms: C3'_5  and  O3'_6 
REMARK    4  A    between atoms: C2'_7  and  O2'_8 
REMARK    5  A    between atoms: C1'_9  and  N9_10 
ROOT
ATOM      1  C4' ADN d          15.025 -12.851   7.370  0.00  0.00     0.179 C 
ATOM      2  O4' ADN d          16.458 -12.746   7.327  0.00  0.00    -0.353 OA
ATOM      3  C3' ADN d          14.452 -11.703   6.574  0.00  0.00     0.182 C 
ATOM      4  C2' ADN d          15.510 -10.646   6.711  0.00  0.00     0.198 C 
ATOM      5  C1' ADN d          16.794 -11.444   6.825  0.00  0.00     0.262 C 
ENDROOT
BRANCH   5   6
ATOM      6  N9  ADN d          17.505 -11.591   5.530  0.00  0.00    -0.294 N 
ATOM      7  C8  ADN d          17.454 -12.632   4.661  0.00  0.00     0.214 A 
ATOM      8  N7  ADN d          18.296 -12.418   3.598  0.00  0.00    -0.236 NA
ATOM      9  C5  ADN d          18.904 -11.236   3.810  0.00  0.00     0.149 A 
ATOM     10  C6  ADN d          19.907 -10.398   3.125  0.00  0.00     0.155 A 
ATOM     11  C4  ADN d          18.367 -10.698   5.068  0.00  0.00     0.167 A 
ATOM     12  N6  ADN d          20.458 -10.780   1.950  0.00  0.00    -0.382 N 
ATOM     13  N1  ADN d          20.265  -9.229   3.696  0.00  0.00    -0.222 NA
ATOM     14  H11 ADN d          21.156 -10.179   1.489  0.00  0.00     0.157 HD
ATOM     15  H12 ADN d          20.179 -11.671   1.516  0.00  0.00     0.157 HD
ATOM     16  C2  ADN d          19.724  -8.802   4.869  0.00  0.00     0.237 A 
ATOM     17  N3  ADN d          18.806  -9.510   5.531  0.00  0.00    -0.222 NA
ENDBRANCH   5   6
BRANCH   4  18
ATOM     18  O2' ADN d          15.265  -9.869   7.893  0.00  0.00    -0.388 OA
ATOM     19  H8  ADN d          14.412  -9.456   7.828  0.00  0.00     0.210 HD
ENDBRANCH   4  18
BRANCH   1  20
ATOM     20  C5' ADN d          14.518 -14.161   6.827  0.00  0.00     0.198 C 
BRANCH  20  21
ATOM     21  O5' ADN d          13.968 -14.859   7.942  0.00  0.00    -0.398 OA
ATOM     22  H1  ADN d          14.645 -14.995   8.594  0.00  0.00     0.209 HD
ENDBRANCH  20  21
ENDBRANCH   1  20
BRANCH   3  23
ATOM     23  O3' ADN d          13.203 -11.266   7.101  0.00  0.00    -0.390 OA
ATOM     24  H6  ADN d          12.582 -11.985   7.079  0.00  0.00     0.210 HD
ENDBRANCH   3  23
TORSDOF 5
