REMARK  6 active torsions:
REMARK  status: ('A' for Active; 'I' for Inactive)
REMARK    1  A    between atoms: C20_20  and  C1_1 
REMARK    2  A    between atoms: C10_10  and  C4_4 
REMARK    3  A    between atoms: C6_6  and  C8_8 
REMARK    4  A    between atoms: C8_8  and  N9_9 
REMARK    5  A    between atoms: C18_18  and  C16_16 
REMARK    6  A    between atoms: C23_23  and  C24_24 
ROOT
ATOM      1  C10 P43 d          -4.168  58.298  -4.155  0.00  0.00     0.021 C 
ATOM      2  C11 P43 d          -3.408  57.496  -5.268  0.00  0.00     0.029 C 
ATOM      3  C12 P43 d          -3.239  56.047  -4.787  0.00  0.00     0.126 C 
ATOM      4  N13 P43 d          -4.646  55.534  -4.564  0.00  0.00    -0.357 N 
ATOM      5  C14 P43 d          -5.450  56.224  -3.357  0.00  0.00     0.126 C 
ATOM      6  C15 P43 d          -5.586  57.760  -3.633  0.00  0.00     0.029 C 
ATOM      7  C16 P43 d          -5.159  54.585  -5.376  0.00  0.00     0.211 C 
ATOM      8  O17 P43 d          -4.463  54.093  -6.364  0.00  0.00    -0.169 OA
ENDROOT
BRANCH   7   9
ATOM      9  C18 P43 d          -6.554  54.065  -5.159  0.00  0.00     0.130 A 
ATOM     10  O19 P43 d          -7.293  53.865  -6.290  0.00  0.00    -0.297 OA
ATOM     11  C20 P43 d          -8.515  53.366  -5.961  0.00  0.00     0.129 A 
ATOM     12  C21 P43 d          -8.619  53.238  -4.603  0.00  0.00     0.049 A 
ATOM     13  C22 P43 d          -7.299  53.705  -4.054  0.00  0.00     0.045 A 
BRANCH  11  14
ATOM     14  C1  P43 d          -9.423  53.106  -7.026  0.00  0.00    -0.036 C 
ATOM     15  C23 P43 d         -10.207  52.875  -7.891  0.00  0.00    -0.056 C 
BRANCH  15  16
ATOM     16  C24 P43 d         -11.142  52.597  -8.921  0.00  0.00     0.056 A 
ATOM     17  C25 P43 d         -10.708  52.359 -10.322  0.00  0.00     0.024 A 
ATOM     18  C26 P43 d         -11.714  52.008 -11.352  0.00  0.00     0.002 A 
ATOM     19  C27 P43 d         -13.078  51.928 -10.889  0.00  0.00     0.003 A 
ATOM     20  C28 P43 d         -13.510  52.143  -9.481  0.00  0.00     0.044 A 
ATOM     21  C29 P43 d         -12.531  52.504  -8.483  0.00  0.00     0.135 A 
ATOM     22  F30 P43 d         -12.910  52.719  -7.143  0.00  0.00    -0.205 F 
ENDBRANCH  15  16
ENDBRANCH  11  14
ENDBRANCH   7   9
BRANCH   1  23
ATOM     23  C4  P43 d          -4.274  59.740  -4.461  0.00  0.00    -0.053 A 
ATOM     24  C3  P43 d          -3.965  60.681  -3.397  0.00  0.00     0.007 A 
ATOM     25  C2  P43 d          -4.066  62.094  -3.605  0.00  0.00     0.001 A 
ATOM     26  C7  P43 d          -4.462  62.521  -4.930  0.00  0.00     0.009 A 
ATOM     27  C6  P43 d          -4.788  61.582  -6.004  0.00  0.00    -0.033 A 
ATOM     28  C5  P43 d          -4.673  60.183  -5.805  0.00  0.00     0.016 A 
BRANCH  27  29
ATOM     29  C8  P43 d          -5.231  62.160  -7.366  0.00  0.00     0.268 C 
BRANCH  29  30
ATOM     30  N9  P43 d          -4.572  61.510  -8.465  0.00  0.00    -0.075 N 
ATOM     31  H7  P43 d          -4.887  61.915  -9.333  0.00  0.00     0.274 HD
ATOM     32  H8  P43 d          -4.791  60.526  -8.454  0.00  0.00     0.274 HD
ATOM     33  H9  P43 d          -3.575  61.633  -8.380  0.00  0.00     0.274 HD
ENDBRANCH  29  30
ENDBRANCH  27  29
ENDBRANCH   1  23
TORSDOF 6
