REMARK  6 active torsions:
REMARK  status: ('A' for Active; 'I' for Inactive)
REMARK    1  A    between atoms: NBC_2  and  CBB_4 
REMARK    2  A    between atoms: CBB_4  and  CBA_5 
REMARK    3  A    between atoms: CBA_5  and  CAY_6 
REMARK    4  A    between atoms: CAY_6  and  NAH_7 
REMARK    5  A    between atoms: CAG_15  and  CAI_16 
REMARK    6  A    between atoms: CAJ_22  and  CAK_23 
ROOT
ATOM      1  CAI BI1 d         -19.080 -37.843  -1.936  0.00  0.00     0.131 A 
ATOM      2  CAT BI1 d         -19.142 -38.348  -3.335  0.00  0.00     0.234 A 
ATOM      3  OAZ BI1 d         -18.416 -37.897  -4.292  0.00  0.00    -0.272 OA
ATOM      4  NAU BI1 d         -20.106 -39.270  -3.549  0.00  0.00    -0.296 N 
ATOM      5  CAV BI1 d         -20.657 -39.495  -2.348  0.00  0.00     0.234 A 
ATOM      6  OAX BI1 d         -21.602 -40.340  -2.208  0.00  0.00    -0.272 OA
ATOM      7  CAJ BI1 d         -20.089 -38.674  -1.255  0.00  0.00     0.131 A 
ATOM      8  H20 BI1 d         -20.356 -39.695  -4.419  0.00  0.00     0.171 HD
ENDROOT
BRANCH   1   9
ATOM      9  CAG BI1 d         -18.036 -36.900  -1.398  0.00  0.00    -0.016 A 
ATOM     10  CAW BI1 d         -17.456 -37.127  -0.172  0.00  0.00     0.100 A 
ATOM     11  NAH BI1 d         -16.511 -36.147  -0.040  0.00  0.00    -0.355 N 
ATOM     12  CAE BI1 d         -16.462 -35.369  -1.130  0.00  0.00     0.045 A 
ATOM     13  CAF BI1 d         -15.668 -34.278  -1.493  0.00  0.00     0.030 A 
ATOM     14  CAD BI1 d         -17.403 -35.850  -2.045  0.00  0.00    -0.001 A 
ATOM     15  CAA BI1 d         -15.846 -33.662  -2.716  0.00  0.00     0.002 A 
ATOM     16  CAB BI1 d         -16.813 -34.132  -3.621  0.00  0.00     0.001 A 
ATOM     17  CAC BI1 d         -17.616 -35.224  -3.278  0.00  0.00     0.014 A 
BRANCH  11  18
ATOM     18  CAY BI1 d         -15.656 -36.015   1.124  0.00  0.00     0.130 C 
BRANCH  18  19
ATOM     19  CBA BI1 d         -16.452 -36.054   2.407  0.00  0.00     0.048 C 
BRANCH  19  20
ATOM     20  CBB BI1 d         -15.389 -35.923   3.486  0.00  0.00     0.235 C 
BRANCH  20  21
ATOM     21  NBC BI1 d         -15.866 -36.487   4.747  0.00  0.00    -0.079 N 
ATOM     22  CBD BI1 d         -14.903 -36.487   5.842  0.00  0.00     0.269 C 
ATOM     23  CBE BI1 d         -17.218 -36.979   4.963  0.00  0.00     0.269 C 
ATOM     24  H4  BI1 d         -15.579 -37.409   4.458  0.00  0.00     0.278 HD
ENDBRANCH  20  21
ENDBRANCH  19  20
ENDBRANCH  18  19
ENDBRANCH  11  18
ENDBRANCH   1   9
BRANCH   7  25
ATOM     25  CAK BI1 d         -20.504 -38.750   0.183  0.00  0.00    -0.016 A 
ATOM     26  CAM BI1 d         -20.430 -37.731   1.154  0.00  0.00    -0.001 A 
ATOM     27  CAP BI1 d         -20.008 -36.396   1.120  0.00  0.00     0.014 A 
ATOM     28  CAN BI1 d         -20.909 -38.347   2.311  0.00  0.00     0.042 A 
ATOM     29  CAQ BI1 d         -20.066 -35.647   2.290  0.00  0.00     0.001 A 
ATOM     30  CAR BI1 d         -20.550 -36.246   3.454  0.00  0.00     0.002 A 
ATOM     31  CAS BI1 d         -20.983 -37.583   3.491  0.00  0.00     0.030 A 
ATOM     32  NAO BI1 d         -21.256 -39.643   2.019  0.00  0.00    -0.365 N 
ATOM     33  CAL BI1 d         -21.025 -39.931   0.709  0.00  0.00     0.097 A 
ATOM     34  H26 BI1 d         -21.641 -40.310   2.703  0.00  0.00     0.165 HD
ENDBRANCH   7  25
TORSDOF 6
