REMARK  4 active torsions:
REMARK  status: ('A' for Active; 'I' for Inactive)
REMARK    1  A    between atoms: CAO_15  and  NAB_2 
REMARK    2  A    between atoms: CAK_11  and  OAD_4 
REMARK    3  A    between atoms: CAG_7  and  CAL_12 
REMARK    4  A    between atoms: CAQ_17  and  CAG_7 
ROOT
ATOM      1  CAA MOL d          -0.482   2.106  -7.992  0.00  0.00     0.176 C 
ATOM      2  OAC MOL d           0.330  -1.980 -10.255  0.00  0.00    -0.265 OA
ATOM      3  NAJ MOL d          -0.050   0.189 -11.005  0.00  0.00    -0.154 N 
ATOM      4  CAO MOL d          -0.277   1.347 -10.345  0.00  0.00     0.681 A 
ATOM      5  CAP MOL d           0.107  -0.760 -10.074  0.00  0.00     0.287 A 
ATOM      6  CAQ MOL d          -0.042  -0.146  -8.837  0.00  0.00     0.120 A 
ATOM      7  NAR MOL d          -0.267   1.114  -9.048  0.00  0.00    -0.182 N 
ATOM      8  H10 MOL d          -0.008   0.065 -11.996  0.00  0.00     0.187 HD
ENDROOT
BRANCH   6   9
ATOM      9  CAG MOL d           0.064  -0.859  -7.686  0.00  0.00     0.047 C 
BRANCH   9  10
ATOM     10  CAL MOL d          -0.039  -0.438  -6.365  0.00  0.00    -0.031 A 
ATOM     11  CAH MOL d          -0.886   0.523  -5.778  0.00  0.00     0.033 A 
ATOM     12  CAM MOL d          -0.848   0.742  -4.381  0.00  0.00     0.046 A 
ATOM     13 BRAE MOL d          -1.939   2.000  -3.448  0.00  0.00    -0.048 Br
ATOM     14  CAK MOL d           0.001   0.003  -3.595  0.00  0.00     0.100 A 
ATOM     15  CAN MOL d           0.797  -0.921  -4.206  0.00  0.00     0.046 A 
ATOM     16 BRAF MOL d           2.006  -2.001  -3.283  0.00  0.00    -0.048 Br
ATOM     17  CAI MOL d           0.781  -1.149  -5.545  0.00  0.00     0.033 A 
BRANCH  14  18
ATOM     18  OAD MOL d           0.065   0.186  -2.254  0.00  0.00    -0.358 OA
ATOM     19  H6  MOL d           0.704  -0.412  -1.884  0.00  0.00     0.217 HD
ENDBRANCH  14  18
ENDBRANCH   9  10
ENDBRANCH   6   9
BRANCH   4  20
ATOM     20  NAB MOL d          -0.476   2.601 -10.810  0.00  0.00    -0.234 N 
ATOM     21  H4  MOL d          -0.483   2.779 -11.825  0.00  0.00     0.174 HD
ATOM     22  H5  MOL d          -0.621   3.378 -10.150  0.00  0.00     0.174 HD
ENDBRANCH   4  20
TORSDOF 4
