REMARK  5 active torsions:
REMARK  status: ('A' for Active; 'I' for Inactive)
REMARK    1  A    between atoms: C6_6  and  C43_31 
REMARK    2  A    between atoms: S38_26  and  C26_18 
REMARK    3  A    between atoms: C43_31  and  N28_20 
REMARK    4  A    between atoms: C30_22  and  N37_25 
REMARK    5  A    between atoms: N37_25  and  S38_26 
ROOT
ATOM      1  N28 MOL d           5.545   6.538  22.624  0.00  0.00    -0.346 N 
ATOM      2  C29 MOL d           5.064   5.365  23.092  0.00  0.00     0.243 C 
ATOM      3  C30 MOL d           5.212   4.318  22.002  0.00  0.00     0.186 C 
ATOM      4  C31 MOL d           5.424   5.165  20.741  0.00  0.00     0.055 C 
ATOM      5  C32 MOL d           6.040   6.455  21.245  0.00  0.00     0.129 C 
ATOM      6  O41 MOL d           4.591   5.149  24.202  0.00  0.00    -0.271 OA
ENDROOT
BRANCH   1   7
ATOM      7  C43 MOL d           5.599   7.797  23.385  0.00  0.00     0.164 C 
BRANCH   7   8
ATOM      8  C6  MOL d           7.017   8.206  23.671  0.00  0.00    -0.039 A 
ATOM      9  C1  MOL d           7.741   9.124  22.848  0.00  0.00     0.010 A 
ATOM     10  C2  MOL d           9.088   9.459  23.141  0.00  0.00     0.013 A 
ATOM     11  C3  MOL d           9.755   8.881  24.272  0.00  0.00    -0.021 A 
ATOM     12  C10 MOL d          11.109   9.226  24.546  0.00  0.00     0.031 A 
ATOM     13  C4  MOL d           9.068   7.936  25.149  0.00  0.00     0.020 A 
ATOM     14  C11 MOL d          11.721   8.629  25.665  0.00  0.00     0.120 A 
ATOM     15  N12 MOL d          11.081   7.738  26.496  0.00  0.00    -0.243 NA
ATOM     16  C13 MOL d           9.772   7.388  26.254  0.00  0.00     0.132 A 
ATOM     17  N42 MOL d           9.224   6.513  27.114  0.00  0.00    -0.383 N 
ATOM     18  H16 MOL d           9.780   6.146  27.900  0.00  0.00     0.157 HD
ATOM     19  H17 MOL d           8.248   6.209  26.988  0.00  0.00     0.157 HD
ATOM     20  C5  MOL d           7.730   7.587  24.881  0.00  0.00     0.025 A 
ENDBRANCH   7   8
ENDBRANCH   1   7
BRANCH   3  21
ATOM     21  N37 MOL d           4.025   3.498  21.911  0.00  0.00    -0.301 N 
ATOM     22  H15 MOL d           3.113   3.908  21.910  0.00  0.00     0.173 HD
BRANCH  21  23
ATOM     23  S38 MOL d           4.236   1.779  21.803  0.00  0.00     0.266 S 
ATOM     24  O40 MOL d           4.508   1.377  23.158  0.00  0.00    -0.200 OA
ATOM     25  O39 MOL d           2.991   1.409  21.164  0.00  0.00    -0.200 OA
BRANCH  23  26
ATOM     26  C26 MOL d           5.616   1.440  20.782  0.00  0.00     0.123 A 
ATOM     27  S27 MOL d           7.285   1.667  21.122  0.00  0.00    -0.074 SA
ATOM     28  C16 MOL d           7.785   1.092  19.612  0.00  0.00     0.035 A 
ATOM     29  C21 MOL d           6.674   0.700  18.780  0.00  0.00     0.075 A 
ATOM     30  C17 MOL d           9.061   0.952  19.084  0.00  0.00     0.023 A 
ATOM     31  C25 MOL d           5.416   0.914  19.496  0.00  0.00     0.065 A 
ATOM     32  N20 MOL d           6.878   0.204  17.505  0.00  0.00    -0.260 NA
ATOM     33  C19 MOL d           8.140   0.076  17.003  0.00  0.00     0.117 A 
ATOM     34  C18 MOL d           9.271   0.442  17.774  0.00  0.00     0.021 A 
ENDBRANCH  23  26
ENDBRANCH  21  23
ENDBRANCH   3  21
TORSDOF 5
