REMARK  30 active torsions:
REMARK  status: ('A' for Active; 'I' for Inactive)
REMARK    1  A    between atoms: N_1  and  CA_2 
REMARK    2  A    between atoms: CA_2  and  C_3 
REMARK       I    between atoms: C_3  and  N_6 
REMARK    3  A    between atoms: N_6  and  CA_7 
REMARK    4  A    between atoms: CA_7  and  C_8 
REMARK    5  A    between atoms: CA_7  and  CB_10 
REMARK       I    between atoms: C_8  and  N_17 
REMARK    6  A    between atoms: CB_10  and  CG_11 
REMARK    7  A    between atoms: CG_11  and  CD_12 
REMARK    8  A    between atoms: CD_12  and  NE_13 
REMARK       I    between atoms: NE_13  and  CZ_14 
REMARK       I    between atoms: CZ_14  and  NH1_15 
REMARK    9  A    between atoms: N_17  and  CA_18 
REMARK   10  A    between atoms: CA_18  and  C_19 
REMARK   11  A    between atoms: CA_18  and  CB_21 
REMARK       I    between atoms: C_19  and  N_24 
REMARK   12  A    between atoms: CB_21  and  OG1_22 
REMARK   13  A    between atoms: N_24  and  CA_25 
REMARK   14  A    between atoms: CA_25  and  CB_26 
REMARK   15  A    between atoms: CA_25  and  C_33 
REMARK   16  A    between atoms: CB_26  and  CG_27 
REMARK   17  A    between atoms: CG_27  and  CD_28 
REMARK   18  A    between atoms: CD_28  and  CE_29 
REMARK   19  A    between atoms: CE_29  and  NZ_30 
REMARK       I    between atoms: C_33  and  N_35 
REMARK   20  A    between atoms: N_35  and  CA_36 
REMARK   21  A    between atoms: CA_36  and  C_37 
REMARK   22  A    between atoms: CA_36  and  CB_39 
REMARK       I    between atoms: C_37  and  N_44 
REMARK   23  A    between atoms: CB_39  and  CG_40 
REMARK   24  A    between atoms: CG_40  and  CD_41 
REMARK       I    between atoms: CD_41  and  NE2_43 
REMARK   25  A    between atoms: N_44  and  CA_45 
REMARK   26  A    between atoms: CA_45  and  C_46 
REMARK   27  A    between atoms: CA_45  and  CB_48 
REMARK       I    between atoms: C_46  and  N_51 
REMARK   28  A    between atoms: CB_48  and  OG1_49 
REMARK   29  A    between atoms: N_51  and  CA_52 
REMARK   30  A    between atoms: CA_52  and  C_53 
ROOT
ATOM      1  CA  ALA d         -20.280 -11.265  13.761  0.00  0.00     0.176 C 
ENDROOT
BRANCH   1   2
ATOM      2  N   ALA d         -19.855 -12.643  13.919  0.00  0.00    -0.346 N 
ATOM      3  C   ALA d         -20.610 -13.535  14.556  0.00  0.00     0.243 C 
ATOM      4  O   ALA d         -21.645 -13.234  15.128  0.00  0.00    -0.271 OA
ATOM      5  H28 ALA d         -18.975 -12.929  13.541  0.00  0.00     0.163 HD
BRANCH   3   6
ATOM      6  CA  ALA d         -20.165 -14.978  14.498  0.00  0.00     0.205 C 
BRANCH   6   7
ATOM      7  N   ALA d         -21.128 -15.823  15.229  0.00  0.00    -0.344 N 
ATOM      8  C   ALA d         -20.724 -16.672  16.170  0.00  0.00     0.241 C 
ATOM      9  O   ALA d         -19.532 -16.850  16.438  0.00  0.00    -0.271 OA
ATOM     10  H21 ALA d         -22.102 -15.756  15.013  0.00  0.00     0.163 HD
BRANCH   8  11
ATOM     11  CA  ALA d         -21.831 -17.423  16.933  0.00  0.00     0.176 C 
BRANCH  11  12
ATOM     12  N   ALA d         -21.827 -18.846  16.629  0.00  0.00    -0.346 N 
ATOM     13  C   ALA d         -22.303 -19.334  15.486  0.00  0.00     0.248 C 
ATOM     14  O   ALA d         -22.772 -18.630  14.598  0.00  0.00    -0.271 OA
ATOM     15  H8  ALA d         -21.452 -19.481  17.304  0.00  0.00     0.163 HD
BRANCH  13  16
ATOM     16  CA  ALA d         -22.225 -20.835  15.317  0.00  0.00     0.270 C 
ATOM     17  CB  ALA d         -20.916 -21.201  14.639  0.00  0.00     0.050 C 
BRANCH  16  18
ATOM     18  N   ALA d         -23.405 -21.311  14.526  0.00  0.00    -0.067 N 
ATOM     19  H1  ALA d         -23.353 -22.311  14.414  0.00  0.00     0.275 HD
ATOM     20  H2  ALA d         -23.402 -20.870  13.619  0.00  0.00     0.275 HD
ATOM     21  H3  ALA d         -24.255 -21.072  15.013  0.00  0.00     0.275 HD
ENDBRANCH  16  18
ENDBRANCH  13  16
ENDBRANCH  11  12
BRANCH  11  22
ATOM     22  CB  ALA d         -21.670 -17.232  18.452  0.00  0.00     0.036 C 
BRANCH  22  23
ATOM     23  CG  ALA d         -21.429 -15.807  18.901  0.00  0.00     0.023 C 
BRANCH  23  24
ATOM     24  CD  ALA d         -22.618 -15.258  19.674  0.00  0.00     0.138 C 
BRANCH  24  25
ATOM     25  NE  ALA d         -22.158 -14.394  20.753  0.00  0.00    -0.227 N 
ATOM     26  CZ  ALA d         -22.132 -14.727  22.045  0.00  0.00     0.665 C 
ATOM     27  NH1 ALA d         -22.569 -15.913  22.478  0.00  0.00    -0.235 N 
ATOM     28  NH2 ALA d         -21.670 -13.854  22.909  0.00  0.00    -0.235 N 
ATOM     29  H17 ALA d         -22.535 -16.139  23.482  0.00  0.00     0.174 HD
ATOM     30  H18 ALA d         -22.940 -16.601  21.808  0.00  0.00     0.174 HD
ATOM     31  H19 ALA d         -21.331 -12.937  22.584  0.00  0.00     0.174 HD
ATOM     32  H20 ALA d         -21.646 -14.085  23.912  0.00  0.00     0.174 HD
ATOM     33  H16 ALA d         -21.827 -13.452  20.499  0.00  0.00     0.177 HD
ENDBRANCH  24  25
ENDBRANCH  23  24
ENDBRANCH  22  23
ENDBRANCH  11  22
ENDBRANCH   8  11
ENDBRANCH   6   7
BRANCH   6  34
ATOM     34  CB  ALA d         -20.055 -15.412  13.001  0.00  0.00     0.146 C 
ATOM     35  CG2 ALA d         -19.836 -16.920  12.904  0.00  0.00     0.042 C 
BRANCH  34  36
ATOM     36  OG1 ALA d         -21.245 -15.014  12.308  0.00  0.00    -0.393 OA
ATOM     37  H24 ALA d         -21.182 -15.276  11.397  0.00  0.00     0.210 HD
ENDBRANCH  34  36
ENDBRANCH   6  34
ENDBRANCH   3   6
ENDBRANCH   1   2
BRANCH   1  38
ATOM     38  CB  ALA d         -19.082 -10.368  13.445  0.00  0.00     0.035 C 
BRANCH  38  39
ATOM     39  CG  ALA d         -18.076 -10.306  14.600  0.00  0.00     0.004 C 
BRANCH  39  40
ATOM     40  CD  ALA d         -18.709  -9.763  15.901  0.00  0.00     0.028 C 
BRANCH  40  41
ATOM     41  CE  ALA d         -17.707  -9.745  17.071  0.00  0.00     0.234 C 
BRANCH  41  42
ATOM     42  NZ  ALA d         -18.172  -8.989  18.272  0.00  0.00    -0.079 N 
ATOM     43  CH1 ALA d         -17.053  -8.873  19.220  0.00  0.00     0.269 C 
ATOM     44  CH2 ALA d         -19.322  -9.633  18.951  0.00  0.00     0.269 C 
ATOM     45  H38 ALA d         -18.454  -8.067  17.978  0.00  0.00     0.278 HD
ENDBRANCH  41  42
ENDBRANCH  40  41
ENDBRANCH  39  40
ENDBRANCH  38  39
ENDBRANCH   1  38
BRANCH   1  46
ATOM     46  C   ALA d         -21.378 -11.113  12.720  0.00  0.00     0.241 C 
ATOM     47  O   ALA d         -21.990 -10.047  12.628  0.00  0.00    -0.271 OA
ATOM     48  N   ALA d         -21.634 -12.172  11.948  0.00  0.00    -0.346 N 
ATOM     49  H45 ALA d         -21.081 -12.997  12.064  0.00  0.00     0.163 HD
BRANCH  48  50
ATOM     50  CA  ALA d         -22.697 -12.170  10.934  0.00  0.00     0.177 C 
BRANCH  50  51
ATOM     51  C   ALA d         -24.032 -12.627  11.573  0.00  0.00     0.241 C 
ATOM     52  O   ALA d         -25.097 -12.444  10.988  0.00  0.00    -0.271 OA
ATOM     53  N   ALA d         -23.956 -13.200  12.778  0.00  0.00    -0.344 N 
ATOM     54  H53 ALA d         -23.053 -13.296  13.196  0.00  0.00     0.163 HD
BRANCH  53  55
ATOM     55  CA  ALA d         -25.123 -13.700  13.529  0.00  0.00     0.205 C 
BRANCH  55  56
ATOM     56  C   ALA d         -26.178 -12.610  13.731  0.00  0.00     0.243 C 
ATOM     57  O   ALA d         -25.854 -11.517  14.185  0.00  0.00    -0.271 OA
ATOM     58  N   ALA d         -27.435 -12.928  13.394  0.00  0.00    -0.345 N 
ATOM     59  H60 ALA d         -27.632 -13.864  13.102  0.00  0.00     0.163 HD
BRANCH  58  60
ATOM     60  CA  ALA d         -28.534 -11.958  13.437  0.00  0.00     0.181 C 
ATOM     61  CB  ALA d         -29.795 -12.555  12.810  0.00  0.00     0.043 C 
BRANCH  60  62
ATOM     62  C   ALA d         -28.826 -11.471  14.861  0.00  0.00     0.196 C 
ATOM     63  O   ALA d         -28.583 -12.201  15.859  0.00  0.00    -0.646 OA
ATOM     64  O   ALA d         -29.316 -10.324  15.036  0.00  0.00    -0.646 OA
ENDBRANCH  60  62
ENDBRANCH  58  60
ENDBRANCH  55  56
BRANCH  55  65
ATOM     65  CB  ALA d         -24.688 -14.293  14.885  0.00  0.00     0.146 C 
ATOM     66  CG2 ALA d         -25.900 -14.710  15.757  0.00  0.00     0.042 C 
BRANCH  65  67
ATOM     67  OG1 ALA d         -23.897 -15.456  14.641  0.00  0.00    -0.393 OA
ATOM     68  H56 ALA d         -23.623 -15.831  15.470  0.00  0.00     0.210 HD
ENDBRANCH  65  67
ENDBRANCH  55  65
ENDBRANCH  53  55
ENDBRANCH  50  51
BRANCH  50  69
ATOM     69  CB  ALA d         -22.290 -13.059   9.734  0.00  0.00     0.044 C 
BRANCH  69  70
ATOM     70  CG  ALA d         -23.121 -12.885   8.418  0.00  0.00     0.105 C 
BRANCH  70  71
ATOM     71  CD  ALA d         -22.569 -13.710   7.226  0.00  0.00     0.215 C 
ATOM     72  OE1 ALA d         -23.195 -14.689   6.775  0.00  0.00    -0.274 OA
ATOM     73  NE2 ALA d         -21.395 -13.326   6.732  0.00  0.00    -0.370 N 
ATOM     74  H51 ALA d         -20.990 -13.821   5.963  0.00  0.00     0.159 HD
ATOM     75  H52 ALA d         -20.917 -12.543   7.130  0.00  0.00     0.159 HD
ENDBRANCH  70  71
ENDBRANCH  69  70
ENDBRANCH  50  69
ENDBRANCH  48  50
ENDBRANCH   1  46
TORSDOF 30
