REMARK  14 active torsions:
REMARK  status: ('A' for Active; 'I' for Inactive)
REMARK    1  A    between atoms: C2_2  and  N1_1 
REMARK    2  A    between atoms: S8_8  and  C5_5 
REMARK    3  A    between atoms: N11_11  and  S8_8 
REMARK    4  A    between atoms: N11_11  and  C12_12 
REMARK    5  A    between atoms: C16_16  and  N11_11 
REMARK    6  A    between atoms: C12_12  and  C13_13 
REMARK    7  A    between atoms: C17_17  and  C16_16 
REMARK    8  A    between atoms: C17_17  and  O18_18 
REMARK    9  A    between atoms: C19_19  and  C17_17 
REMARK   10  A    between atoms: C19_19  and  N20_20 
REMARK   11  A    between atoms: C32_32  and  C19_19 
REMARK       I    between atoms: N20_20  and  C21_21 
REMARK   12  A    between atoms: C21_21  and  O23_23 
REMARK   13  A    between atoms: O23_23  and  C24_24 
REMARK   14  A    between atoms: C38_38  and  C32_32 
ROOT
ATOM      1  C17 MOL d          19.914  29.607  15.609  0.00  0.00     0.155 C 
ENDROOT
BRANCH   1   2
ATOM      2  C16 MOL d          19.032  30.737  16.142  0.00  0.00     0.141 C 
BRANCH   2   3
ATOM      3  N11 MOL d          19.316  31.986  15.424  0.00  0.00    -0.204 NA
BRANCH   3   4
ATOM      4  S8  MOL d          18.045  32.582  14.616  0.00  0.00     0.243 S 
ATOM      5  O9  MOL d          17.345  31.500  13.974  0.00  0.00    -0.206 OA
ATOM      6  O10 MOL d          18.596  33.476  13.652  0.00  0.00    -0.206 OA
BRANCH   4   7
ATOM      7  C5  MOL d          17.016  33.327  15.614  0.00  0.00     0.074 A 
ATOM      8  C4  MOL d          17.181  34.647  16.048  0.00  0.00     0.027 A 
ATOM      9  C3  MOL d          16.271  35.234  16.931  0.00  0.00     0.030 A 
ATOM     10  C2  MOL d          15.180  34.489  17.398  0.00  0.00     0.025 A 
ATOM     11  C7  MOL d          15.004  33.185  16.953  0.00  0.00     0.030 A 
ATOM     12  C6  MOL d          15.923  32.606  16.079  0.00  0.00     0.027 A 
BRANCH  10  13
ATOM     13  N1  MOL d          14.265  35.013  18.252  0.00  0.00    -0.399 N 
ATOM     14  H1  MOL d          14.374  35.978  18.596  0.00  0.00     0.156 HD
ATOM     15  H2  MOL d          13.461  34.446  18.557  0.00  0.00     0.156 HD
ENDBRANCH  10  13
ENDBRANCH   4   7
ENDBRANCH   3   4
BRANCH   3  16
ATOM     16  C12 MOL d          19.995  32.995  16.278  0.00  0.00     0.111 C 
BRANCH  16  17
ATOM     17  C13 MOL d          21.491  32.697  16.404  0.00  0.00    -0.009 C 
ATOM     18  C14 MOL d          22.193  32.627  15.041  0.00  0.00     0.011 C 
ATOM     19  C15 MOL d          22.149  33.744  17.301  0.00  0.00     0.011 C 
ENDBRANCH  16  17
ENDBRANCH   3  16
ENDBRANCH   2   3
ENDBRANCH   1   2
BRANCH   1  20
ATOM     20  O18 MOL d          19.828  28.488  16.524  0.00  0.00    -0.392 OA
ATOM     21  H19 MOL d          18.926  28.196  16.582  0.00  0.00     0.210 HD
ENDBRANCH   1  20
BRANCH   1  22
ATOM     22  C19 MOL d          19.559  29.216  14.178  0.00  0.00     0.120 C 
BRANCH  22  23
ATOM     23  N20 MOL d          20.667  28.420  13.674  0.00  0.00    -0.329 N 
ATOM     24  C21 MOL d          21.523  28.810  12.734  0.00  0.00     0.361 C 
ATOM     25  O22 MOL d          21.535  29.881  12.148  0.00  0.00    -0.238 OA
ATOM     26  H21 MOL d          20.795  27.509  14.065  0.00  0.00     0.165 HD
BRANCH  24  27
ATOM     27  O23 MOL d          22.497  27.788  12.451  0.00  0.00    -0.296 OA
BRANCH  27  28
ATOM     28  C24 MOL d          23.355  27.843  11.315  0.00  0.00     0.166 C 
ATOM     29  C25 MOL d          24.678  27.252  11.761  0.00  0.00     0.204 C 
ATOM     30  O26 MOL d          24.500  25.835  11.661  0.00  0.00    -0.358 OA
ATOM     31  C27 MOL d          23.551  25.583  10.617  0.00  0.00     0.266 C 
ATOM     32  O28 MOL d          22.505  24.710  11.030  0.00  0.00    -0.361 OA
ATOM     33  C31 MOL d          22.902  26.898  10.218  0.00  0.00     0.075 C 
ATOM     34  C29 MOL d          21.244  25.396  11.038  0.00  0.00     0.171 C 
ATOM     35  C30 MOL d          21.404  26.608  10.132  0.00  0.00     0.038 C 
ENDBRANCH  27  28
ENDBRANCH  24  27
ENDBRANCH  22  23
BRANCH  22  36
ATOM     36  C32 MOL d          18.248  28.430  14.012  0.00  0.00     0.066 C 
BRANCH  36  37
ATOM     37  C38 MOL d          18.027  28.031  12.564  0.00  0.00    -0.056 A 
ATOM     38  C33 MOL d          18.118  26.690  12.194  0.00  0.00     0.007 A 
ATOM     39  C34 MOL d          17.933  26.282  10.880  0.00  0.00     0.001 A 
ATOM     40  C35 MOL d          17.648  27.225   9.912  0.00  0.00     0.000 A 
ATOM     41  C36 MOL d          17.542  28.561  10.270  0.00  0.00     0.001 A 
ATOM     42  C37 MOL d          17.733  28.974  11.588  0.00  0.00     0.007 A 
ENDBRANCH  36  37
ENDBRANCH  22  36
ENDBRANCH   1  22
TORSDOF 14
