REMARK  4 active torsions:
REMARK  status: ('A' for Active; 'I' for Inactive)
REMARK    1  A    between atoms: OH_1  and  CZ3_2 
REMARK    2  A    between atoms: CG_8  and  CB_11 
REMARK    3  A    between atoms: CB_11  and  CA_12 
REMARK    4  A    between atoms: CA_12  and  NZ_13 
ROOT
ATOM      1  CZ3 SRO d          13.431   9.882   9.861  0.00  0.00     0.066 A 
ATOM      2  CH2 SRO d          14.446  10.426   9.057  0.00  0.00     0.039 A 
ATOM      3  CZ2 SRO d          14.495  10.157   7.689  0.00  0.00     0.033 A 
ATOM      4  CE2 SRO d          13.505   9.339   7.096  0.00  0.00     0.043 A 
ATOM      5  NE1 SRO d          13.317   8.913   5.790  0.00  0.00    -0.365 N 
ATOM      6  CD1 SRO d          12.218   8.131   5.733  0.00  0.00     0.096 A 
ATOM      7  CG  SRO d          11.690   8.039   7.020  0.00  0.00    -0.029 A 
ATOM      8  CD2 SRO d          12.513   8.802   7.881  0.00  0.00     0.001 A 
ATOM      9  CE3 SRO d          12.467   9.066   9.271  0.00  0.00     0.050 A 
ATOM     10  H4  SRO d          13.920   9.155   4.991  0.00  0.00     0.165 HD
ENDROOT
BRANCH   7  11
ATOM     11  CB  SRO d          10.480   7.287   7.457  0.00  0.00     0.068 C 
BRANCH  11  12
ATOM     12  CA  SRO d          10.430   5.830   7.178  0.00  0.00     0.234 C 
BRANCH  12  13
ATOM     13  NZ  SRO d          11.469   5.027   7.746  0.00  0.00    -0.079 N 
ATOM     14  H11 SRO d          11.328   4.063   7.488  0.00  0.00     0.274 HD
ATOM     15  H12 SRO d          11.449   5.112   8.750  0.00  0.00     0.274 HD
ATOM     16  H13 SRO d          12.363   5.340   7.400  0.00  0.00     0.274 HD
ENDBRANCH  12  13
ENDBRANCH  11  12
ENDBRANCH   7  11
BRANCH   1  17
ATOM     17  OH  SRO d          13.378  10.135  11.225  0.00  0.00    -0.361 OA
ATOM     18  H1  SRO d          12.629   9.687  11.600  0.00  0.00     0.217 HD
ENDBRANCH   1  17
TORSDOF 4
