REMARK  19 active torsions:
REMARK  status: ('A' for Active; 'I' for Inactive)
REMARK    1  A    between atoms: CA_2  and  N_1 
REMARK    2  A    between atoms: CA_2  and  CB_5 
REMARK    3  A    between atoms: C_3  and  CA_2 
REMARK       I    between atoms: N_10  and  C_3 
REMARK    4  A    between atoms: CB_5  and  CG_6 
REMARK    5  A    between atoms: CG_6  and  CD_7 
REMARK    6  A    between atoms: CD_7  and  CE_8 
REMARK    7  A    between atoms: CE_8  and  NZ_9 
REMARK    8  A    between atoms: CA_11  and  N_10 
REMARK    9  A    between atoms: CA_11  and  CB_14 
REMARK   10  A    between atoms: C_12  and  CA_11 
REMARK       I    between atoms: C_12  and  N_19 
REMARK   11  A    between atoms: CB_14  and  CG_15 
REMARK   12  A    between atoms: CG_15  and  CD_16 
REMARK       I    between atoms: CD_16  and  NE2_18 
REMARK   13  A    between atoms: N_19  and  CA_20 
REMARK   14  A    between atoms: CA_20  and  CB_23 
REMARK   15  A    between atoms: CA_20  and  C_21 
REMARK   16  A    between atoms: CB_23  and  CG_24 
REMARK   17  A    between atoms: CG_24  and  CD_25 
REMARK   18  A    between atoms: CD_25  and  CE_26 
REMARK   19  A    between atoms: CE_26  and  NZ_27 
ROOT
ATOM      1  CA  MOL d           3.871  20.200  15.942  0.00  0.00     0.177 C 
ENDROOT
BRANCH   1   2
ATOM      2  N   MOL d           5.024  19.586  15.276  0.00  0.00    -0.346 N 
ATOM      3  C   MOL d           5.181  18.263  15.242  0.00  0.00     0.248 C 
ATOM      4  O   MOL d           4.425  17.465  15.802  0.00  0.00    -0.271 OA
ATOM      5  H16 MOL d           5.706  20.172  14.838  0.00  0.00     0.163 HD
BRANCH   3   6
ATOM      6  CA  MOL d           6.425  17.769  14.533  0.00  0.00     0.274 C 
BRANCH   6   7
ATOM      7  N   MOL d           6.914  16.494  15.120  0.00  0.00    -0.067 N 
ATOM      8  H1  MOL d           7.740  16.193  14.628  0.00  0.00     0.275 HD
ATOM      9  H2  MOL d           6.198  15.790  15.037  0.00  0.00     0.275 HD
ATOM     10  H3  MOL d           7.136  16.635  16.093  0.00  0.00     0.275 HD
ENDBRANCH   6   7
BRANCH   6  11
ATOM     11  CB  MOL d           6.221  17.686  13.008  0.00  0.00     0.042 C 
BRANCH  11  12
ATOM     12  CG  MOL d           5.276  16.563  12.573  0.00  0.00     0.004 C 
BRANCH  12  13
ATOM     13  CD  MOL d           5.185  16.461  11.051  0.00  0.00     0.027 C 
BRANCH  13  14
ATOM     14  CE  MOL d           6.431  15.859  10.401  0.00  0.00     0.229 C 
BRANCH  14  15
ATOM     15  NZ  MOL d           6.688  14.460  10.854  0.00  0.00    -0.079 N 
ATOM     16  H13 MOL d           7.516  14.107  10.400  0.00  0.00     0.274 HD
ATOM     17  H14 MOL d           5.900  13.879  10.614  0.00  0.00     0.274 HD
ATOM     18  H15 MOL d           6.822  14.450  11.853  0.00  0.00     0.274 HD
ENDBRANCH  14  15
ENDBRANCH  13  14
ENDBRANCH  12  13
ENDBRANCH  11  12
ENDBRANCH   6  11
ENDBRANCH   3   6
ENDBRANCH   1   2
BRANCH   1  19
ATOM     19  CB  MOL d           4.116  21.731  16.043  0.00  0.00     0.044 C 
BRANCH  19  20
ATOM     20  CG  MOL d           5.334  22.010  16.926  0.00  0.00     0.105 C 
BRANCH  20  21
ATOM     21  CD  MOL d           5.301  21.716  18.380  0.00  0.00     0.215 C 
ATOM     22  NE2 MOL d           6.390  22.072  19.074  0.00  0.00    -0.370 N 
ATOM     23  H22 MOL d           6.433  21.902  20.059  0.00  0.00     0.159 HD
ATOM     24  H23 MOL d           7.160  22.508  18.608  0.00  0.00     0.159 HD
ATOM     25  OE1 MOL d           4.394  21.162  18.982  0.00  0.00    -0.274 OA
ENDBRANCH  20  21
ENDBRANCH  19  20
ENDBRANCH   1  19
BRANCH   1  26
ATOM     26  C   MOL d           2.581  20.054  15.167  0.00  0.00     0.241 C 
ATOM     27  O   MOL d           2.467  20.287  13.964  0.00  0.00    -0.271 OA
ATOM     28  N   MOL d           1.528  19.659  15.901  0.00  0.00    -0.345 N 
ATOM     29  H24 MOL d           1.667  19.474  16.874  0.00  0.00     0.163 HD
BRANCH  28  30
ATOM     30  CA  MOL d           0.211  19.490  15.351  0.00  0.00     0.185 C 
BRANCH  30  31
ATOM     31  CB  MOL d          -0.197  18.015  15.578  0.00  0.00     0.036 C 
BRANCH  31  32
ATOM     32  CG  MOL d          -1.601  17.720  15.113  0.00  0.00     0.004 C 
BRANCH  32  33
ATOM     33  CD  MOL d          -1.607  17.316  13.649  0.00  0.00     0.027 C 
BRANCH  33  34
ATOM     34  CE  MOL d          -3.061  16.925  13.289  0.00  0.00     0.229 C 
BRANCH  34  35
ATOM     35  NZ  MOL d          -3.106  16.929  11.796  0.00  0.00    -0.079 N 
ATOM     36  H34 MOL d          -4.033  16.681  11.487  0.00  0.00     0.274 HD
ATOM     37  H35 MOL d          -2.442  16.260  11.438  0.00  0.00     0.274 HD
ATOM     38  H36 MOL d          -2.873  17.849  11.455  0.00  0.00     0.274 HD
ENDBRANCH  34  35
ENDBRANCH  33  34
ENDBRANCH  32  33
ENDBRANCH  31  32
ENDBRANCH  30  31
BRANCH  30  39
ATOM     39  C   MOL d          -0.806  20.395  16.069  0.00  0.00     0.196 C 
ATOM     40  O   MOL d          -1.800  20.688  15.375  0.00  0.00    -0.646 OA
ATOM     41  OXT MOL d          -0.616  20.786  17.243  0.00  0.00    -0.646 OA
ENDBRANCH  30  39
ENDBRANCH  28  30
ENDBRANCH   1  26
TORSDOF 19
