REMARK  6 active torsions:
REMARK  status: ('A' for Active; 'I' for Inactive)
REMARK    1  A    between atoms: N_1  and  CA_2 
REMARK    2  A    between atoms: CA_2  and  C_3 
REMARK    3  A    between atoms: CA_2  and  CB_5 
REMARK    4  A    between atoms: CB_5  and  CG_6 
REMARK    5  A    between atoms: CG_6  and  ND_7 
REMARK       I    between atoms: ND_7  and  CE_8 
REMARK       I    between atoms: CE_8  and  NH1_9 
REMARK    6  A    between atoms: NH1_9  and  OH1_11 
ROOT
ATOM      1  CG  NNH d         -42.187  19.202  39.846  0.00  0.00     0.141 C 
ENDROOT
BRANCH   1   2
ATOM      2  CB  NNH d         -42.975  19.521  38.576  0.00  0.00     0.064 C 
BRANCH   2   3
ATOM      3  CA  NNH d         -43.584  18.262  37.943  0.00  0.00     0.285 C 
BRANCH   3   4
ATOM      4  N   NNH d         -44.365  17.428  38.828  0.00  0.00    -0.065 N 
ATOM      5  H   NNH d         -45.125  17.966  39.213  0.00  0.00     0.275 HD
ATOM      6  H   NNH d         -43.779  17.091  39.576  0.00  0.00     0.275 HD
ATOM      7  H   NNH d         -44.735  16.645  38.312  0.00  0.00     0.275 HD
ENDBRANCH   3   4
BRANCH   3   8
ATOM      8  C   NNH d         -42.415  17.494  37.330  0.00  0.00     0.204 C 
ATOM      9  O   NNH d         -41.477  18.285  36.742  0.00  0.00    -0.646 OA
ATOM     10  OXT NNH d         -42.212  16.284  37.282  0.00  0.00    -0.646 OA
ENDBRANCH   3   8
ENDBRANCH   2   3
ENDBRANCH   1   2
BRANCH   1  11
ATOM     11  ND  NNH d         -41.610  20.452  40.294  0.00  0.00    -0.225 N 
ATOM     12  CE  NNH d         -41.382  20.883  41.645  0.00  0.00     0.691 C 
ATOM     13  NH1 NNH d         -41.773  19.915  42.700  0.00  0.00    -0.099 N 
ATOM     14  NH2 NNH d         -40.859  22.049  41.881  0.00  0.00    -0.233 N 
ATOM     15  H   NNH d         -42.178  19.007  42.431  0.00  0.00     0.213 HD
ATOM     16  H   NNH d         -40.612  22.671  41.098  0.00  0.00     0.174 HD
ATOM     17  H   NNH d         -40.692  22.352  42.851  0.00  0.00     0.174 HD
ATOM     18  H   NNH d         -41.329  21.112  39.555  0.00  0.00     0.177 HD
BRANCH  13  19
ATOM     19  OH1 NNH d         -41.607  20.205  43.999  0.00  0.00    -0.276 OA
ATOM     20  H   NNH d         -41.910  19.475  44.526  0.00  0.00     0.245 HD
ENDBRANCH  13  19
ENDBRANCH   1  11
TORSDOF 6
