REMARK  21 active torsions:
REMARK  status: ('A' for Active; 'I' for Inactive)
REMARK       I    between atoms: C1_1  and  N3_3 
REMARK       I    between atoms: N21_12  and  C1_1 
REMARK    1  A    between atoms: N3_3  and  C5_5 
REMARK    2  A    between atoms: C5_5  and  C6_6 
REMARK    3  A    between atoms: C22_13  and  N21_12 
REMARK    4  A    between atoms: C23_14  and  C22_13 
REMARK    5  A    between atoms: C22_13  and  C25_16 
REMARK       I    between atoms: N37_19  and  C23_14 
REMARK    6  A    between atoms: C38_20  and  N37_19 
REMARK    7  A    between atoms: C38_20  and  C39_21 
REMARK    8  A    between atoms: C46_28  and  C38_20 
REMARK    9  A    between atoms: C39_21  and  C40_22 
REMARK   10  A    between atoms: C46_28  and  O47_29 
REMARK   11  A    between atoms: C49_31  and  C46_28 
REMARK   12  A    between atoms: C49_31  and  O48_30 
REMARK   13  A    between atoms: C51_33  and  C49_31 
REMARK       I    between atoms: N50_32  and  C83_43 
REMARK   14  A    between atoms: C51_33  and  N50_32 
REMARK   15  A    between atoms: C51_33  and  C52_34 
REMARK   16  A    between atoms: C52_34  and  C53_35 
REMARK   17  A    between atoms: C82_42  and  N81_41 
REMARK       I    between atoms: N81_41  and  C97_48 
REMARK   18  A    between atoms: C83_43  and  C82_42 
REMARK   19  A    between atoms: C82_42  and  C85_45 
REMARK       I    between atoms: C97_48  and  N99_50 
REMARK   20  A    between atoms: N99_50  and  C3_52 
REMARK   21  A    between atoms: C3_52  and  C8_53 
ROOT
ATOM      1  C46 A76 d           5.769  -0.185  15.504  0.00  0.00     0.171 C 
ENDROOT
BRANCH   1   2
ATOM      2  C38 A76 d           5.863  -0.078  13.997  0.00  0.00     0.120 C 
BRANCH   2   3
ATOM      3  N37 A76 d           4.695   0.640  13.402  0.00  0.00    -0.352 N 
ATOM      4  C23 A76 d           3.843   0.172  12.474  0.00  0.00     0.241 C 
ATOM      5  O24 A76 d           3.935  -0.949  12.014  0.00  0.00    -0.271 OA
ATOM      6  H19 A76 d           4.529   1.570  13.730  0.00  0.00     0.163 HD
BRANCH   4   7
ATOM      7  C22 A76 d           2.734   1.160  12.022  0.00  0.00     0.181 C 
BRANCH   7   8
ATOM      8  N21 A76 d           3.163   1.895  10.804  0.00  0.00    -0.329 N 
ATOM      9  C1  A76 d           3.375   3.213  10.802  0.00  0.00     0.319 C 
ATOM     10  O2  A76 d           3.089   3.915  11.751  0.00  0.00    -0.247 OA
ATOM     11  N3  A76 d           3.922   3.749   9.700  0.00  0.00    -0.333 N 
ATOM     12  C4  A76 d           4.273   2.946   8.525  0.00  0.00     0.154 C 
ATOM     13  H10 A76 d           3.298   1.384   9.955  0.00  0.00     0.165 HD
BRANCH  11  14
ATOM     14  C5  A76 d           4.261   5.173   9.727  0.00  0.00     0.186 C 
BRANCH  14  15
ATOM     15  C6  A76 d           5.735   5.464   9.915  0.00  0.00     0.052 A 
ATOM     16  C7  A76 d           6.514   5.719   8.793  0.00  0.00     0.029 A 
ATOM     17  C9  A76 d           7.833   6.103   9.005  0.00  0.00     0.003 A 
ATOM     18  C11 A76 d           8.316   6.223  10.310  0.00  0.00     0.019 A 
ATOM     19  C10 A76 d           7.461   5.925  11.358  0.00  0.00     0.117 A 
ATOM     20  N8  A76 d           6.205   5.548  11.155  0.00  0.00    -0.264 NA
ENDBRANCH  14  15
ENDBRANCH  11  14
ENDBRANCH   7   8
BRANCH   7  21
ATOM     21  C25 A76 d           1.353   0.459  11.805  0.00  0.00     0.009 C 
ATOM     22  C26 A76 d           0.259   1.437  11.339  0.00  0.00     0.012 C 
ATOM     23  C27 A76 d           0.854  -0.302  13.035  0.00  0.00     0.012 C 
ENDBRANCH   7  21
ENDBRANCH   4   7
ENDBRANCH   2   3
BRANCH   2  24
ATOM     24  C39 A76 d           7.180   0.663  13.741  0.00  0.00     0.066 C 
BRANCH  24  25
ATOM     25  C40 A76 d           7.477   0.815  12.301  0.00  0.00    -0.056 A 
ATOM     26  C41 A76 d           7.952  -0.281  11.595  0.00  0.00     0.007 A 
ATOM     27  C42 A76 d           8.217  -0.147  10.250  0.00  0.00     0.001 A 
ATOM     28  C43 A76 d           8.000   1.075   9.607  0.00  0.00     0.000 A 
ATOM     29  C44 A76 d           7.543   2.168  10.326  0.00  0.00     0.001 A 
ATOM     30  C45 A76 d           7.277   2.043  11.678  0.00  0.00     0.007 A 
ENDBRANCH  24  25
ENDBRANCH   2  24
ENDBRANCH   1   2
BRANCH   1  31
ATOM     31  O47 A76 d           5.757   1.159  15.977  0.00  0.00    -0.391 OA
ATOM     32  H29 A76 d           5.699   1.159  16.925  0.00  0.00     0.210 HD
ENDBRANCH   1  31
BRANCH   1  33
ATOM     33  C49 A76 d           4.541  -0.835  16.081  0.00  0.00     0.171 C 
BRANCH  33  34
ATOM     34  C51 A76 d           4.369  -2.286  15.675  0.00  0.00     0.120 C 
BRANCH  34  35
ATOM     35  C52 A76 d           3.049  -2.825  16.211  0.00  0.00     0.066 C 
BRANCH  35  36
ATOM     36  C53 A76 d           2.864  -4.307  15.961  0.00  0.00    -0.056 A 
ATOM     37  C54 A76 d           2.408  -4.750  14.712  0.00  0.00     0.007 A 
ATOM     38  C55 A76 d           2.244  -6.121  14.476  0.00  0.00     0.001 A 
ATOM     39  C56 A76 d           2.540  -7.046  15.481  0.00  0.00     0.000 A 
ATOM     40  C57 A76 d           2.992  -6.608  16.727  0.00  0.00     0.001 A 
ATOM     41  C58 A76 d           3.157  -5.246  16.973  0.00  0.00     0.007 A 
ENDBRANCH  35  36
ENDBRANCH  34  35
BRANCH  34  42
ATOM     42  N50 A76 d           5.466  -3.100  16.195  0.00  0.00    -0.352 N 
ATOM     43  C83 A76 d           6.268  -3.878  15.465  0.00  0.00     0.241 C 
ATOM     44  O84 A76 d           6.176  -3.942  14.259  0.00  0.00    -0.271 OA
ATOM     45  H32 A76 d           5.630  -3.072  17.181  0.00  0.00     0.163 HD
BRANCH  43  46
ATOM     46  C82 A76 d           7.361  -4.632  16.266  0.00  0.00     0.181 C 
BRANCH  46  47
ATOM     47  N81 A76 d           6.948  -5.990  16.646  0.00  0.00    -0.329 N 
ATOM     48  C97 A76 d           6.797  -6.405  17.902  0.00  0.00     0.319 C 
ATOM     49  O98 A76 d           7.087  -5.712  18.868  0.00  0.00    -0.247 OA
ATOM     50  N99 A76 d           6.311  -7.660  18.056  0.00  0.00    -0.333 N 
ATOM     51  C2  A76 d           5.891  -8.506  16.934  0.00  0.00     0.154 C 
ATOM     52  H41 A76 d           6.769  -6.646  15.913  0.00  0.00     0.165 HD
BRANCH  50  53
ATOM     53  C3  A76 d           6.095  -8.158  19.423  0.00  0.00     0.186 C 
BRANCH  53  54
ATOM     54  C8  A76 d           4.700  -7.849  19.918  0.00  0.00     0.052 A 
ATOM     55  C12 A76 d           3.663  -8.755  19.654  0.00  0.00     0.029 A 
ATOM     56  C13 A76 d           2.378  -8.441  20.092  0.00  0.00     0.003 A 
ATOM     57  C15 A76 d           2.179  -7.234  20.765  0.00  0.00     0.019 A 
ATOM     58  C14 A76 d           3.280  -6.395  20.982  0.00  0.00     0.117 A 
ATOM     59  N10 A76 d           4.524  -6.694  20.577  0.00  0.00    -0.264 NA
ENDBRANCH  53  54
ENDBRANCH  50  53
ENDBRANCH  46  47
BRANCH  46  60
ATOM     60  C85 A76 d           8.711  -4.608  15.510  0.00  0.00     0.009 C 
ATOM     61  C86 A76 d           9.769  -5.434  16.235  0.00  0.00     0.012 C 
ATOM     62  C87 A76 d           9.226  -3.170  15.347  0.00  0.00     0.012 C 
ENDBRANCH  46  60
ENDBRANCH  43  46
ENDBRANCH  34  42
ENDBRANCH  33  34
BRANCH  33  63
ATOM     63  O48 A76 d           4.681  -0.754  17.502  0.00  0.00    -0.391 OA
ATOM     64  H30 A76 d           4.789   0.155  17.757  0.00  0.00     0.210 HD
ENDBRANCH  33  63
ENDBRANCH   1  33
TORSDOF 21
