REMARK  24 active torsions:
REMARK  status: ('A' for Active; 'I' for Inactive)
REMARK    1  A    between atoms: O1B_1  and  C1B_2 
REMARK    2  A    between atoms: C2B_3  and  O2B_4 
REMARK    3  A    between atoms: C3B_5  and  O3B_6 
REMARK    4  A    between atoms: C5B_8  and  C6B_9 
REMARK    5  A    between atoms: C6B_9  and  O6B_10 
REMARK    6  A    between atoms: C4B_11  and  O4B_12 
REMARK    7  A    between atoms: O4B_12  and  C1C_13 
REMARK    8  A    between atoms: C2C_14  and  O2C_15 
REMARK    9  A    between atoms: C3C_16  and  O3C_17 
REMARK   10  A    between atoms: C5C_19  and  C6C_20 
REMARK   11  A    between atoms: C6C_20  and  O6C_21 
REMARK   12  A    between atoms: C4C_22  and  O4C_23 
REMARK   13  A    between atoms: O4C_23  and  C1D_24 
REMARK   14  A    between atoms: C2D_25  and  O2D_26 
REMARK   15  A    between atoms: C3D_27  and  O3D_28 
REMARK   16  A    between atoms: C5D_30  and  C6D_31 
REMARK   17  A    between atoms: C6D_31  and  O6D_32 
REMARK   18  A    between atoms: C4D_33  and  O4D_34 
REMARK   19  A    between atoms: O4D_34  and  C1E_35 
REMARK   20  A    between atoms: C2E_36  and  O2E_37 
REMARK   21  A    between atoms: C3E_38  and  O3E_39 
REMARK   22  A    between atoms: C4E_40  and  O4E_41 
REMARK   23  A    between atoms: C5E_43  and  C6E_44 
REMARK   24  A    between atoms: C6E_44  and  O6E_45 
ROOT
ATOM      1  O4C CTT d           1.583   0.633  42.929  0.00  0.00    -0.348 OA
ENDROOT
BRANCH   1   2
ATOM      2  C4C CTT d           2.174   0.486  44.238  0.00  0.00     0.187 C 
ATOM      3  C3C CTT d           2.465   1.855  44.862  0.00  0.00     0.183 C 
ATOM      4  C2C CTT d           3.047   1.707  46.267  0.00  0.00     0.204 C 
ATOM      5  C1C CTT d           2.259   0.769  47.174  0.00  0.00     0.292 C 
ATOM      6  O5C CTT d           1.916  -0.438  46.473  0.00  0.00    -0.348 OA
ATOM      7  C5C CTT d           1.261  -0.270  45.207  0.00  0.00     0.180 C 
BRANCH   3   8
ATOM      8  O3C CTT d           3.422   2.591  44.085  0.00  0.00    -0.390 OA
ATOM      9  H16 CTT d           3.092   2.703  43.201  0.00  0.00     0.210 HD
ENDBRANCH   3   8
BRANCH   4  10
ATOM     10  O2C CTT d           3.180   2.992  46.890  0.00  0.00    -0.388 OA
ATOM     11  H14 CTT d           3.639   2.896  47.716  0.00  0.00     0.210 HD
ENDBRANCH   4  10
BRANCH   5  12
ATOM     12  O4B CTT d           3.144   0.495  48.269  0.00  0.00    -0.348 OA
BRANCH  12  13
ATOM     13  C4B CTT d           2.550   0.032  49.484  0.00  0.00     0.187 C 
ATOM     14  C3B CTT d           3.312  -1.196  49.984  0.00  0.00     0.183 C 
ATOM     15  C2B CTT d           2.614  -1.680  51.256  0.00  0.00     0.204 C 
ATOM     16  C1B CTT d           2.708  -0.579  52.310  0.00  0.00     0.288 C 
ATOM     17  O5B CTT d           2.041   0.591  51.807  0.00  0.00    -0.349 OA
ATOM     18  C5B CTT d           2.596   1.099  50.581  0.00  0.00     0.180 C 
BRANCH  14  19
ATOM     19  O3B CTT d           3.416  -2.242  48.999  0.00  0.00    -0.390 OA
ATOM     20  H6  CTT d           2.546  -2.543  48.766  0.00  0.00     0.210 HD
ENDBRANCH  14  19
BRANCH  15  21
ATOM     21  O2B CTT d           3.215  -2.885  51.732  0.00  0.00    -0.388 OA
ATOM     22  H4  CTT d           3.147  -3.557  51.064  0.00  0.00     0.210 HD
ENDBRANCH  15  21
BRANCH  16  23
ATOM     23  O1B CTT d           2.113  -1.009  53.545  0.00  0.00    -0.369 OA
ATOM     24  H1  CTT d           1.197  -1.215  53.399  0.00  0.00     0.212 HD
ENDBRANCH  16  23
BRANCH  18  25
ATOM     25  C6B CTT d           1.834   2.376  50.224  0.00  0.00     0.198 C 
BRANCH  25  26
ATOM     26  O6B CTT d           0.433   2.086  50.118  0.00  0.00    -0.398 OA
ATOM     27  H10 CTT d           0.117   1.750  50.949  0.00  0.00     0.209 HD
ENDBRANCH  25  26
ENDBRANCH  18  25
ENDBRANCH  12  13
ENDBRANCH   5  12
BRANCH   7  28
ATOM     28  C6C CTT d           0.859  -1.653  44.705  0.00  0.00     0.198 C 
BRANCH  28  29
ATOM     29  O6C CTT d           0.090  -2.330  45.716  0.00  0.00    -0.398 OA
ATOM     30  H20 CTT d           0.614  -2.420  46.504  0.00  0.00     0.209 HD
ENDBRANCH  28  29
ENDBRANCH   7  28
ENDBRANCH   1   2
BRANCH   1  31
ATOM     31  C1D CTT d           2.446   0.386  41.798  0.00  0.00     0.292 C 
ATOM     32  C2D CTT d           1.614   0.315  40.523  0.00  0.00     0.204 C 
ATOM     33  C3D CTT d           2.470   0.104  39.279  0.00  0.00     0.183 C 
ATOM     34  C4D CTT d           3.698   1.013  39.166  0.00  0.00     0.187 C 
ATOM     35  C5D CTT d           4.365   1.058  40.544  0.00  0.00     0.180 C 
ATOM     36  O5D CTT d           3.415   1.408  41.564  0.00  0.00    -0.348 OA
BRANCH  32  37
ATOM     37  O2D CTT d           0.711  -0.775  40.697  0.00  0.00    -0.388 OA
ATOM     38  H24 CTT d           0.162  -0.612  41.455  0.00  0.00     0.210 HD
ENDBRANCH  32  37
BRANCH  33  39
ATOM     39  O3D CTT d           1.677   0.249  38.087  0.00  0.00    -0.390 OA
ATOM     40  H26 CTT d           1.304   1.123  38.060  0.00  0.00     0.210 HD
ENDBRANCH  33  39
BRANCH  34  41
ATOM     41  O4D CTT d           4.521   0.439  38.126  0.00  0.00    -0.348 OA
BRANCH  41  42
ATOM     42  C1E CTT d           5.369   1.176  37.184  0.00  0.00     0.292 C 
ATOM     43  C2E CTT d           5.710   0.330  35.898  0.00  0.00     0.204 C 
ATOM     44  C3E CTT d           5.160   0.879  34.583  0.00  0.00     0.183 C 
ATOM     45  C4E CTT d           3.801   1.478  34.909  0.00  0.00     0.180 C 
ATOM     46  C5E CTT d           4.087   2.741  35.709  0.00  0.00     0.179 C 
ATOM     47  O5E CTT d           4.797   2.472  36.928  0.00  0.00    -0.348 OA
BRANCH  43  48
ATOM     48  O2E CTT d           7.118   0.172  35.637  0.00  0.00    -0.388 OA
ATOM     49  H34 CTT d           7.515   1.027  35.517  0.00  0.00     0.210 HD
ENDBRANCH  43  48
BRANCH  44  50
ATOM     50  O3E CTT d           5.091  -0.162  33.569  0.00  0.00    -0.390 OA
ATOM     51  H36 CTT d           4.747   0.205  32.763  0.00  0.00     0.210 HD
ENDBRANCH  44  50
BRANCH  45  52
ATOM     52  O4E CTT d           3.113   1.792  33.700  0.00  0.00    -0.390 OA
ATOM     53  H38 CTT d           2.265   2.166  33.908  0.00  0.00     0.210 HD
ENDBRANCH  45  52
BRANCH  46  54
ATOM     54  C6E CTT d           2.835   3.536  36.069  0.00  0.00     0.198 C 
BRANCH  54  55
ATOM     55  O6E CTT d           1.895   2.751  36.835  0.00  0.00    -0.398 OA
ATOM     56  H42 CTT d           1.629   1.993  36.327  0.00  0.00     0.209 HD
ENDBRANCH  54  55
ENDBRANCH  46  54
ENDBRANCH  41  42
ENDBRANCH  34  41
BRANCH  35  57
ATOM     57  C6D CTT d           5.494   2.061  40.641  0.00  0.00     0.198 C 
BRANCH  57  58
ATOM     58  O6D CTT d           5.957   2.034  42.011  0.00  0.00    -0.398 OA
ATOM     59  H30 CTT d           6.670   2.653  42.115  0.00  0.00     0.209 HD
ENDBRANCH  57  58
ENDBRANCH  35  57
ENDBRANCH   1  31
TORSDOF 24
