REMARK  3 active torsions:
REMARK  status: ('A' for Active; 'I' for Inactive)
REMARK    1  A    between atoms: C1_1  and  C2_4 
REMARK    2  A    between atoms: C2_4  and  O2_6 
REMARK    3  A    between atoms: O2_6  and  P_7 
ROOT
ATOM      1  C2  PEQ d         -25.658 -15.939 -38.050  0.00  0.00     0.232 C 
ATOM      2  C3  PEQ d         -25.252 -14.939 -39.161  0.00  0.00     0.052 C 
ENDROOT
BRANCH   1   3
ATOM      3  C1  PEQ d         -27.207 -16.032 -37.793  0.00  0.00     0.203 C 
ATOM      4  O1  PEQ d         -27.555 -16.914 -36.972  0.00  0.00    -0.646 OA
ATOM      5  O2' PEQ d         -28.002 -15.276 -38.436  0.00  0.00    -0.646 OA
ENDBRANCH   1   3
BRANCH   1   6
ATOM      6  O2  PEQ d         -25.150 -17.282 -38.350  0.00  0.00    -0.267 OA
BRANCH   6   7
ATOM      7  P   PEQ d         -23.542 -17.707 -38.579  0.00  0.00     0.423 P 
ATOM      8  O1P PEQ d         -23.478 -19.301 -38.532  0.00  0.00    -0.617 OA
ATOM      9  O2P PEQ d         -23.250 -17.299 -40.135  0.00  0.00    -0.617 OA
ATOM     10  O3P PEQ d         -22.626 -17.179 -37.548  0.00  0.00    -0.617 OA
ENDBRANCH   6   7
ENDBRANCH   1   6
TORSDOF 3
