REMARK  3 active torsions:
REMARK  status: ('A' for Active; 'I' for Inactive)
REMARK    1  A    between atoms: C5_2  and  C4_1 
REMARK    2  A    between atoms: C4_1  and  C3_8 
REMARK    3  A    between atoms: C9_22  and  C8_23 
ROOT
ATOM      1  C5  4L7 d         -13.478 -10.114   6.305  0.00  0.00     0.097 C 
ATOM      2  C6  4L7 d         -14.541  -8.999   6.304  0.00  0.00     0.245 C 
ATOM      3  C7  4L7 d         -12.591  -8.141   7.284  0.00  0.00     0.242 C 
ATOM      4  N   4L7 d         -13.933  -7.784   6.871  0.00  0.00    -0.074 N 
ATOM      5  C8  4L7 d         -12.551  -9.683   7.480  0.00  0.00     0.057 C 
ATOM      6  H8  4L7 d         -14.467  -7.466   7.665  0.00  0.00     0.277 HD
ATOM      7  H9  4L7 d         -13.900  -7.056   6.175  0.00  0.00     0.277 HD
ENDROOT
BRANCH   5   8
ATOM      8  C9  4L7 d         -11.143 -10.242   7.451  0.00  0.00    -0.049 A 
ATOM      9  C10 4L7 d         -10.398 -10.214   6.272  0.00  0.00     0.040 A 
ATOM     10  C11 4L7 d          -9.017 -10.431   6.301  0.00  0.00     0.074 A 
ATOM     11  N2  4L7 d          -8.320 -10.381   5.086  0.00  0.00    -0.243 NA
ATOM     12  C12 4L7 d          -8.381 -10.691   7.523  0.00  0.00     0.061 A 
ATOM     13  C16 4L7 d          -6.999 -10.567   5.148  0.00  0.00     0.210 A 
ATOM     14  N1  4L7 d          -6.299 -10.778   6.288  0.00  0.00    -0.317 N 
ATOM     15  C15 4L7 d          -6.916 -10.861   7.538  0.00  0.00     0.258 A 
ATOM     16  H10 4L7 d          -5.306 -10.878   6.233  0.00  0.00     0.169 HD
ATOM     17  O1  4L7 d          -6.264 -11.062   8.561  0.00  0.00    -0.267 OA
ATOM     18  C13 4L7 d          -9.142 -10.800   8.684  0.00  0.00     0.020 A 
ATOM     19  C14 4L7 d         -10.510 -10.597   8.637  0.00  0.00     0.009 A 
ENDBRANCH   5   8
BRANCH   1  20
ATOM     20  C4  4L7 d         -14.123 -11.486   6.435  0.00  0.00     0.172 C 
ATOM     21  O   4L7 d         -13.975 -12.168   7.432  0.00  0.00    -0.291 OA
BRANCH  20  22
ATOM     22  C3  4L7 d         -14.926 -11.954   5.304  0.00  0.00     0.052 A 
ATOM     23  C2  4L7 d         -15.113 -11.374   4.082  0.00  0.00     0.024 A 
ATOM     24  C1  4L7 d         -16.008 -12.071   3.250  0.00  0.00     0.028 A 
ATOM     25  C   4L7 d         -16.486 -13.181   3.838  0.00  0.00     0.052 A 
ATOM     26 BR   4L7 d         -17.660 -14.430   3.081  0.00  0.00    -0.043 Br
ATOM     27  S   4L7 d         -15.877 -13.415   5.441  0.00  0.00    -0.079 SA
ENDBRANCH  20  22
ENDBRANCH   1  20
TORSDOF 3
