REMARK  4 active torsions:
REMARK  status: ('A' for Active; 'I' for Inactive)
REMARK    1  A    between atoms: C13_2  and  C14_3 
REMARK       I    between atoms: C13_2  and  N2_14 
REMARK    2  A    between atoms: C17_6  and  N3_7 
REMARK    3  A    between atoms: N2_14  and  C9_15 
REMARK    4  A    between atoms: C4_20  and  O1_21 
ROOT
ATOM      1  C9  MOL d         -15.126 -35.759 -12.831  0.00  0.00     0.034 C 
ATOM      2  C12 MOL d         -16.285 -35.573 -13.806  0.00  0.00     0.039 C 
ATOM      3  C8  MOL d         -15.198 -34.722 -11.692  0.00  0.00     0.073 C 
ATOM      4  C7  MOL d         -13.938 -34.750 -10.883  0.00  0.00     0.002 A 
ATOM      5  C5  MOL d         -13.673 -34.263  -9.620  0.00  0.00     0.100 A 
ATOM      6  C4  MOL d         -14.452 -33.689  -8.580  0.00  0.00     0.095 A 
ATOM      7  C3  MOL d         -13.820 -33.337  -7.405  0.00  0.00     0.041 A 
ATOM      8  C2  MOL d         -12.465 -33.570  -7.238  0.00  0.00     0.029 A 
ATOM      9  C10 MOL d         -13.791 -35.593 -13.573  0.00  0.00     0.037 C 
ATOM     10  C11 MOL d         -12.581 -35.965 -12.705  0.00  0.00     0.064 C 
ATOM     11  C6  MOL d         -12.727 -35.283 -11.382  0.00  0.00     0.064 A 
ATOM     12  N1  MOL d         -11.713 -35.122 -10.476  0.00  0.00    -0.171 NA
ATOM     13  N   MOL d         -12.296 -34.500  -9.413  0.00  0.00    -0.235 N 
ATOM     14  C1  MOL d         -11.677 -34.132  -8.235  0.00  0.00     0.033 A 
ATOM     15  C   MOL d         -10.203 -34.310  -8.076  0.00  0.00     0.070 C 
ENDROOT
BRANCH   1  16
ATOM     16  N2  MOL d         -15.198 -37.093 -12.211  0.00  0.00    -0.348 N 
ATOM     17  C13 MOL d         -15.122 -38.289 -12.836  0.00  0.00     0.252 C 
ATOM     18  O   MOL d         -15.026 -38.406 -14.058  0.00  0.00    -0.268 OA
ATOM     19  H7  MOL d         -15.316 -37.117 -11.218  0.00  0.00     0.163 HD
BRANCH  17  20
ATOM     20  C14 MOL d         -15.179 -39.493 -11.961  0.00  0.00     0.032 A 
ATOM     21  C19 MOL d         -14.276 -39.658 -10.913  0.00  0.00     0.019 A 
ATOM     22  C18 MOL d         -14.258 -40.826 -10.175  0.00  0.00     0.031 A 
ATOM     23  C17 MOL d         -15.160 -41.839 -10.460  0.00  0.00     0.041 A 
ATOM     24  C16 MOL d         -16.081 -41.676 -11.484  0.00  0.00     0.031 A 
ATOM     25  C15 MOL d         -16.085 -40.513 -12.231  0.00  0.00     0.019 A 
BRANCH  23  26
ATOM     26  N3  MOL d         -15.123 -43.059  -9.719  0.00  0.00    -0.297 N 
ATOM     27  C21 MOL d         -15.306 -44.322 -10.187  0.00  0.00     0.240 A 
ATOM     28  N5  MOL d         -15.195 -45.194  -9.227  0.00  0.00    -0.144 NA
ATOM     29  N4  MOL d         -14.925 -44.484  -8.064  0.00  0.00    -0.144 NA
ATOM     30  C20 MOL d         -14.889 -43.224  -8.391  0.00  0.00     0.240 A 
ENDBRANCH  23  26
ENDBRANCH  17  20
ENDBRANCH   1  16
BRANCH   6  31
ATOM     31  O1  MOL d         -15.794 -33.564  -8.747  0.00  0.00    -0.358 OA
ATOM     32  H13 MOL d         -16.173 -33.166  -7.972  0.00  0.00     0.217 HD
ENDBRANCH   6  31
TORSDOF 4
