REMARK  4 active torsions:
REMARK  status: ('A' for Active; 'I' for Inactive)
REMARK    1  A    between atoms: N_1  and  CA_2 
REMARK    2  A    between atoms: CA_2  and  C_3 
REMARK    3  A    between atoms: CA_2  and  CB_5 
REMARK    4  A    between atoms: CB_5  and  OG_6 
ROOT
ATOM      1  CA  SER d          -2.847 -16.376 -10.394  0.00  0.00     0.306 C 
ENDROOT
BRANCH   1   2
ATOM      2  N   SER d          -2.619 -15.930 -11.802  0.00  0.00    -0.063 N 
ATOM      3  H1  SER d          -1.781 -15.371 -11.846  0.00  0.00     0.275 HD
ATOM      4  H2  SER d          -3.405 -15.381 -12.112  0.00  0.00     0.275 HD
ATOM      5  H3  SER d          -2.517 -16.737 -12.398  0.00  0.00     0.275 HD
ENDBRANCH   1   2
BRANCH   1   6
ATOM      6  C   SER d          -4.108 -17.223 -10.298  0.00  0.00     0.206 C 
ATOM      7  O   SER d          -4.830 -17.396 -11.278  0.00  0.00    -0.646 OA
ATOM      8  OXT SER d          -4.427 -17.749  -9.239  0.00  0.00    -0.646 OA
ENDBRANCH   1   6
BRANCH   1   9
ATOM      9  CB  SER d          -2.948 -15.168  -9.459  0.00  0.00     0.208 C 
BRANCH   9  10
ATOM     10  OG  SER d          -4.100 -14.388  -9.752  0.00  0.00    -0.398 OA
ATOM     11  H7  SER d          -4.138 -13.647  -9.159  0.00  0.00     0.209 HD
ENDBRANCH   9  10
ENDBRANCH   1   9
TORSDOF 4
