REMARK  8 active torsions:
REMARK  status: ('A' for Active; 'I' for Inactive)
REMARK    1  A    between atoms: C14_1  and  C5_3 
REMARK       I    between atoms: C14_1  and  N1_12 
REMARK    2  A    between atoms: C5_3  and  N21_4 
REMARK    3  A    between atoms: N21_4  and  C49_5 
REMARK    4  A    between atoms: C1_13  and  C7_14 
REMARK       I    between atoms: C7_14  and  N23_19 
REMARK    5  A    between atoms: N23_19  and  C24_20 
REMARK    6  A    between atoms: C24_20  and  C25_21 
REMARK    7  A    between atoms: C28_24  and  C9_25 
REMARK    8  A    between atoms: C9_25  and  N10_26 
ROOT
ATOM      1  C14 MOL d          28.633  -1.033  16.723  0.00  0.00     0.246 C 
ATOM      2  O32 MOL d          27.526  -0.784  17.209  0.00  0.00    -0.272 OA
ATOM      3  N1  MOL d          28.702  -1.040  15.427  0.00  0.00    -0.337 N 
ATOM      4  C1  MOL d          27.744  -0.794  14.631  0.00  0.00     0.179 C 
ATOM      5  C2  MOL d          28.343  -0.620  13.231  0.00  0.00     0.037 C 
ATOM      6  C3  MOL d          29.659  -1.335  13.278  0.00  0.00     0.022 C 
ATOM      7  C4  MOL d          29.993  -1.317  14.763  0.00  0.00     0.127 C 
ENDROOT
BRANCH   4   8
ATOM      8  C7  MOL d          26.610  -1.709  14.500  0.00  0.00     0.240 C 
ATOM      9  O22 MOL d          26.679  -2.894  14.824  0.00  0.00    -0.271 OA
ATOM     10  N23 MOL d          25.470  -1.326  14.011  0.00  0.00    -0.355 N 
ATOM     11  H25 MOL d          25.365  -0.343  13.864  0.00  0.00     0.162 HD
BRANCH  10  12
ATOM     12  C24 MOL d          24.347  -2.135  13.657  0.00  0.00     0.161 C 
BRANCH  12  13
ATOM     13  C25 MOL d          23.252  -2.012  14.709  0.00  0.00    -0.040 A 
ATOM     14  C30 MOL d          23.309  -2.408  16.024  0.00  0.00     0.010 A 
ATOM     15  C29 MOL d          22.186  -2.211  16.855  0.00  0.00     0.016 A 
ATOM     16  C28 MOL d          20.965  -1.634  16.479  0.00  0.00     0.007 A 
ATOM     17  C27 MOL d          20.913  -1.238  15.166  0.00  0.00     0.016 A 
ATOM     18  C26 MOL d          22.030  -1.431  14.326  0.00  0.00     0.010 A 
BRANCH  16  19
ATOM     19  C9  MOL d          19.840  -1.482  17.486  0.00  0.00     0.102 C 
ATOM     20  N11 MOL d          19.682  -2.311  18.507  0.00  0.00    -0.385 N 
ATOM     21  H32 MOL d          20.336  -3.095  18.640  0.00  0.00     0.157 HD
ATOM     22  H33 MOL d          18.905  -2.171  19.168  0.00  0.00     0.157 HD
BRANCH  19  23
ATOM     23  N10 MOL d          19.016  -0.467  17.291  0.00  0.00    -0.385 N 
ATOM     24  H30 MOL d          18.231  -0.309  17.939  0.00  0.00     0.157 HD
ATOM     25  H31 MOL d          19.159   0.166  16.491  0.00  0.00     0.157 HD
ENDBRANCH  19  23
ENDBRANCH  16  19
ENDBRANCH  12  13
ENDBRANCH  10  12
ENDBRANCH   4   8
BRANCH   1  26
ATOM     26  C5  MOL d          29.783  -1.245  17.673  0.00  0.00     0.335 C 
BRANCH  26  27
ATOM     27  N21 MOL d          29.533  -0.500  18.937  0.00  0.00    -0.063 N 
ATOM     28  H3  MOL d          30.085  -0.932  19.661  0.00  0.00     0.278 HD
ATOM     29  H4  MOL d          28.554  -0.595  19.160  0.00  0.00     0.278 HD
BRANCH  27  30
ATOM     30  C49 MOL d          29.854   0.944  18.928  0.00  0.00     0.186 C 
ATOM     31  C48 MOL d          31.279   1.199  19.294  0.00  0.00     0.033 C 
ATOM     32  C47 MOL d          31.391   1.280  20.799  0.00  0.00     0.002 C 
ATOM     33  C46 MOL d          31.225   2.648  21.389  0.00  0.00     0.000 C 
ATOM     34  C52 MOL d          29.908   3.221  21.143  0.00  0.00     0.000 C 
ATOM     35  C51 MOL d          29.417   2.777  19.842  0.00  0.00     0.002 C 
ATOM     36  C50 MOL d          28.769   1.496  19.565  0.00  0.00     0.033 C 
ENDBRANCH  27  30
ENDBRANCH  26  27
ENDBRANCH   1  26
TORSDOF 8
