REMARK  13 active torsions:
REMARK  status: ('A' for Active; 'I' for Inactive)
REMARK    1  A    between atoms: C5_1  and  C6_6 
REMARK    2  A    between atoms: C5_1  and  C1_2 
REMARK    3  A    between atoms: C6_6  and  C9_7 
REMARK    4  A    between atoms: C12_12  and  O15_15 
REMARK    5  A    between atoms: O15_15  and  C16_16 
REMARK    6  A    between atoms: C16_16  and  C17_17 
REMARK    7  A    between atoms: C17_17  and  O18_18 
REMARK    8  A    between atoms: O18_18  and  C19_19 
REMARK    9  A    between atoms: C19_19  and  C20_20 
REMARK   10  A    between atoms: C20_20  and  O21_21 
REMARK   11  A    between atoms: O21_21  and  C22_22 
REMARK   12  A    between atoms: C22_22  and  C23_23 
REMARK   13  A    between atoms: C23_23  and  O24_24 
ROOT
ATOM      1  C9  OXN d          30.416  30.695  14.388  0.00  0.00    -0.050 A 
ATOM      2  C10 OXN d          29.579  31.834  14.642  0.00  0.00     0.011 A 
ATOM      3  C11 OXN d          30.100  33.177  14.586  0.00  0.00     0.037 A 
ATOM      4  C12 OXN d          31.462  33.324  14.271  0.00  0.00     0.068 A 
ATOM      5  C13 OXN d          32.341  32.267  14.015  0.00  0.00     0.037 A 
ATOM      6  C14 OXN d          31.797  30.926  14.076  0.00  0.00     0.011 A 
ENDROOT
BRANCH   4   7
ATOM      7  O15 OXN d          31.987  34.666  14.120  0.00  0.00    -0.349 OA
BRANCH   7   8
ATOM      8  C16 OXN d          31.763  35.509  15.259  0.00  0.00     0.201 C 
BRANCH   8   9
ATOM      9  C17 OXN d          31.556  36.942  14.809  0.00  0.00     0.194 C 
BRANCH   9  10
ATOM     10  O18 OXN d          32.801  37.648  14.791  0.00  0.00    -0.387 OA
BRANCH  10  11
ATOM     11  C19 OXN d          32.672  38.927  14.158  0.00  0.00     0.193 C 
BRANCH  11  12
ATOM     12  C20 OXN d          33.610  39.930  14.801  0.00  0.00     0.193 C 
BRANCH  12  13
ATOM     13  O21 OXN d          32.943  40.631  15.851  0.00  0.00    -0.387 OA
BRANCH  13  14
ATOM     14  C22 OXN d          33.526  41.912  16.106  0.00  0.00     0.193 C 
BRANCH  14  15
ATOM     15  C23 OXN d          32.896  42.539  17.349  0.00  0.00     0.193 C 
BRANCH  15  16
ATOM     16  O24 OXN d          33.558  42.070  18.524  0.00  0.00    -0.394 OA
ATOM     17  C25 OXN d          33.305  42.905  19.653  0.00  0.00     0.201 C 
ENDBRANCH  15  16
ENDBRANCH  14  15
ENDBRANCH  13  14
ENDBRANCH  12  13
ENDBRANCH  11  12
ENDBRANCH  10  11
ENDBRANCH   9  10
ENDBRANCH   8   9
ENDBRANCH   7   8
ENDBRANCH   4   7
BRANCH   1  18
ATOM     18  C6  OXN d          29.843  29.254  14.472  0.00  0.00    -0.020 C 
ATOM     19  C7  OXN d          28.537  29.209  13.682  0.00  0.00     0.020 C 
ATOM     20  C8  OXN d          30.799  28.277  13.798  0.00  0.00     0.020 C 
BRANCH  18  21
ATOM     21  C5  OXN d          29.553  28.830  15.944  0.00  0.00     0.022 C 
BRANCH  21  22
ATOM     22  C1  OXN d          30.289  28.790  17.273  0.00  0.00    -0.050 C 
ATOM     23  C2  OXN d          31.054  30.057  17.710  0.00  0.00     0.014 C 
ATOM     24  C4  OXN d          31.309  27.651  17.189  0.00  0.00     0.014 C 
ATOM     25  C3  OXN d          29.327  28.435  18.415  0.00  0.00     0.014 C 
ENDBRANCH  21  22
ENDBRANCH  18  21
ENDBRANCH   1  18
TORSDOF 13
