REMARK  13 active torsions:
REMARK  status: ('A' for Active; 'I' for Inactive)
REMARK    1  A    between atoms: CD_2  and  CG_4 
REMARK    2  A    between atoms: CG_4  and  CB_5 
REMARK    3  A    between atoms: CB_5  and  CA_6 
REMARK    4  A    between atoms: CA_6  and  C_7 
REMARK    5  A    between atoms: CA_6  and  N_10 
REMARK       I    between atoms: N_10  and  CAY_11 
REMARK    6  A    between atoms: CAY_11  and  CBB_13 
REMARK    7  A    between atoms: CBC_18  and  CBG_19 
REMARK    8  A    between atoms: CBG_19  and  SAV_20 
REMARK    9  A    between atoms: CBG_19  and  CAQ_22 
REMARK   10  A    between atoms: CAQ_22  and  CAN_23 
REMARK   11  A    between atoms: CAN_23  and  CAP_24 
REMARK   12  A    between atoms: CAP_24  and  CBD_25 
REMARK   13  A    between atoms: CBA_32  and  NAC_33 
ROOT
ATOM      1  CBG DXZ d          -0.037  64.220  93.968  0.00  0.00     0.079 C 
ENDROOT
BRANCH   1   2
ATOM      2  CBC DXZ d           0.924  65.372  93.615  0.00  0.00    -0.044 A 
ATOM      3  CAM DXZ d           0.442  66.652  93.419  0.00  0.00     0.009 A 
ATOM      4  CAK DXZ d           1.264  67.735  93.127  0.00  0.00     0.017 A 
ATOM      5  CBB DXZ d           2.612  67.536  92.990  0.00  0.00     0.032 A 
ATOM      6  CAJ DXZ d           3.114  66.262  93.195  0.00  0.00     0.017 A 
ATOM      7  CAL DXZ d           2.292  65.180  93.500  0.00  0.00     0.009 A 
BRANCH   5   8
ATOM      8  CAY DXZ d           3.512  68.694  92.663  0.00  0.00     0.252 C 
ATOM      9  N   DXZ d           2.914  69.868  92.554  0.00  0.00    -0.342 N 
ATOM     10  H6  DXZ d           1.926  69.937  92.689  0.00  0.00     0.163 HD
ATOM     11  OAF DXZ d           4.722  68.542  92.491  0.00  0.00    -0.268 OA
BRANCH   9  12
ATOM     12  CA  DXZ d           3.697  71.078  92.234  0.00  0.00     0.186 C 
BRANCH  12  13
ATOM     13  CB  DXZ d           3.113  71.866  91.041  0.00  0.00     0.046 C 
BRANCH  13  14
ATOM     14  CG  DXZ d           1.987  71.112  90.314  0.00  0.00     0.116 C 
BRANCH  14  15
ATOM     15  CD  DXZ d           1.058  72.055  89.461  0.00  0.00     0.172 C 
ATOM     16  OE1 DXZ d           1.385  72.172  88.249  0.00  0.00    -0.648 OA
ATOM     17  OE2 DXZ d           0.081  72.660  90.011  0.00  0.00    -0.648 OA
ENDBRANCH  14  15
ENDBRANCH  13  14
ENDBRANCH  12  13
BRANCH  12  18
ATOM     18  C   DXZ d           3.832  72.026  93.429  0.00  0.00     0.196 C 
ATOM     19  OXT DXZ d           2.937  72.028  94.292  0.00  0.00    -0.646 OA
ATOM     20  O   DXZ d           4.824  72.769  93.430  0.00  0.00    -0.646 OA
ENDBRANCH  12  18
ENDBRANCH   9  12
ENDBRANCH   5   8
ENDBRANCH   1   2
BRANCH   1  21
ATOM     21  SAV DXZ d          -0.962  63.680  92.475  0.00  0.00    -0.164 SA
ATOM     22  CAA DXZ d          -2.573  64.473  92.657  0.00  0.00     0.090 C 
ENDBRANCH   1  21
BRANCH   1  23
ATOM     23  CAQ DXZ d          -1.041  64.615  95.111  0.00  0.00     0.020 C 
BRANCH  23  24
ATOM     24  CAN DXZ d          -0.375  64.599  96.478  0.00  0.00     0.003 C 
BRANCH  24  25
ATOM     25  CAP DXZ d          -1.310  64.865  97.697  0.00  0.00     0.022 C 
BRANCH  25  26
ATOM     26  CBD DXZ d          -0.447  65.602  98.703  0.00  0.00     0.146 A 
ATOM     27  CBE DXZ d           0.335  64.892  99.620  0.00  0.00     0.247 A 
ATOM     28  OAG DXZ d           0.320  63.662  99.664  0.00  0.00    -0.272 OA
ATOM     29  NAU DXZ d           1.122  65.559 100.511  0.00  0.00    -0.159 N 
ATOM     30  CAZ DXZ d           1.187  66.941 100.490  0.00  0.00     0.679 A 
ATOM     31  H22 DXZ d           1.655  65.046 101.184  0.00  0.00     0.187 HD
ATOM     32  NAB DXZ d           1.987  67.565 101.343  0.00  0.00    -0.234 N 
ATOM     33  NAS DXZ d           0.437  67.631  99.605  0.00  0.00    -0.180 N 
ATOM     34  H23 DXZ d           2.044  68.593 101.337  0.00  0.00     0.174 HD
ATOM     35  H24 DXZ d           2.551  67.022 102.011  0.00  0.00     0.174 HD
ATOM     36  CBA DXZ d          -0.360  67.003  98.722  0.00  0.00     0.104 A 
ATOM     37  H25 DXZ d           0.476  68.660  99.606  0.00  0.00     0.185 HD
BRANCH  36  38
ATOM     38  NAC DXZ d          -1.076  67.750  97.849  0.00  0.00    -0.388 N 
ATOM     39  H26 DXZ d          -1.005  68.777  97.871  0.00  0.00     0.157 HD
ATOM     40  H27 DXZ d          -1.692  67.291  97.163  0.00  0.00     0.157 HD
ENDBRANCH  36  38
ENDBRANCH  25  26
ENDBRANCH  24  25
ENDBRANCH  23  24
ENDBRANCH   1  23
TORSDOF 13
