REMARK  6 active torsions:
REMARK  status: ('A' for Active; 'I' for Inactive)
REMARK    1  A    between atoms: N1_1  and  C13_13 
REMARK    2  A    between atoms: C2_2  and  N12_12 
REMARK    3  A    between atoms: C13_13  and  C14_14 
REMARK    4  A    between atoms: C14_14  and  C15_15 
REMARK    5  A    between atoms: C15_15  and  C16_16 
REMARK    6  A    between atoms: C16_16  and  C17_17 
ROOT
ATOM      1  N1  HAN d          19.517  87.801  41.910  0.00  0.00    -0.179 N 
ATOM      2  C2  HAN d          20.948  88.001  42.007  0.00  0.00     0.701 A 
ATOM      3  N3  HAN d          21.500  88.639  41.040  0.00  0.00    -0.063 NA
ATOM      4  C4  HAN d          20.517  89.643  38.894  0.00  0.00     0.041 A 
ATOM      5  C5  HAN d          19.302  89.823  38.163  0.00  0.00    -0.054 A 
ATOM      6  C6  HAN d          18.044  89.308  38.700  0.00  0.00    -0.054 A 
ATOM      7  C7  HAN d          18.025  88.624  39.946  0.00  0.00     0.040 A 
ATOM      8  C9  HAN d          20.476  88.944  40.158  0.00  0.00     0.103 A 
ATOM      9  C8  HAN d          19.252  88.445  40.671  0.00  0.00     0.081 A 
ATOM     10  C10 HAN d          19.401  90.571  36.817  0.00  0.00     0.049 C 
ATOM     11  C11 HAN d          16.687  89.457  37.979  0.00  0.00     0.049 C 
ENDROOT
BRANCH   1  12
ATOM     12  C13 HAN d          18.597  87.110  42.844  0.00  0.00     0.148 C 
BRANCH  12  13
ATOM     13  C14 HAN d          17.999  88.027  43.922  0.00  0.00     0.021 C 
BRANCH  13  14
ATOM     14  C15 HAN d          18.394  87.603  45.344  0.00  0.00     0.012 C 
BRANCH  14  15
ATOM     15  C16 HAN d          17.734  86.277  45.795  0.00  0.00     0.113 C 
BRANCH  15  16
ATOM     16  C17 HAN d          16.877  86.418  47.060  0.00  0.00     0.172 C 
ATOM     17  O18 HAN d          15.796  85.790  47.117  0.00  0.00    -0.648 OA
ATOM     18  O19 HAN d          17.278  87.151  48.005  0.00  0.00    -0.648 OA
ENDBRANCH  15  16
ENDBRANCH  14  15
ENDBRANCH  13  14
ENDBRANCH  12  13
ENDBRANCH   1  12
BRANCH   2  19
ATOM     19  N12 HAN d          21.710  87.522  43.095  0.00  0.00    -0.233 N 
ATOM     20  H9  HAN d          22.726  87.687  43.124  0.00  0.00     0.174 HD
ATOM     21  H10 HAN d          21.250  87.008  43.860  0.00  0.00     0.174 HD
ENDBRANCH   2  19
TORSDOF 6
