REMARK  16 active torsions:
REMARK  status: ('A' for Active; 'I' for Inactive)
REMARK    1  A    between atoms: C2_1  and  O39_2 
REMARK    2  A    between atoms: S8_9  and  C5_6 
REMARK    3  A    between atoms: N11_12  and  S8_9 
REMARK    4  A    between atoms: N11_12  and  C12_13 
REMARK    5  A    between atoms: C16_17  and  N11_12 
REMARK    6  A    between atoms: C12_13  and  C13_14 
REMARK    7  A    between atoms: C17_18  and  C16_17 
REMARK    8  A    between atoms: C17_18  and  O18_19 
REMARK    9  A    between atoms: C19_20  and  C17_18 
REMARK   10  A    between atoms: C19_20  and  N20_21 
REMARK   11  A    between atoms: C32_24  and  C19_20 
REMARK       I    between atoms: N20_21  and  C21_22 
REMARK   12  A    between atoms: C21_22  and  C51_31 
REMARK   13  A    between atoms: C38_30  and  C32_24 
REMARK   14  A    between atoms: C55_35  and  C58_38 
REMARK       I    between atoms: C58_38  and  N60_40 
REMARK   15  A    between atoms: N60_40  and  C62_42 
REMARK   16  A    between atoms: C62_42  and  C63_43 
ROOT
ATOM      1  C19 G64 d          15.042  22.969  16.890  0.00  0.00     0.119 C 
ENDROOT
BRANCH   1   2
ATOM      2  C17 G64 d          15.406  24.080  17.881  0.00  0.00     0.159 C 
BRANCH   2   3
ATOM      3  C16 G64 d          16.502  25.011  17.393  0.00  0.00     0.169 C 
BRANCH   3   4
ATOM      4  N11 G64 d          17.804  24.345  17.323  0.00  0.00    -0.304 N 
BRANCH   4   5
ATOM      5  S8  G64 d          18.464  24.095  15.824  0.00  0.00     0.260 S 
ATOM      6  O9  G64 d          17.372  23.987  14.890  0.00  0.00    -0.200 OA
ATOM      7  O10 G64 d          19.400  22.984  15.968  0.00  0.00    -0.200 OA
BRANCH   5   8
ATOM      8  C5  G64 d          19.414  25.492  15.390  0.00  0.00     0.079 C 
ATOM      9  C4  G64 d          20.779  25.519  15.658  0.00  0.00     0.028 C 
ATOM     10  C3  G64 d          21.545  26.648  15.393  0.00  0.00     0.038 C 
ATOM     11  C2  G64 d          20.921  27.767  14.902  0.00  0.00     0.068 C 
ATOM     12  C7  G64 d          19.565  27.700  14.497  0.00  0.00     0.038 C 
ATOM     13  C6  G64 d          18.822  26.588  14.794  0.00  0.00     0.028 C 
BRANCH  11  14
ATOM     14  O39 G64 d          21.526  28.972  14.621  0.00  0.00    -0.356 OA
ATOM     15  C40 G64 d          22.902  29.006  14.976  0.00  0.00     0.210 C 
ENDBRANCH  11  14
ENDBRANCH   5   8
ENDBRANCH   4   5
BRANCH   4  16
ATOM     16  C12 G64 d          18.741  24.651  18.403  0.00  0.00     0.139 C 
BRANCH  16  17
ATOM     17  C13 G64 d          18.430  23.983  19.728  0.00  0.00    -0.004 C 
ATOM     18  C14 G64 d          18.423  22.481  19.577  0.00  0.00     0.011 C 
ATOM     19  C15 G64 d          19.442  24.441  20.798  0.00  0.00     0.011 C 
ENDBRANCH  16  17
ENDBRANCH   4  16
ENDBRANCH   3   4
ENDBRANCH   2   3
BRANCH   2  20
ATOM     20  O18 G64 d          14.233  24.813  18.220  0.00  0.00    -0.392 OA
ATOM     21  H20 G64 d          13.920  25.280  17.454  0.00  0.00     0.210 HD
ENDBRANCH   2  20
ENDBRANCH   1   2
BRANCH   1  22
ATOM     22  N20 G64 d          14.207  21.979  17.566  0.00  0.00    -0.349 N 
ATOM     23  C21 G64 d          14.655  20.804  17.985  0.00  0.00     0.252 C 
ATOM     24  O22 G64 d          15.873  20.486  18.002  0.00  0.00    -0.268 OA
ATOM     25  H22 G64 d          13.244  22.200  17.721  0.00  0.00     0.163 HD
BRANCH  23  26
ATOM     26  C51 G64 d          13.602  19.838  18.502  0.00  0.00     0.033 A 
ATOM     27  C52 G64 d          13.823  19.193  19.714  0.00  0.00     0.024 A 
ATOM     28  C53 G64 d          12.835  18.310  20.200  0.00  0.00    -0.060 A 
ATOM     29  C54 G64 d          11.682  18.119  19.471  0.00  0.00     0.024 A 
ATOM     30  C57 G64 d          13.101  17.614  21.532  0.00  0.00     0.048 C 
ATOM     31  C55 G64 d          11.526  18.724  18.229  0.00  0.00     0.033 A 
ATOM     32  C56 G64 d          12.455  19.642  17.768  0.00  0.00     0.034 A 
BRANCH  31  33
ATOM     33  C58 G64 d          10.251  18.554  17.414  0.00  0.00     0.253 C 
ATOM     34  O59 G64 d           9.228  19.007  17.909  0.00  0.00    -0.267 OA
ATOM     35  N60 G64 d          10.233  17.986  16.233  0.00  0.00    -0.347 N 
ATOM     36  C61 G64 d          11.439  17.337  15.655  0.00  0.00     0.153 C 
BRANCH  35  37
ATOM     37  C62 G64 d           9.029  18.059  15.329  0.00  0.00     0.187 C 
BRANCH  37  38
ATOM     38  C63 G64 d           9.255  18.496  13.879  0.00  0.00     0.084 A 
ATOM     39  N64 G64 d           9.727  17.654  12.924  0.00  0.00    -0.229 NA
ATOM     40  C65 G64 d           9.777  18.289  11.784  0.00  0.00     0.142 A 
ATOM     41  O66 G64 d           9.447  19.592  11.961  0.00  0.00    -0.299 OA
ATOM     42  C69 G64 d          10.322  17.798  10.457  0.00  0.00     0.099 C 
ATOM     43  C67 G64 d           9.165  19.729  13.303  0.00  0.00     0.077 A 
ATOM     44  C68 G64 d           8.608  21.060  13.782  0.00  0.00     0.079 C 
ENDBRANCH  37  38
ENDBRANCH  35  37
ENDBRANCH  31  33
ENDBRANCH  23  26
ENDBRANCH   1  22
BRANCH   1  45
ATOM     45  C32 G64 d          14.294  23.460  15.653  0.00  0.00     0.066 C 
BRANCH  45  46
ATOM     46  C38 G64 d          13.965  22.289  14.740  0.00  0.00    -0.056 A 
ATOM     47  C33 G64 d          12.658  21.775  14.686  0.00  0.00     0.007 A 
ATOM     48  C34 G64 d          12.422  20.616  13.925  0.00  0.00     0.001 A 
ATOM     49  C35 G64 d          13.400  19.954  13.252  0.00  0.00     0.000 A 
ATOM     50  C36 G64 d          14.691  20.493  13.297  0.00  0.00     0.001 A 
ATOM     51  C37 G64 d          14.982  21.625  14.023  0.00  0.00     0.007 A 
ENDBRANCH  45  46
ENDBRANCH   1  45
TORSDOF 16
