REMARK  12 active torsions:
REMARK  status: ('A' for Active; 'I' for Inactive)
REMARK    1  A    between atoms: C2_2  and  C11_11 
REMARK    2  A    between atoms: C6_6  and  C21_21 
REMARK    3  A    between atoms: C8_8  and  C13_13 
REMARK       I    between atoms: C13_13  and  N14_14 
REMARK    4  A    between atoms: N14_14  and  C15_15 
REMARK    5  A    between atoms: C15_15  and  C17_17 
REMARK    6  A    between atoms: C17_17  and  C20_20 
REMARK    7  A    between atoms: C17_17  and  C18_18 
REMARK    8  A    between atoms: C18_18  and  O19_19 
REMARK    9  A    between atoms: C20_20  and  C28_28 
REMARK   10  A    between atoms: C21_21  and  N22_22 
REMARK   11  A    between atoms: C24_24  and  C29_29 
REMARK   12  A    between atoms: C29_29  and  N30_30 
ROOT
ATOM      1  C13 RPR d          10.060  -8.868  22.145  0.00  0.00     0.252 C 
ATOM      2  N14 RPR d          10.780  -8.000  21.388  0.00  0.00    -0.352 N 
ATOM      3  O33 RPR d           8.892  -8.652  22.435  0.00  0.00    -0.268 OA
ATOM      4  H9  RPR d          11.690  -8.277  21.078  0.00  0.00     0.163 HD
ENDROOT
BRANCH   2   5
ATOM      5  C15 RPR d          10.284  -6.678  21.006  0.00  0.00     0.094 C 
ATOM      6  C16 RPR d          10.787  -6.351  19.594  0.00  0.00     0.033 C 
BRANCH   5   7
ATOM      7  C17 RPR d          10.731  -5.635  22.059  0.00  0.00     0.112 C 
BRANCH   7   8
ATOM      8  C20 RPR d          12.273  -5.516  22.131  0.00  0.00     0.055 C 
BRANCH   8   9
ATOM      9  C28 RPR d          12.839  -4.630  23.217  0.00  0.00    -0.056 A 
ATOM     10  C27 RPR d          14.018  -3.936  22.964  0.00  0.00     0.007 A 
ATOM     11  C26 RPR d          14.629  -3.183  23.956  0.00  0.00     0.002 A 
ATOM     12  C25 RPR d          14.061  -3.096  25.217  0.00  0.00     0.015 A 
ATOM     13  C24 RPR d          12.860  -3.752  25.486  0.00  0.00     0.007 A 
ATOM     14  C23 RPR d          12.257  -4.518  24.481  0.00  0.00     0.022 A 
BRANCH  13  15
ATOM     15  C29 RPR d          12.242  -3.632  26.817  0.00  0.00     0.102 C 
ATOM     16  N31 RPR d          10.935  -3.912  26.963  0.00  0.00    -0.385 N 
ATOM     17  H28 RPR d          10.376  -4.202  26.148  0.00  0.00     0.157 HD
ATOM     18  H29 RPR d          10.492  -3.836  27.890  0.00  0.00     0.157 HD
BRANCH  15  19
ATOM     19  N30 RPR d          12.949  -3.259  27.879  0.00  0.00    -0.385 N 
ATOM     20  H26 RPR d          12.494  -3.182  28.800  0.00  0.00     0.157 HD
ATOM     21  H27 RPR d          13.952  -3.047  27.781  0.00  0.00     0.157 HD
ENDBRANCH  15  19
ENDBRANCH  13  15
ENDBRANCH   8   9
ENDBRANCH   7   8
BRANCH   7  22
ATOM     22  C18 RPR d          10.081  -4.289  21.697  0.00  0.00     0.265 C 
ATOM     23  O32 RPR d          10.679  -3.286  21.443  0.00  0.00    -0.265 OA
BRANCH  22  24
ATOM     24  O19 RPR d           8.655  -4.363  21.668  0.00  0.00    -0.326 OA
ATOM     25  C34 RPR d           7.904  -3.253  21.165  0.00  0.00     0.213 C 
ENDBRANCH  22  24
ENDBRANCH   7  22
ENDBRANCH   5   7
ENDBRANCH   2   5
BRANCH   1  26
ATOM     26  C8  RPR d          10.782 -10.077  22.586  0.00  0.00     0.032 A 
ATOM     27  C9  RPR d          12.173 -10.112  22.643  0.00  0.00     0.018 A 
ATOM     28  C10 RPR d          12.840 -11.249  23.075  0.00  0.00     0.013 A 
ATOM     29  C11 RPR d          12.155 -12.387  23.459  0.00  0.00    -0.026 A 
ATOM     30  C12 RPR d          10.771 -12.355  23.414  0.00  0.00     0.013 A 
ATOM     31  C7  RPR d          10.085 -11.218  22.983  0.00  0.00     0.018 A 
BRANCH  29  32
ATOM     32  C2  RPR d          12.909 -13.611  23.881  0.00  0.00    -0.025 A 
ATOM     33  C1  RPR d          12.505 -14.871  23.483  0.00  0.00     0.021 A 
ATOM     34  C6  RPR d          13.217 -16.013  23.857  0.00  0.00    -0.032 A 
ATOM     35  C5  RPR d          14.350 -15.894  24.655  0.00  0.00     0.009 A 
ATOM     36  C4  RPR d          14.769 -14.636  25.046  0.00  0.00     0.001 A 
ATOM     37  C3  RPR d          14.053 -13.515  24.654  0.00  0.00     0.012 A 
BRANCH  34  38
ATOM     38  C21 RPR d          12.784 -17.363  23.361  0.00  0.00     0.268 C 
BRANCH  38  39
ATOM     39  N22 RPR d          13.285 -17.615  22.006  0.00  0.00    -0.075 N 
ATOM     40  H19 RPR d          12.980 -18.526  21.699  0.00  0.00     0.274 HD
ATOM     41  H20 RPR d          14.292 -17.581  22.009  0.00  0.00     0.274 HD
ATOM     42  H21 RPR d          12.927 -16.912  21.379  0.00  0.00     0.274 HD
ENDBRANCH  38  39
ENDBRANCH  34  38
ENDBRANCH  29  32
ENDBRANCH   1  26
TORSDOF 12
