REMARK  10 active torsions:
REMARK  status: ('A' for Active; 'I' for Inactive)
REMARK    1  A    between atoms: C1_1  and  C2_4 
REMARK    2  A    between atoms: C1_1  and  O1_2 
REMARK    3  A    between atoms: O1_2  and  C15_19 
REMARK       I    between atoms: N7_9  and  C8_10 
REMARK    4  A    between atoms: C8_10  and  C9_12 
REMARK    5  A    between atoms: C9_12  and  C10_14 
REMARK    6  A    between atoms: C10_14  and  C11_15 
REMARK    7  A    between atoms: C15_19  and  C24_28 
REMARK    8  A    between atoms: C15_19  and  C16_20 
REMARK    9  A    between atoms: C16_20  and  C17_21 
REMARK   10  A    between atoms: C17_21  and  C18_22 
ROOT
ATOM      1  C1  SB3 d         -24.969  27.348   4.271  0.00  0.00     0.282 C 
ATOM      2  O2  SB3 d         -23.806  27.477   3.993  0.00  0.00    -0.263 OA
ENDROOT
BRANCH   1   3
ATOM      3  C2  SB3 d         -25.748  26.054   3.961  0.00  0.00     0.187 C 
ATOM      4  N7  SB3 d         -27.202  26.128   3.884  0.00  0.00    -0.332 N 
ATOM      5  C6  SB3 d         -27.657  26.983   2.743  0.00  0.00     0.127 C 
ATOM      6  C8  SB3 d         -27.948  25.896   4.987  0.00  0.00     0.291 C 
ATOM      7  C5  SB3 d         -27.297  26.370   1.388  0.00  0.00     0.020 C 
ATOM      8  C4  SB3 d         -25.789  26.216   1.383  0.00  0.00     0.004 C 
ATOM      9  C3  SB3 d         -25.387  25.423   2.620  0.00  0.00     0.035 C 
ATOM     10  O3  SB3 d         -27.389  25.426   5.980  0.00  0.00    -0.264 OA
BRANCH   6  11
ATOM     11  C9  SB3 d         -29.478  26.097   5.056  0.00  0.00     0.224 C 
ATOM     12  O4  SB3 d         -30.203  25.286   4.468  0.00  0.00    -0.286 OA
BRANCH  11  13
ATOM     13  C10 SB3 d         -30.113  27.193   5.925  0.00  0.00     0.022 C 
ATOM     14  C14 SB3 d         -31.654  27.208   5.816  0.00  0.00     0.023 C 
ATOM     15  C13 SB3 d         -29.751  27.054   7.448  0.00  0.00     0.023 C 
BRANCH  13  16
ATOM     16  C11 SB3 d         -29.618  28.564   5.501  0.00  0.00     0.012 C 
ATOM     17  C12 SB3 d         -30.112  29.007   4.107  0.00  0.00     0.006 C 
ENDBRANCH  13  16
ENDBRANCH  11  13
ENDBRANCH   6  11
ENDBRANCH   1   3
BRANCH   1  18
ATOM     18  O1  SB3 d         -25.677  28.336   4.779  0.00  0.00    -0.310 OA
BRANCH  18  19
ATOM     19  C15 SB3 d         -25.134  29.656   4.960  0.00  0.00     0.165 C 
BRANCH  19  20
ATOM     20  C24 SB3 d         -26.281  30.654   4.678  0.00  0.00    -0.029 A 
ATOM     21  C29 SB3 d         -27.075  31.138   5.643  0.00  0.00     0.010 A 
ATOM     22  C28 SB3 d         -28.005  32.038   5.348  0.00  0.00     0.001 A 
ATOM     23  C27 SB3 d         -28.156  32.459   4.098  0.00  0.00     0.000 A 
ATOM     24  C26 SB3 d         -27.379  31.984   3.136  0.00  0.00     0.001 A 
ATOM     25  C25 SB3 d         -26.453  31.088   3.427  0.00  0.00     0.010 A 
ENDBRANCH  19  20
BRANCH  19  26
ATOM     26  C16 SB3 d         -24.594  29.724   6.392  0.00  0.00     0.042 C 
BRANCH  26  27
ATOM     27  C17 SB3 d         -23.713  30.914   6.767  0.00  0.00     0.041 C 
BRANCH  27  28
ATOM     28  C18 SB3 d         -22.524  30.557   7.639  0.00  0.00    -0.058 A 
ATOM     29  C23 SB3 d         -21.466  29.972   7.102  0.00  0.00     0.007 A 
ATOM     30  C22 SB3 d         -20.531  29.419   7.866  0.00  0.00     0.001 A 
ATOM     31  C21 SB3 d         -20.652  29.465   9.179  0.00  0.00     0.000 A 
ATOM     32  C20 SB3 d         -21.702  30.069   9.721  0.00  0.00     0.001 A 
ATOM     33  C19 SB3 d         -22.626  30.613   8.956  0.00  0.00     0.007 A 
ENDBRANCH  27  28
ENDBRANCH  26  27
ENDBRANCH  19  26
ENDBRANCH  18  19
ENDBRANCH   1  18
TORSDOF 10
