REMARK  7 active torsions:
REMARK  status: ('A' for Active; 'I' for Inactive)
REMARK    1  A    between atoms: N_1  and  CA_2 
REMARK    2  A    between atoms: CA_2  and  CB_3 
REMARK    3  A    between atoms: CA_2  and  C_9 
REMARK    4  A    between atoms: CB_3  and  CG_4 
REMARK    5  A    between atoms: CG_4  and  CD_5 
REMARK    6  A    between atoms: CD_5  and  CE_6 
REMARK    7  A    between atoms: CE_6  and  NZ_7 
ROOT
ATOM      1  CA  MLZ d          29.516  20.912 -55.925  0.00  0.00     0.283 C 
ENDROOT
BRANCH   1   2
ATOM      2  N   MLZ d          30.016  21.844 -56.969  0.00  0.00    -0.065 N 
ATOM      3  H1  MLZ d          29.395  21.824 -57.762  0.00  0.00     0.275 HD
ATOM      4  H2  MLZ d          30.939  21.561 -57.258  0.00  0.00     0.275 HD
ATOM      5  H3  MLZ d          30.053  22.779 -56.595  0.00  0.00     0.275 HD
ENDBRANCH   1   2
BRANCH   1   6
ATOM      6  CB  MLZ d          29.340  19.514 -56.519  0.00  0.00     0.044 C 
BRANCH   6   7
ATOM      7  CG  MLZ d          29.071  18.396 -55.494  0.00  0.00     0.004 C 
BRANCH   7   8
ATOM      8  CD  MLZ d          28.110  17.382 -56.114  0.00  0.00     0.027 C 
BRANCH   8   9
ATOM      9  CE  MLZ d          28.278  15.996 -55.515  0.00  0.00     0.231 C 
BRANCH   9  10
ATOM     10  NZ  MLZ d          27.282  15.047 -56.013  0.00  0.00    -0.079 N 
ATOM     11  CM  MLZ d          27.049  13.898 -55.136  0.00  0.00     0.266 C 
ATOM     12  H13 MLZ d          27.594  14.703 -56.907  0.00  0.00     0.276 HD
ATOM     13  H14 MLZ d          26.409  15.538 -56.128  0.00  0.00     0.276 HD
ENDBRANCH   9  10
ENDBRANCH   8   9
ENDBRANCH   7   8
ENDBRANCH   6   7
ENDBRANCH   1   6
BRANCH   1  14
ATOM     14  C   MLZ d          30.438  20.927 -54.722  0.00  0.00     0.204 C 
ATOM     15  O   MLZ d          29.911  20.989 -53.579  0.00  0.00    -0.646 OA
ATOM     16  O18 MLZ d          31.689  20.879 -54.860  0.00  0.00    -0.646 OA
ENDBRANCH   1  14
TORSDOF 7
