REMARK  8 active torsions:
REMARK  status: ('A' for Active; 'I' for Inactive)
REMARK    1  A    between atoms: C4_7  and  S_1 
REMARK    2  A    between atoms: S_1  and  N3S_16 
REMARK       I    between atoms: C7_10  and  N'_2 
REMARK    3  A    between atoms: N'_2  and  C1'_11 
REMARK    4  A    between atoms: C1_4  and  C7_10 
REMARK    5  A    between atoms: C1'_11  and  C2'_13 
REMARK    6  A    between atoms: C2'_13  and  C3'_15 
REMARK    7  A    between atoms: C3'_15  and  C4'_17 
REMARK    8  A    between atoms: C4'_17  and  C5'_18 
ROOT
ATOM      1  C1  RZ8 d          16.638   4.578  14.641  0.00  0.00     0.032 C 
ATOM      2  C2  RZ8 d          14.757   3.350  15.561  0.00  0.00     0.026 C 
ATOM      3  C3  RZ8 d          15.241   4.442  14.848  0.00  0.00     0.018 C 
ATOM      4  C4  RZ8 d          15.624   2.320  16.076  0.00  0.00     0.079 C 
ATOM      5  C5  RZ8 d          17.520   3.548  15.050  0.00  0.00     0.018 C 
ATOM      6  C6  RZ8 d          17.004   2.482  15.799  0.00  0.00     0.026 C 
ENDROOT
BRANCH   1   7
ATOM      7  C7  RZ8 d          17.196   5.722  13.873  0.00  0.00     0.251 C 
ATOM      8  N'  RZ8 d          18.459   5.664  13.477  0.00  0.00    -0.357 N 
ATOM      9  H1  RZ8 d          19.033   4.890  13.744  0.00  0.00     0.162 HD
ATOM     10  O'  RZ8 d          16.492   6.719  13.600  0.00  0.00    -0.268 OA
BRANCH   8  11
ATOM     11  C1' RZ8 d          19.017   6.746  12.640  0.00  0.00     0.123 C 
BRANCH  11  12
ATOM     12  C2' RZ8 d          20.177   7.240  13.432  0.00  0.00     0.020 C 
BRANCH  12  13
ATOM     13  C3' RZ8 d          19.682   8.339  14.324  0.00  0.00     0.002 C 
BRANCH  13  14
ATOM     14  C4' RZ8 d          19.909   9.571  13.473  0.00  0.00    -0.000 C 
BRANCH  14  15
ATOM     15  C5' RZ8 d          19.401  10.815  14.169  0.00  0.00    -0.005 C 
ATOM     16  C6' RZ8 d          19.179  11.958  13.183  0.00  0.00     0.005 C 
ENDBRANCH  14  15
ENDBRANCH  13  14
ENDBRANCH  12  13
ENDBRANCH  11  12
ENDBRANCH   8  11
ENDBRANCH   1   7
BRANCH   4  17
ATOM     17  S   RZ8 d          15.016   0.964  16.872  0.00  0.00     0.256 S 
ATOM     18  O1S RZ8 d          13.576   1.010  16.703  0.00  0.00    -0.201 OA
ATOM     19  O2S RZ8 d          15.563   1.029  18.212  0.00  0.00    -0.201 OA
BRANCH  17  20
ATOM     20  N3S RZ8 d          15.655  -0.272  16.167  0.00  0.00    -0.324 N 
ATOM     21  H12 RZ8 d          15.433  -1.196  16.479  0.00  0.00     0.169 HD
ATOM     22  H13 RZ8 d          16.287  -0.141  15.403  0.00  0.00     0.169 HD
ENDBRANCH  17  20
ENDBRANCH   4  17
TORSDOF 8
