REMARK  4 active torsions:
REMARK  status: ('A' for Active; 'I' for Inactive)
REMARK       I    between atoms: C10_1  and  N09_15 
REMARK    1  A    between atoms: C12_17  and  C10_1 
REMARK    2  A    between atoms: N13_18  and  C15_2 
REMARK    3  A    between atoms: N09_15  and  C05_11 
REMARK       I    between atoms: C12_17  and  N13_18 
REMARK    4  A    between atoms: C16_20  and  N20_23 
REMARK       I    between atoms: N20_23  and  C25_25 
REMARK       I    between atoms: C25_25  and  N26_26 
ROOT
ATOM      1  C15 MOL d          29.022 -15.289  34.976  0.00  0.00     0.142 C 
ATOM      2  C17 MOL d          29.021 -15.448  32.673  0.00  0.00     0.067 C 
ATOM      3  C21 MOL d          29.640 -12.908  32.247  0.00  0.00     0.008 A 
ATOM      4  C22 MOL d          29.925 -11.684  32.865  0.00  0.00     0.001 A 
ATOM      5  C24 MOL d          29.644 -12.708  35.042  0.00  0.00     0.010 A 
ATOM      6  C16 MOL d          28.382 -15.997  33.847  0.00  0.00     0.131 C 
ATOM      7  C18 MOL d          29.355 -14.042  33.031  0.00  0.00    -0.048 A 
ATOM      8  C19 MOL d          29.360 -13.942  34.415  0.00  0.00    -0.027 A 
ATOM      9  C23 MOL d          29.925 -11.585  34.263  0.00  0.00     0.001 A 
ENDROOT
BRANCH   1  10
ATOM     10  N13 MOL d          28.115 -15.111  36.014  0.00  0.00    -0.342 N 
ATOM     11  C12 MOL d          28.508 -15.398  37.361  0.00  0.00     0.310 C 
ATOM     12  O14 MOL d          29.652 -15.817  37.605  0.00  0.00    -0.262 OA
ATOM     13  H11 MOL d          27.190 -14.783  35.821  0.00  0.00     0.163 HD
BRANCH  11  14
ATOM     14  C10 MOL d          27.510 -15.191  38.503  0.00  0.00     0.313 C 
ATOM     15  N09 MOL d          27.941 -15.503  39.842  0.00  0.00    -0.319 N 
ATOM     16  H10 MOL d          28.871 -15.856  39.947  0.00  0.00     0.169 HD
ATOM     17  O11 MOL d          26.391 -14.782  38.244  0.00  0.00    -0.262 OA
BRANCH  15  18
ATOM     18  C05 MOL d          27.155 -15.354  41.055  0.00  0.00     0.038 A 
ATOM     19  C04 MOL d          25.806 -15.002  41.038  0.00  0.00     0.073 A 
ATOM     20  C03 MOL d          25.116 -14.856  42.223  0.00  0.00     0.140 A 
ATOM     21  C02 MOL d          25.762 -15.052  43.429  0.00  0.00     0.072 A 
ATOM     22  F08 MOL d          23.828 -14.529  42.212  0.00  0.00    -0.204 F 
ATOM     23  C01 MOL d          27.109 -15.394  43.455  0.00  0.00     0.029 A 
ATOM     24 CL7  MOL d          24.893 -14.866  44.892  0.00  0.00    -0.081 Cl
ATOM     25  C06 MOL d          27.797 -15.539  42.269  0.00  0.00     0.031 A 
ENDBRANCH  15  18
ENDBRANCH  11  14
ENDBRANCH   1  10
BRANCH   6  26
ATOM     26  N20 MOL d          28.654 -17.393  33.952  0.00  0.00    -0.220 N 
ATOM     27  C25 MOL d          27.742 -18.337  33.410  0.00  0.00     0.665 C 
ATOM     28  N26 MOL d          26.654 -17.920  32.810  0.00  0.00    -0.235 N 
ATOM     29  N27 MOL d          27.991 -19.615  33.509  0.00  0.00    -0.235 N 
ATOM     30  H15 MOL d          25.990 -18.602  32.416  0.00  0.00     0.174 HD
ATOM     31  H16 MOL d          26.463 -16.911  32.733  0.00  0.00     0.174 HD
ATOM     32  H17 MOL d          28.847 -19.938  33.981  0.00  0.00     0.174 HD
ATOM     33  H18 MOL d          27.331 -20.300  33.115  0.00  0.00     0.174 HD
ATOM     34  H13 MOL d          29.512 -17.717  34.421  0.00  0.00     0.178 HD
ENDBRANCH   6  26
TORSDOF 4
