REMARK  12 active torsions:
REMARK  status: ('A' for Active; 'I' for Inactive)
REMARK    1  A    between atoms: P_1  and  O5'_5 
REMARK    2  A    between atoms: O5'_5  and  C5'_6 
REMARK    3  A    between atoms: C5'_6  and  C4'_7 
REMARK    4  A    between atoms: C4'_7  and  C3'_9 
REMARK    5  A    between atoms: C4'_7  and  O4'_8 
REMARK    6  A    between atoms: C3'_9  and  C2'_11 
REMARK    7  A    between atoms: C3'_9  and  O3'_10 
REMARK    8  A    between atoms: C2'_11  and  C1'_13 
REMARK    9  A    between atoms: C2'_11  and  O2'_12 
REMARK   10  A    between atoms: C1'_13  and  NH_14 
REMARK   11  A    between atoms: NH_14  and  C2_16 
REMARK   12  A    between atoms: C1_15  and  C7_21 
ROOT
ATOM      1  C2' MOL d          -7.160 -20.846  33.285  0.00  0.00     0.167 C 
ENDROOT
BRANCH   1   2
ATOM      2  C3' MOL d          -6.731 -21.696  32.051  0.00  0.00     0.179 C 
BRANCH   2   3
ATOM      3  C4' MOL d          -5.409 -21.223  31.390  0.00  0.00     0.173 C 
BRANCH   3   4
ATOM      4  C5' MOL d          -5.176 -21.958  30.056  0.00  0.00     0.217 C 
BRANCH   4   5
ATOM      5  O5' MOL d          -6.198 -22.239  29.345  0.00  0.00    -0.280 OA
BRANCH   5   6
ATOM      6  P   MOL d          -6.313 -23.015  28.076  0.00  0.00     0.422 P 
ATOM      7  O3P MOL d          -6.445 -24.375  28.552  0.00  0.00    -0.617 OA
ATOM      8  O2P MOL d          -7.504 -22.498  27.337  0.00  0.00    -0.617 OA
ATOM      9  O1P MOL d          -5.092 -22.928  27.261  0.00  0.00    -0.617 OA
ENDBRANCH   5   6
ENDBRANCH   4   5
ENDBRANCH   3   4
BRANCH   3  10
ATOM     10  O4' MOL d          -5.483 -19.801  31.135  0.00  0.00    -0.391 OA
ATOM     11  H4  MOL d          -5.612 -19.340  31.955  0.00  0.00     0.210 HD
ENDBRANCH   3  10
ENDBRANCH   2   3
BRANCH   2  12
ATOM     12  O3' MOL d          -6.444 -22.990  32.568  0.00  0.00    -0.390 OA
ATOM     13  H6  MOL d          -6.174 -23.561  31.858  0.00  0.00     0.210 HD
ENDBRANCH   2  12
ENDBRANCH   1   2
BRANCH   1  14
ATOM     14  C1' MOL d          -8.310 -21.394  34.087  0.00  0.00     0.154 C 
BRANCH  14  15
ATOM     15  NH  MOL d          -9.292 -21.951  33.199  0.00  0.00    -0.387 N 
ATOM     16  H11 MOL d          -9.023 -22.295  32.266  0.00  0.00     0.159 HD
BRANCH  15  17
ATOM     17  C2  MOL d         -10.620 -22.016  33.629  0.00  0.00     0.045 A 
ATOM     18  C1  MOL d         -11.569 -22.859  32.960  0.00  0.00     0.067 A 
ATOM     19  C6  MOL d         -12.907 -22.824  33.400  0.00  0.00     0.021 A 
ATOM     20  C5  MOL d         -13.287 -21.995  34.461  0.00  0.00     0.001 A 
ATOM     21  C4  MOL d         -12.334 -21.174  35.121  0.00  0.00     0.002 A 
ATOM     22  C3  MOL d         -11.003 -21.176  34.710  0.00  0.00     0.030 A 
BRANCH  18  23
ATOM     23  C7  MOL d         -11.231 -23.843  31.914  0.00  0.00     0.211 C 
ATOM     24  O72 MOL d         -12.116 -24.587  31.497  0.00  0.00    -0.644 OA
ATOM     25  O71 MOL d         -10.101 -23.961  31.460  0.00  0.00    -0.644 OA
ENDBRANCH  18  23
ENDBRANCH  15  17
ENDBRANCH  14  15
ENDBRANCH   1  14
BRANCH   1  26
ATOM     26  O2' MOL d          -6.159 -20.438  34.171  0.00  0.00    -0.391 OA
ATOM     27  H8  MOL d          -5.425 -20.089  33.679  0.00  0.00     0.210 HD
ENDBRANCH   1  26
TORSDOF 12
