REMARK  4 active torsions:
REMARK  status: ('A' for Active; 'I' for Inactive)
REMARK    1  A    between atoms: C3_1  and  N16_20 
REMARK    2  A    between atoms: C15_8  and  C12_6 
REMARK    3  A    between atoms: N16_20  and  C15_8 
REMARK    4  A    between atoms: C1_12  and  C6_15 
ROOT
ATOM      1  C3  MOL d           4.514  12.257  45.175  0.00  0.00     0.135 A 
ATOM      2  C5  MOL d           3.629  12.826  47.496  0.00  0.00     0.056 C 
ATOM      3  C   MOL d           3.280  14.208  45.459  0.00  0.00     0.137 A 
ATOM      4  N   MOL d           3.397  14.521  44.178  0.00  0.00    -0.220 NA
ATOM      5  C1  MOL d           4.083  13.676  43.402  0.00  0.00     0.134 A 
ATOM      6  N2  MOL d           4.638  12.549  43.868  0.00  0.00    -0.215 NA
ATOM      7  C4  MOL d           3.823  13.088  46.035  0.00  0.00     0.024 A 
ATOM      8 CL   MOL d           2.375  15.363  46.361  0.00  0.00    -0.062 Cl
ENDROOT
BRANCH   1   9
ATOM      9  N16 MOL d           5.094  11.093  45.726  0.00  0.00    -0.369 N 
ATOM     10  H17 MOL d           5.023  10.838  46.721  0.00  0.00     0.161 HD
BRANCH   9  11
ATOM     11  C15 MOL d           5.798  10.297  44.744  0.00  0.00     0.169 C 
BRANCH  11  12
ATOM     12  C12 MOL d           7.168  10.740  44.412  0.00  0.00     0.026 A 
ATOM     13  C11 MOL d           8.110  10.096  43.645  0.00  0.00     0.046 A 
ATOM     14  N10 MOL d           9.292  10.776  43.542  0.00  0.00    -0.250 NA
ATOM     15  C14 MOL d           7.991   8.794  42.945  0.00  0.00     0.071 C 
ATOM     16  C9  MOL d           9.279  11.907  44.199  0.00  0.00     0.072 A 
ATOM     17  C13 MOL d          10.418  12.846  44.250  0.00  0.00     0.078 C 
ATOM     18  S   MOL d           7.801  12.230  45.003  0.00  0.00    -0.076 SA
ENDBRANCH  11  12
ENDBRANCH   9  11
ENDBRANCH   1   9
BRANCH   5  19
ATOM     19  C6  MOL d           4.221  14.014  41.974  0.00  0.00     0.057 A 
ATOM     20  C7  MOL d           3.123  14.747  41.258  0.00  0.00     0.013 A 
ATOM     21  C8  MOL d           4.419  15.438  41.529  0.00  0.00     0.013 A 
ENDBRANCH   5  19
TORSDOF 4
