REMARK  15 active torsions:
REMARK  status: ('A' for Active; 'I' for Inactive)
REMARK    1  A    between atoms: O13_9  and  C11_1 
REMARK    2  A    between atoms: C21_10  and  O13_9 
REMARK       I    between atoms: N21_20  and  C21_10 
REMARK    3  A    between atoms: C22_11  and  C23_12 
REMARK    4  A    between atoms: C22_11  and  N21_20 
REMARK    5  A    between atoms: C31_21  and  C22_11 
REMARK    6  A    between atoms: C23_12  and  C24_13 
REMARK    7  A    between atoms: C32_22  and  C31_21 
REMARK    8  A    between atoms: C31_21  and  O31_27 
REMARK    9  A    between atoms: N31_30  and  C32_22 
REMARK   10  A    between atoms: C33_23  and  C34_24 
REMARK   11  A    between atoms: N31_30  and  C33_23 
REMARK   12  A    between atoms: N31_30  and  S31_31 
REMARK   13  A    between atoms: S31_31  and  C41_32 
REMARK   14  A    between atoms: C44_35  and  C3_38 
REMARK   15  A    between atoms: C3_38  and  O2_39 
ROOT
ATOM      1  C22 GRL d          14.022  20.158  17.149  0.00  0.00     0.121 C 
ENDROOT
BRANCH   1   2
ATOM      2  C23 GRL d          14.801  19.640  15.892  0.00  0.00     0.066 C 
BRANCH   2   3
ATOM      3  C24 GRL d          15.182  20.831  15.026  0.00  0.00    -0.056 A 
ATOM      4  C25 GRL d          14.190  21.544  14.328  0.00  0.00     0.007 A 
ATOM      5  C26 GRL d          14.527  22.662  13.512  0.00  0.00     0.001 A 
ATOM      6  C27 GRL d          15.881  23.086  13.383  0.00  0.00     0.000 A 
ATOM      7  C28 GRL d          16.858  22.366  14.085  0.00  0.00     0.001 A 
ATOM      8  C29 GRL d          16.519  21.256  14.894  0.00  0.00     0.007 A 
ENDBRANCH   2   3
ENDBRANCH   1   2
BRANCH   1   9
ATOM      9  N21 GRL d          14.960  21.049  17.885  0.00  0.00    -0.329 N 
ATOM     10  C21 GRL d          14.538  22.258  18.317  0.00  0.00     0.361 C 
ATOM     11  O21 GRL d          13.436  22.715  18.193  0.00  0.00    -0.238 OA
ATOM     12  H20 GRL d          15.899  20.754  18.059  0.00  0.00     0.165 HD
BRANCH  10  13
ATOM     13  O13 GRL d          15.544  22.943  18.941  0.00  0.00    -0.299 OA
BRANCH  13  14
ATOM     14  C11 GRL d          15.286  24.343  19.237  0.00  0.00     0.136 C 
ATOM     15  C12 GRL d          15.340  25.173  17.946  0.00  0.00     0.040 C 
ATOM     16  C15 GRL d          16.790  25.689  17.787  0.00  0.00     0.019 C 
ATOM     17  C2  GRL d          17.626  25.077  16.630  0.00  0.00     0.033 C 
ATOM     18  C1  GRL d          17.588  25.198  19.037  0.00  0.00     0.128 C 
ATOM     19  C14 GRL d          18.068  23.732  17.227  0.00  0.00     0.168 C 
ATOM     20  O1  GRL d          18.281  23.984  18.605  0.00  0.00    -0.385 OA
ATOM     21  C16 GRL d          16.503  24.813  20.074  0.00  0.00     0.065 C 
ENDBRANCH  13  14
ENDBRANCH  10  13
ENDBRANCH   1   9
BRANCH   1  22
ATOM     22  C31 GRL d          13.662  19.024  18.136  0.00  0.00     0.160 C 
BRANCH  22  23
ATOM     23  C32 GRL d          12.581  18.067  17.563  0.00  0.00     0.169 C 
BRANCH  23  24
ATOM     24  N31 GRL d          11.283  18.720  17.574  0.00  0.00    -0.304 N 
BRANCH  24  25
ATOM     25  C33 GRL d          10.302  18.461  18.642  0.00  0.00     0.139 C 
BRANCH  25  26
ATOM     26  C34 GRL d          10.655  19.130  20.003  0.00  0.00    -0.004 C 
ATOM     27  C35 GRL d           9.613  18.588  21.013  0.00  0.00     0.011 C 
ATOM     28  C36 GRL d          10.567  20.669  19.889  0.00  0.00     0.011 C 
ENDBRANCH  25  26
ENDBRANCH  24  25
BRANCH  24  29
ATOM     29  S31 GRL d          10.633  19.158  16.104  0.00  0.00     0.260 S 
ATOM     30  O32 GRL d          11.738  19.309  15.151  0.00  0.00    -0.200 OA
ATOM     31  O33 GRL d           9.686  20.252  16.336  0.00  0.00    -0.200 OA
BRANCH  29  32
ATOM     32  C41 GRL d           9.614  17.801  15.542  0.00  0.00     0.079 A 
ATOM     33  C42 GRL d           8.234  17.889  15.704  0.00  0.00     0.026 A 
ATOM     34  C43 GRL d           7.447  16.822  15.252  0.00  0.00     0.011 A 
ATOM     35  C44 GRL d           8.070  15.708  14.653  0.00  0.00    -0.035 A 
ATOM     36  C45 GRL d           9.455  15.657  14.507  0.00  0.00     0.011 A 
ATOM     37  C46 GRL d          10.261  16.716  14.955  0.00  0.00     0.026 A 
BRANCH  35  38
ATOM     38  C3  GRL d           7.190  14.576  14.176  0.00  0.00     0.202 C 
BRANCH  38  39
ATOM     39  O2  GRL d           7.133  13.588  15.182  0.00  0.00    -0.396 OA
ATOM     40  H40 GRL d           6.581  12.872  14.890  0.00  0.00     0.209 HD
ENDBRANCH  38  39
ENDBRANCH  35  38
ENDBRANCH  29  32
ENDBRANCH  24  29
ENDBRANCH  23  24
ENDBRANCH  22  23
BRANCH  22  41
ATOM     41  O31 GRL d          14.814  18.204  18.402  0.00  0.00    -0.392 OA
ATOM     42  H33 GRL d          15.511  18.744  18.757  0.00  0.00     0.210 HD
ENDBRANCH  22  41
ENDBRANCH   1  22
TORSDOF 15
