REMARK  3 active torsions:
REMARK  status: ('A' for Active; 'I' for Inactive)
REMARK    1  A    between atoms: C7_8  and  C13_14 
REMARK    2  A    between atoms: C8_9  and  C14_15 
REMARK    3  A    between atoms: C19_20  and  C9_10 
REMARK       I    between atoms: C14_15  and  N23_24 
ROOT
ATOM      1  F   A92 d          28.063   9.052  27.628  0.00  0.00    -0.205 F 
ATOM      2  C2  A92 d          26.482  12.300  27.578  0.00  0.00     0.019 A 
ATOM      3  C4  A92 d          27.341  12.987  28.409  0.00  0.00     0.010 A 
ATOM      4  C6  A92 d          28.646  11.024  28.690  0.00  0.00     0.052 A 
ATOM      5  C7  A92 d          26.691  10.967  27.302  0.00  0.00     0.048 A 
ATOM      6  C9  A92 d          28.425  12.350  28.968  0.00  0.00    -0.025 A 
ATOM      7  C12 A92 d          27.786  10.343  27.863  0.00  0.00     0.131 A 
ENDROOT
BRANCH   5   8
ATOM      8  C13 A92 d          25.769  10.253  26.447  0.00  0.00     0.142 A 
ATOM      9  N20 A92 d          25.034  10.858  25.466  0.00  0.00    -0.227 NA
ATOM     10  C10 A92 d          24.281   9.911  24.834  0.00  0.00     0.101 A 
ATOM     11  C8  A92 d          23.384   9.969  23.794  0.00  0.00     0.062 A 
ATOM     12  C11 A92 d          24.584   8.736  25.485  0.00  0.00     0.064 A 
ATOM     13  C3  A92 d          22.804   8.782  23.414  0.00  0.00     0.020 A 
ATOM     14  C1  A92 d          23.120   7.599  24.044  0.00  0.00     0.003 A 
ATOM     15  C5  A92 d          24.007   7.542  25.095  0.00  0.00     0.032 A 
ATOM     16  N21 A92 d          25.497   8.965  26.476  0.00  0.00    -0.338 N 
ATOM     17  H16 A92 d          25.895   8.266  27.120  0.00  0.00     0.167 HD
BRANCH  11  18
ATOM     18  C14 A92 d          23.015  11.208  23.110  0.00  0.00     0.251 C 
ATOM     19  N23 A92 d          23.707  12.302  23.563  0.00  0.00    -0.366 N 
ATOM     20  H19 A92 d          23.534  13.203  23.165  0.00  0.00     0.159 HD
ATOM     21  H20 A92 d          24.384  12.199  24.291  0.00  0.00     0.159 HD
ATOM     22  O24 A92 d          22.152  11.189  22.241  0.00  0.00    -0.268 OA
ENDBRANCH  11  18
ENDBRANCH   5   8
BRANCH   6  23
ATOM     23  C19 A92 d          29.359  13.051  29.886  0.00  0.00     0.218 C 
ATOM     24  C17 A92 d          28.753  13.068  31.265  0.00  0.00     0.038 C 
ATOM     25  C15 A92 d          29.775  13.603  32.236  0.00  0.00     0.004 C 
ATOM     26  C16 A92 d          30.178  15.001  31.835  0.00  0.00     0.027 C 
ATOM     27  C18 A92 d          30.673  15.021  30.409  0.00  0.00     0.233 C 
ATOM     28  N22 A92 d          29.601  14.468  29.549  0.00  0.00    -0.067 N 
ATOM     29  H17 A92 d          29.880  14.538  28.583  0.00  0.00     0.277 HD
ATOM     30  H18 A92 d          28.753  14.994  29.693  0.00  0.00     0.277 HD
ENDBRANCH   6  23
TORSDOF 3
