REMARK  3 active torsions:
REMARK  status: ('A' for Active; 'I' for Inactive)
REMARK    1  A    between atoms: C1_1  and  C2_2 
REMARK    2  A    between atoms: C2_2  and  C1'_3 
REMARK    3  A    between atoms: C4'_6  and  N4'_7 
ROOT
ATOM      1  C1' AAN d          12.842  36.086  34.954  0.00  0.00    -0.048 A 
ATOM      2  C2' AAN d          13.021  36.671  33.717  0.00  0.00     0.010 A 
ATOM      3  C3' AAN d          11.973  36.526  32.823  0.00  0.00     0.036 A 
ATOM      4  C4' AAN d          10.899  35.731  33.113  0.00  0.00     0.102 A 
ATOM      5  C5' AAN d          10.721  35.052  34.314  0.00  0.00     0.036 A 
ATOM      6  C6' AAN d          11.742  35.289  35.232  0.00  0.00     0.010 A 
ENDROOT
BRANCH   1   7
ATOM      7  C2  AAN d          13.872  36.316  36.035  0.00  0.00     0.151 C 
BRANCH   7   8
ATOM      8  C1  AAN d          13.992  37.804  36.418  0.00  0.00     0.176 C 
ATOM      9  O2  AAN d          13.504  38.761  35.806  0.00  0.00    -0.648 OA
ATOM     10  O1  AAN d          14.601  38.141  37.432  0.00  0.00    -0.648 OA
ENDBRANCH   7   8
ENDBRANCH   1   7
BRANCH   4  11
ATOM     11  N4' AAN d          10.147  35.550  32.348  0.00  0.00    -0.116 N 
ATOM     12  O4' AAN d           9.025  34.728  32.616  0.00  0.00    -0.532 OA
ATOM     13  O3' AAN d          10.489  36.274  31.176  0.00  0.00    -0.532 OA
ENDBRANCH   4  11
TORSDOF 3
