2igv_ligand

Created by X-TOOL on Fri Sep 26 17:34:37 2014
 28 28  0  0  0  0  0  0  0  0999 V2000
   45.6370   17.5020   12.0580  N 0  3  0  4  0  4
   46.6780   16.5900   12.6170  C 0  0  0  2  0  4
   47.8990   17.4170   13.0230  C 0  0  0  1  0  3
   48.2280   18.3890   12.3380  O 0  0  0  1  0  1
   47.1200   15.5670   11.5660  C 0  0  0  3  0  4
   46.0620   14.6820   11.2470  O 0  0  0  2  0  2
   48.5970   17.0210   14.1080  N 0  0  0  1  0  3
   48.3440   15.8990   15.0100  C 0  0  0  2  0  4
   47.3070   16.2380   16.0790  C 0  5  0  1  0  3
   46.7800   17.3540   16.1560  O 0  0  0  1  0  1
   49.7030   15.6790   15.6620  C 0  0  0  3  0  4
   50.3150   17.0620   15.7300  C 0  0  0  3  0  4
   49.7970   17.7830   14.5060  C 0  0  0  3  0  4
   46.9900   15.3800   16.9180  O 0  0  0  1  0  1
   44.8287   16.9637   11.7880  H 0  0  0  1  0  1
   46.0071   17.9800   11.2514  H 0  0  0  1  0  1
   45.3722   18.1782   12.7571  H 0  0  0  1  0  1
   46.2721   16.0654   13.4945  H 0  0  0  1  0  1
   47.9675   14.9877   11.9612  H 0  0  0  1  0  1
   47.4322   16.0984   10.6549  H 0  0  0  1  0  1
   46.3584   14.0580   10.5949  H 0  0  0  1  0  1
   48.0181   15.0103   14.4497  H 0  0  0  1  0  1
   50.3242   15.0079   15.0507  H 0  0  0  1  0  1
   49.5872   15.2545   16.6701  H 0  0  0  1  0  1
   51.4130   17.0000   15.7057  H 0  0  0  1  0  1
   49.9972   17.5803   16.6467  H 0  0  0  1  0  1
   49.5341   18.8229   14.7497  H 0  0  0  1  0  1
   50.5480   17.7733   13.7023  H 0  0  0  1  0  1
  1  2  1  0  0  2
  2  3  1  0  0  2
  2  5  1  0  0  2
  3  4  2  0  0  2
  3  7  1  0  0  2
  5  6  1  0  0  2
  7  8  1  0  0  1
  7 13  1  0  0  1
  8  9  1  0  0  2
  8 11  1  0  0  1
  9 10  2  0  0  2
  9 14  2  0  0  2
 11 12  1  0  0  1
 12 13  1  0  0  1
  1 15  1  0  0  2
  1 16  1  0  0  2
  1 17  1  0  0  2
  2 18  1  0  0  2
  5 19  1  0  0  2
  5 20  1  0  0  2
  6 21  1  0  0  2
  8 22  1  0  0  2
 11 23  1  0  0  2
 11 24  1  0  0  2
 12 25  1  0  0  2
 12 26  1  0  0  2
 13 27  1  0  0  2
 13 28  1  0  0  2
M  END
> <MOLECULAR_FORMULA>
C8H14N2O4

> <MOLECULAR_WEIGHT>
202.1

> <NUM_HB_ATOMS>
5  

> <NUM_ROTOR>
2  

> <XLOGP2>
-2.14

$$$$
