REMARK  3 active torsions:
REMARK  status: ('A' for Active; 'I' for Inactive)
REMARK    1  A    between atoms: CAZ_2  and  CAM_5 
REMARK    2  A    between atoms: C6_14  and  NAY_15 
REMARK    3  A    between atoms: NAX_20  and  CAS_21 
ROOT
ATOM      1  CAM 0RT d          -7.368   8.350  13.143  0.00  0.00     0.163 C 
ATOM      2  CAT 0RT d          -8.767   8.290  12.853  0.00  0.00    -0.006 A 
ATOM      3  SAR 0RT d          -9.699   6.811  12.999  0.00  0.00    -0.074 SA
ATOM      4  CAG 0RT d          -9.604   9.238  12.311  0.00  0.00     0.033 A 
ATOM      5  C5  0RT d         -10.907   8.911  12.056  0.00  0.00     0.047 A 
ATOM      6  C4  0RT d         -11.054   7.513  12.384  0.00  0.00     0.113 A 
ATOM      7  N3  0RT d         -12.220   6.906  12.192  0.00  0.00    -0.234 NA
ATOM      8  C2  0RT d         -13.206   7.545  11.654  0.00  0.00     0.236 A 
ATOM      9  N1  0RT d         -13.180   8.885  11.314  0.00  0.00    -0.224 NA
ATOM     10  C6  0RT d         -12.066   9.538  11.587  0.00  0.00     0.140 A 
ENDROOT
BRANCH  10  11
ATOM     11  NAY 0RT d         -12.076  10.906  11.293  0.00  0.00    -0.362 N 
ATOM     12  CAK 0RT d         -11.212  11.884  11.944  0.00  0.00     0.144 C 
ATOM     13  CAI 0RT d         -12.088  12.919  12.608  0.00  0.00     0.145 C 
ATOM     14  NAX 0RT d         -12.905  13.635  11.636  0.00  0.00    -0.359 N 
ATOM     15  CAH 0RT d         -13.178  12.896  10.284  0.00  0.00     0.145 C 
ATOM     16  CAJ 0RT d         -13.288  11.421  10.625  0.00  0.00     0.144 C 
BRANCH  14  17
ATOM     17  CAS 0RT d         -13.620  14.732  11.952  0.00  0.00     0.139 C 
ATOM     18  SAQ 0RT d         -13.521  15.368  13.507  0.00  0.00    -0.083 SA
ATOM     19  CBA 0RT d         -14.317  16.882  13.035  0.00  0.00     0.024 C 
ATOM     20  CAA 0RT d         -15.405  17.150  14.043  0.00  0.00     0.029 C 
ATOM     21  CAB 0RT d         -13.281  17.919  12.862  0.00  0.00     0.029 C 
ATOM     22  CAL 0RT d         -15.039  16.566  11.747  0.00  0.00     0.142 C 
ATOM     23  NAN 0RT d         -14.365  15.446  11.126  0.00  0.00    -0.369 N 
ATOM     24  H21 0RT d         -14.458  15.224  10.124  0.00  0.00     0.161 HD
ENDBRANCH  14  17
ENDBRANCH  10  11
BRANCH   1  25
ATOM     25  CAZ 0RT d          -6.309   7.810  12.197  0.00  0.00     0.392 C 
ATOM     26  FAC 0RT d          -6.725   6.474  11.936  0.00  0.00    -0.171 F 
ATOM     27  FAD 0RT d          -6.678   8.286  10.912  0.00  0.00    -0.171 F 
ATOM     28  FAE 0RT d          -5.169   7.884  12.371  0.00  0.00    -0.171 F 
ENDBRANCH   1  25
TORSDOF 3
