REMARK  4 active torsions:
REMARK  status: ('A' for Active; 'I' for Inactive)
REMARK    1  A    between atoms: C1_1  and  C2_4 
REMARK    2  A    between atoms: C2_4  and  O2_5 
REMARK    3  A    between atoms: C2_4  and  C3_6 
REMARK    4  A    between atoms: C3_6  and  C4_7 
ROOT
ATOM      1  C2  LMR d         -61.638  27.225  18.980  0.00  0.00     0.228 C 
ENDROOT
BRANCH   1   2
ATOM      2  C1  LMR d         -60.161  27.027  18.984  0.00  0.00     0.203 C 
ATOM      3  O1A LMR d         -59.413  28.013  18.757  0.00  0.00    -0.646 OA
ATOM      4  O1B LMR d         -59.691  25.887  19.248  0.00  0.00    -0.646 OA
ENDBRANCH   1   2
BRANCH   1   5
ATOM      5  O2  LMR d         -61.878  28.570  19.334  0.00  0.00    -0.384 OA
ATOM      6  H2  LMR d         -61.461  29.142  18.700  0.00  0.00     0.210 HD
ENDBRANCH   1   5
BRANCH   1   7
ATOM      7  C3  LMR d         -62.205  26.916  17.599  0.00  0.00     0.156 C 
BRANCH   7   8
ATOM      8  C4  LMR d         -63.690  27.177  17.590  0.00  0.00     0.175 C 
ATOM      9  O4A LMR d         -64.208  27.876  16.690  0.00  0.00    -0.648 OA
ATOM     10  O4B LMR d         -64.424  26.699  18.484  0.00  0.00    -0.648 OA
ENDBRANCH   7   8
ENDBRANCH   1   7
TORSDOF 4
