4pyy_ligand

Created by X-TOOL on Sun Nov 13 14:28:23 2016
 51 52  0  0  0  0  0  0  0  0999 V2000
   14.4120    4.9170   14.1800  F 0  0  0  1  0  1
   15.7170    5.0040   14.3980  C 0  0  0  1  0  3
   16.3200    4.0990   15.2800  C 0  0  0  1  0  3
   15.4500    2.8880   16.2730  S 0  0  0  1  0  4
   13.9140    3.0420   16.3150  O 0  0  0  1  0  1
   15.8400    1.2860   15.8370  N 0  0  0  3  0  3
   16.0160    3.1260   17.6450  O 0  0  0  1  0  1
   17.6800    4.1950   15.4560  C 0  0  0  1  0  3
   18.3170    3.3030   16.2420  F 0  0  0  1  0  1
   18.4380    5.1390   14.7910  C 0  0  0  1  0  3
   19.7860    5.1750   15.0240  F 0  0  0  1  0  1
   16.4530    5.9640   13.6980  C 0  0  0  1  0  3
   17.8430    6.0330   13.9010  C 0  0  0  1  0  3
   19.0150    7.1760   13.1430  S 0  0  0  1  0  4
   19.5210    8.0660   14.2680  O 0  0  0  1  0  1
   18.2570    8.1130   12.2040  O 0  0  0  1  0  1
   20.3090    6.3270   12.2030  C 0  0  0  3  0  4
   19.6920    5.5690   10.9980  C 0  0  0  3  0  4
   18.3360    5.1870   11.1180  O 0  0  0  2  0  2
   15.7360    6.8180   12.7850  N 0  0  0  2  0  3
   14.6930    7.6650   13.2540  C 0  0  0  2  0  4
   14.9830    8.1240   14.6810  C 0  0  0  3  0  4
   16.2290    9.0130   14.8140  C 0  0  0  3  0  4
   15.9460   10.4770   14.4380  C 0  0  0  3  0  4
   14.5040   10.9740   14.3870  C 0  0  0  3  0  4
   13.9480   11.0360   12.9750  C 0  0  0  3  0  4
   13.3450    9.6790   12.5330  C 0  0  0  3  0  4
   14.5200    8.7660   12.2200  C 0  0  0  3  0  4
   15.4173    0.5193   16.3202  H 0  0  0  1  0  1
   16.4914    1.1134   15.0981  H 0  0  0  1  0  1
   20.8217    5.6084   12.8593  H 0  0  0  1  0  1
   21.0335    7.0674   11.8331  H 0  0  0  1  0  1
   20.2835    4.6551   10.8402  H 0  0  0  1  0  1
   19.7787    6.2190   10.1149  H 0  0  0  1  0  1
   17.7995    5.9615   11.2396  H 0  0  0  1  0  1
   15.9806    6.8153   11.7845  H 0  0  0  1  0  1
   13.7565    7.0888   13.2865  H 0  0  0  1  0  1
   15.1269    7.2318   15.3081  H 0  0  0  1  0  1
   14.1136    8.6915   15.0446  H 0  0  0  1  0  1
   17.0141    8.6229   14.1496  H 0  0  0  1  0  1
   16.5792    8.9771   15.8561  H 0  0  0  1  0  1
   16.3761   10.6397   13.4387  H 0  0  0  1  0  1
   16.4747   11.1037   15.1712  H 0  0  0  1  0  1
   14.4651   11.9828   14.8237  H 0  0  0  1  0  1
   13.8771   10.2928   14.9811  H 0  0  0  1  0  1
   14.7602   11.3064   12.2842  H 0  0  0  1  0  1
   13.1619   11.8045   12.9354  H 0  0  0  1  0  1
   12.7200    9.8143   11.6380  H 0  0  0  1  0  1
   12.7369    9.2513   13.3437  H 0  0  0  1  0  1
   14.3547    8.3031   11.2360  H 0  0  0  1  0  1
   15.4385    9.3705   12.1912  H 0  0  0  1  0  1
  1  2  1  0  0  2
  2  3  4  0  0  1
  2 12  4  0  0  1
  3  4  1  0  0  2
  3  8  4  0  0  1
  4  5  2  0  0  2
  4  6  1  0  0  2
  4  7  2  0  0  2
  8  9  1  0  0  2
  8 10  4  0  0  1
 10 11  1  0  0  2
 10 13  4  0  0  1
 12 13  4  0  0  1
 12 20  1  0  0  2
 13 14  1  0  0  2
 14 15  2  0  0  2
 14 16  2  0  0  2
 14 17  1  0  0  2
 17 18  1  0  0  2
 18 19  1  0  0  2
 20 21  1  0  0  2
 21 22  1  0  0  1
 21 28  1  0  0  1
 22 23  1  0  0  1
 23 24  1  0  0  1
 24 25  1  0  0  1
 25 26  1  0  0  1
 26 27  1  0  0  1
 27 28  1  0  0  1
  6 29  1  0  0  2
  6 30  1  0  0  2
 17 31  1  0  0  2
 17 32  1  0  0  2
 18 33  1  0  0  2
 18 34  1  0  0  2
 19 35  1  0  0  2
 20 36  1  0  0  2
 21 37  1  0  0  2
 22 38  1  0  0  2
 22 39  1  0  0  2
 23 40  1  0  0  2
 23 41  1  0  0  2
 24 42  1  0  0  2
 24 43  1  0  0  2
 25 44  1  0  0  2
 25 45  1  0  0  2
 26 46  1  0  0  2
 26 47  1  0  0  2
 27 48  1  0  0  2
 27 49  1  0  0  2
 28 50  1  0  0  2
 28 51  1  0  0  2
M  END
> <MOLECULAR_FORMULA>
C16H23N2O5S2F3

> <MOLECULAR_WEIGHT>
444.3

> <NUM_HB_ATOMS>
7  

> <NUM_ROTOR>
5  

> <XLOGP2>
2.96 

$$$$
