REMARK  5 active torsions:
REMARK  status: ('A' for Active; 'I' for Inactive)
REMARK    1  A    between atoms: N15_20  and  C7_2 
REMARK    2  A    between atoms: C21_5  and  O20_22 
REMARK    3  A    between atoms: C2_12  and  O13_11 
REMARK    4  A    between atoms: C1_13  and  O11_14 
REMARK    5  A    between atoms: O20_22  and  C17_21 
ROOT
ATOM      1  C18 PFH d           9.689  21.805  45.675  0.00  0.00     0.048 C 
ATOM      2  C16 PFH d          11.276  20.705  44.144  0.00  0.00     0.129 C 
ATOM      3  C19 PFH d          10.461  20.689  46.412  0.00  0.00     0.099 C 
ATOM      4  N15 PFH d          10.992  19.848  45.313  0.00  0.00    -0.264 NA
ATOM      5  C17 PFH d          10.344  21.962  44.271  0.00  0.00     0.143 C 
ENDROOT
BRANCH   4   6
ATOM      6  C7  PFH d          11.963  18.934  45.682  0.00  0.00     0.119 A 
ATOM      7  C6  PFH d          12.508  17.945  44.774  0.00  0.00     0.036 A 
ATOM      8  C3  PFH d          12.171  17.815  43.397  0.00  0.00     0.057 A 
ATOM      9  C5  PFH d          13.446  17.031  45.318  0.00  0.00     0.074 A 
ATOM     10  C2  PFH d          12.736  16.847  42.588  0.00  0.00     0.102 A 
ATOM     11  C1  PFH d          13.681  15.958  43.156  0.00  0.00     0.103 A 
ATOM     12  C4  PFH d          14.030  16.049  44.500  0.00  0.00     0.072 A 
ATOM     13  N10 PFH d          13.772  17.117  46.611  0.00  0.00    -0.241 NA
ATOM     14  C9  PFH d          13.243  18.035  47.394  0.00  0.00     0.235 A 
ATOM     15  N8  PFH d          12.359  18.922  46.960  0.00  0.00    -0.229 NA
BRANCH  10  16
ATOM     16  O13 PFH d          12.491  16.652  41.222  0.00  0.00    -0.353 OA
ATOM     17  C14 PFH d          11.469  17.412  40.538  0.00  0.00     0.210 C 
ENDBRANCH  10  16
BRANCH  11  18
ATOM     18  O11 PFH d          14.179  15.033  42.296  0.00  0.00    -0.353 OA
ATOM     19  C12 PFH d          15.352  14.372  42.720  0.00  0.00     0.210 C 
ENDBRANCH  11  18
ENDBRANCH   4   6
BRANCH   5  20
ATOM     20  O20 PFH d          11.104  23.195  44.164  0.00  0.00    -0.345 OA
BRANCH  20  21
ATOM     21  C21 PFH d          11.652  23.401  42.909  0.00  0.00     0.070 A 
ATOM     22  C22 PFH d          12.478  24.529  42.751  0.00  0.00     0.037 A 
ATOM     23  C23 PFH d          13.071  24.806  41.544  0.00  0.00     0.015 A 
ATOM     24  C26 PFH d          12.874  23.974  40.407  0.00  0.00    -0.026 A 
ATOM     25  C27 PFH d          13.456  24.252  39.157  0.00  0.00     0.012 A 
ATOM     26  C25 PFH d          12.041  22.821  40.549  0.00  0.00    -0.023 A 
ATOM     27  C28 PFH d          13.192  23.385  38.124  0.00  0.00     0.001 A 
ATOM     28  C29 PFH d          12.365  22.244  38.266  0.00  0.00     0.001 A 
ATOM     29  C30 PFH d          11.803  21.957  39.460  0.00  0.00     0.012 A 
ATOM     30  C24 PFH d          11.445  22.570  41.803  0.00  0.00     0.049 A 
ENDBRANCH  20  21
ENDBRANCH   5  20
TORSDOF 5
