REMARK  14 active torsions:
REMARK  status: ('A' for Active; 'I' for Inactive)
REMARK    1  A    between atoms: C2_2  and  N1_1 
REMARK    2  A    between atoms: S8_8  and  C5_5 
REMARK    3  A    between atoms: N11_11  and  S8_8 
REMARK    4  A    between atoms: N11_11  and  C12_12 
REMARK    5  A    between atoms: C16_16  and  N11_11 
REMARK    6  A    between atoms: C12_12  and  C13_13 
REMARK    7  A    between atoms: C17_17  and  C16_16 
REMARK    8  A    between atoms: C17_17  and  O18_18 
REMARK    9  A    between atoms: C19_19  and  C17_17 
REMARK   10  A    between atoms: C19_19  and  N20_20 
REMARK   11  A    between atoms: C32_32  and  C19_19 
REMARK       I    between atoms: N20_20  and  C21_21 
REMARK   12  A    between atoms: C21_21  and  O23_23 
REMARK   13  A    between atoms: O23_23  and  C24_24 
REMARK   14  A    between atoms: C38_38  and  C32_32 
ROOT
ATOM      1  C17 MOL d          15.409  24.082  18.009  0.00  0.00     0.155 C 
ENDROOT
BRANCH   1   2
ATOM      2  C16 MOL d          16.561  25.032  17.518  0.00  0.00     0.141 C 
BRANCH   2   3
ATOM      3  N11 MOL d          17.820  24.171  17.490  0.00  0.00    -0.204 NA
BRANCH   3   4
ATOM      4  S8  MOL d          18.408  23.846  15.812  0.00  0.00     0.243 S 
ATOM      5  O9  MOL d          17.219  23.522  14.885  0.00  0.00    -0.206 OA
ATOM      6  O10 MOL d          19.476  22.693  15.963  0.00  0.00    -0.206 OA
BRANCH   4   7
ATOM      7  C5  MOL d          19.307  25.353  15.283  0.00  0.00     0.074 A 
ATOM      8  C4  MOL d          18.575  26.290  14.549  0.00  0.00     0.027 A 
ATOM      9  C3  MOL d          19.220  27.451  14.128  0.00  0.00     0.030 A 
ATOM     10  C2  MOL d          20.562  27.646  14.446  0.00  0.00     0.025 A 
ATOM     11  C7  MOL d          21.292  26.699  15.185  0.00  0.00     0.030 A 
ATOM     12  C6  MOL d          20.658  25.515  15.622  0.00  0.00     0.027 A 
BRANCH  10  13
ATOM     13  N1  MOL d          21.143  28.798  14.010  0.00  0.00    -0.399 N 
ATOM     14  H1  MOL d          20.592  29.480  13.470  0.00  0.00     0.156 HD
ATOM     15  H2  MOL d          22.133  28.987  14.220  0.00  0.00     0.156 HD
ENDBRANCH  10  13
ENDBRANCH   4   7
ENDBRANCH   3   4
BRANCH   3  16
ATOM     16  C12 MOL d          18.842  24.572  18.506  0.00  0.00     0.111 C 
BRANCH  16  17
ATOM     17  C13 MOL d          18.532  23.958  19.897  0.00  0.00    -0.009 C 
ATOM     18  C14 MOL d          18.317  22.468  19.697  0.00  0.00     0.011 C 
ATOM     19  C15 MOL d          19.734  24.206  20.803  0.00  0.00     0.011 C 
ENDBRANCH  16  17
ENDBRANCH   3  16
ENDBRANCH   2   3
ENDBRANCH   1   2
BRANCH   1  20
ATOM     20  O18 MOL d          14.284  24.875  18.343  0.00  0.00    -0.392 OA
ATOM     21  H19 MOL d          13.579  24.313  18.642  0.00  0.00     0.210 HD
ENDBRANCH   1  20
BRANCH   1  22
ATOM     22  C19 MOL d          15.061  22.943  17.010  0.00  0.00     0.120 C 
BRANCH  22  23
ATOM     23  N20 MOL d          14.147  22.038  17.666  0.00  0.00    -0.329 N 
ATOM     24  C21 MOL d          14.461  20.788  18.062  0.00  0.00     0.361 C 
ATOM     25  O22 MOL d          15.572  20.209  17.785  0.00  0.00    -0.238 OA
ATOM     26  H21 MOL d          13.216  22.361  17.839  0.00  0.00     0.165 HD
BRANCH  24  27
ATOM     27  O23 MOL d          13.409  20.196  18.820  0.00  0.00    -0.296 OA
BRANCH  27  28
ATOM     28  C24 MOL d          13.514  18.741  19.015  0.00  0.00     0.166 C 
ATOM     29  C25 MOL d          12.839  18.392  20.362  0.00  0.00     0.204 C 
ATOM     30  O26 MOL d          11.410  18.626  20.159  0.00  0.00    -0.358 OA
ATOM     31  C27 MOL d          11.195  18.208  18.822  0.00  0.00     0.266 C 
ATOM     32  O28 MOL d          10.277  19.003  18.095  0.00  0.00    -0.361 OA
ATOM     33  C31 MOL d          12.478  18.044  18.115  0.00  0.00     0.075 C 
ATOM     34  C29 MOL d          11.126  19.588  17.083  0.00  0.00     0.171 C 
ATOM     35  C30 MOL d          12.214  18.570  16.726  0.00  0.00     0.038 C 
ENDBRANCH  27  28
ENDBRANCH  24  27
ENDBRANCH  22  23
BRANCH  22  36
ATOM     36  C32 MOL d          14.343  23.339  15.696  0.00  0.00     0.066 C 
BRANCH  36  37
ATOM     37  C38 MOL d          13.904  22.159  14.830  0.00  0.00    -0.056 A 
ATOM     38  C33 MOL d          12.547  21.839  14.686  0.00  0.00     0.007 A 
ATOM     39  C34 MOL d          12.148  20.757  13.891  0.00  0.00     0.001 A 
ATOM     40  C35 MOL d          13.125  19.989  13.236  0.00  0.00     0.000 A 
ATOM     41  C36 MOL d          14.482  20.308  13.380  0.00  0.00     0.001 A 
ATOM     42  C37 MOL d          14.881  21.394  14.177  0.00  0.00     0.007 A 
ENDBRANCH  36  37
ENDBRANCH  22  36
ENDBRANCH   1  22
TORSDOF 14
