REMARK  6 active torsions:
REMARK  status: ('A' for Active; 'I' for Inactive)
REMARK    1  A    between atoms: N_1  and  CA_2 
REMARK    2  A    between atoms: CA_2  and  C_3 
REMARK    3  A    between atoms: CA_2  and  CB_5 
REMARK    4  A    between atoms: CB_5  and  CG_6 
REMARK    5  A    between atoms: CG_6  and  CD_7 
REMARK    6  A    between atoms: CD_7  and  NE_8 
REMARK       I    between atoms: NE_8  and  CZ_9 
REMARK       I    between atoms: CZ_9  and  NH1_10 
ROOT
ATOM      1  CG  ARG d           2.113  -0.827  13.540  0.00  0.00     0.023 C 
ENDROOT
BRANCH   1   2
ATOM      2  CB  ARG d           3.034  -0.209  14.591  0.00  0.00     0.045 C 
BRANCH   2   3
ATOM      3  CA  ARG d           3.883   0.922  14.000  0.00  0.00     0.283 C 
BRANCH   3   4
ATOM      4  N   ARG d           3.030   1.949  13.274  0.00  0.00    -0.065 N 
ATOM      5  H1  ARG d           2.347   2.329  13.911  0.00  0.00     0.275 HD
ATOM      6  H2  ARG d           2.559   1.508  12.500  0.00  0.00     0.275 HD
ATOM      7  H3  ARG d           3.618   2.692  12.930  0.00  0.00     0.275 HD
ENDBRANCH   3   4
BRANCH   3   8
ATOM      8  C   ARG d           4.923   0.331  13.067  0.00  0.00     0.204 C 
ATOM      9  O   ARG d           4.905   0.529  11.831  0.00  0.00    -0.646 OA
ATOM     10  OXT ARG d           5.845  -0.326  13.555  0.00  0.00    -0.646 OA
ENDBRANCH   3   8
ENDBRANCH   2   3
ENDBRANCH   1   2
BRANCH   1  11
ATOM     11  CD  ARG d           1.575  -2.192  13.966  0.00  0.00     0.138 C 
BRANCH  11  12
ATOM     12  NE  ARG d           0.441  -2.564  13.107  0.00  0.00    -0.227 N 
ATOM     13  CZ  ARG d          -0.252  -3.699  13.224  0.00  0.00     0.665 C 
ATOM     14  NH1 ARG d           0.068  -4.582  14.170  0.00  0.00    -0.235 N 
ATOM     15  NH2 ARG d          -1.282  -3.949  12.412  0.00  0.00    -0.235 N 
ATOM     16  H12 ARG d          -0.467  -5.457  14.260  0.00  0.00     0.174 HD
ATOM     17  H13 ARG d           0.851  -4.389  14.811  0.00  0.00     0.174 HD
ATOM     18  H14 ARG d          -1.536  -3.272  11.678  0.00  0.00     0.174 HD
ATOM     19  H15 ARG d          -1.823  -4.819  12.519  0.00  0.00     0.174 HD
ATOM     20  H11 ARG d           0.163  -1.905  12.366  0.00  0.00     0.177 HD
ENDBRANCH  11  12
ENDBRANCH   1  11
TORSDOF 6
