REMARK  13 active torsions:
REMARK  status: ('A' for Active; 'I' for Inactive)
REMARK    1  A    between atoms: C1_10  and  P1_6 
REMARK    2  A    between atoms: P1_6  and  O1_7 
REMARK    3  A    between atoms: O1_7  and  C10_21 
REMARK    4  A    between atoms: C2_11  and  C1_10 
REMARK    5  A    between atoms: N1_17  and  C5_15 
REMARK       I    between atoms: C8_18  and  N1_17 
REMARK    6  A    between atoms: C8_18  and  C9_20 
REMARK    7  A    between atoms: C10_21  and  C15_29 
REMARK    8  A    between atoms: C10_21  and  C11_22 
REMARK    9  A    between atoms: C11_22  and  N2_25 
REMARK   10  A    between atoms: C11_22  and  C12_23 
REMARK   11  A    between atoms: C12_23  and  O5_24 
REMARK       I    between atoms: N2_25  and  C13_26 
REMARK   12  A    between atoms: C13_26  and  C14_28 
REMARK   13  A    between atoms: C18_33  and  N3_35 
ROOT
ATOM      1  C10 TAA d          57.825  31.185  29.034  0.00  0.00     0.190 C 
ENDROOT
BRANCH   1   2
ATOM      2  O1  TAA d          59.136  31.100  29.678  0.00  0.00    -0.299 OA
BRANCH   2   3
ATOM      3  P1  TAA d          59.671  29.693  30.239  0.00  0.00     0.254 P 
ATOM      4  O3  TAA d          58.837  29.304  31.427  0.00  0.00    -0.646 OA
ATOM      5  O2  TAA d          59.722  28.696  29.191  0.00  0.00    -0.646 OA
BRANCH   3   6
ATOM      6  C1  TAA d          61.277  30.109  30.677  0.00  0.00     0.174 C 
BRANCH   6   7
ATOM      7  C2  TAA d          62.041  29.030  31.356  0.00  0.00    -0.046 A 
ATOM      8  C7  TAA d          63.057  28.301  30.711  0.00  0.00     0.010 A 
ATOM      9  C6  TAA d          63.727  27.301  31.453  0.00  0.00     0.030 A 
ATOM     10  C5  TAA d          63.369  27.057  32.811  0.00  0.00     0.035 A 
ATOM     11  C4  TAA d          62.342  27.803  33.396  0.00  0.00     0.030 A 
ATOM     12  C3  TAA d          61.703  28.766  32.678  0.00  0.00     0.010 A 
BRANCH  10  13
ATOM     13  N1  TAA d          64.125  26.140  33.720  0.00  0.00    -0.320 N 
ATOM     14  C8  TAA d          64.608  24.973  33.298  0.00  0.00     0.330 C 
ATOM     15  O4  TAA d          64.492  24.490  32.167  0.00  0.00    -0.263 OA
ATOM     16  H7  TAA d          64.272  26.411  34.671  0.00  0.00     0.169 HD
BRANCH  14  17
ATOM     17  C9  TAA d          65.489  24.277  34.379  0.00  0.00     0.472 C 
ATOM     18  F1  TAA d          65.033  24.575  35.688  0.00  0.00    -0.162 F 
ATOM     19  F2  TAA d          66.784  24.768  34.237  0.00  0.00    -0.162 F 
ATOM     20  F3  TAA d          65.505  22.931  34.126  0.00  0.00    -0.162 F 
ENDBRANCH  14  17
ENDBRANCH  10  13
ENDBRANCH   6   7
ENDBRANCH   3   6
ENDBRANCH   2   3
ENDBRANCH   1   2
BRANCH   1  21
ATOM     21  C15 TAA d          57.847  31.096  27.544  0.00  0.00    -0.027 A 
ATOM     22  C20 TAA d          58.901  31.723  26.886  0.00  0.00     0.012 A 
ATOM     23  C19 TAA d          58.985  31.668  25.520  0.00  0.00     0.037 A 
ATOM     24  C18 TAA d          58.021  30.990  24.828  0.00  0.00     0.102 A 
ATOM     25  C17 TAA d          56.957  30.360  25.500  0.00  0.00     0.037 A 
ATOM     26  C16 TAA d          56.880  30.420  26.853  0.00  0.00     0.012 A 
BRANCH  24  27
ATOM     27  N3  TAA d          58.110  30.953  23.403  0.00  0.00    -0.116 N 
ATOM     28  O8  TAA d          57.377  30.179  22.757  0.00  0.00    -0.532 OA
ATOM     29  O7  TAA d          58.913  31.722  22.855  0.00  0.00    -0.532 OA
ENDBRANCH  24  27
ENDBRANCH   1  21
BRANCH   1  30
ATOM     30  C11 TAA d          57.185  32.417  29.572  0.00  0.00     0.142 C 
BRANCH  30  31
ATOM     31  N2  TAA d          57.986  33.589  29.407  0.00  0.00    -0.349 N 
ATOM     32  C13 TAA d          57.518  34.754  29.035  0.00  0.00     0.251 C 
ATOM     33  O6  TAA d          56.336  34.973  28.782  0.00  0.00    -0.271 OA
ATOM     34  H13 TAA d          58.967  33.515  29.587  0.00  0.00     0.163 HD
BRANCH  32  35
ATOM     35  C14 TAA d          58.569  35.812  28.960  0.00  0.00     0.269 C 
ATOM     36 CL2  TAA d          57.937  37.269  29.706  0.00  0.00    -0.098 Cl
ATOM     37 CL1  TAA d          59.039  36.105  27.263  0.00  0.00    -0.098 Cl
ENDBRANCH  32  35
ENDBRANCH  30  31
BRANCH  30  38
ATOM     38  C12 TAA d          56.694  32.190  31.092  0.00  0.00     0.192 C 
BRANCH  38  39
ATOM     39  O5  TAA d          56.266  33.418  31.693  0.00  0.00    -0.399 OA
ATOM     40  H12 TAA d          55.984  33.251  32.585  0.00  0.00     0.209 HD
ENDBRANCH  38  39
ENDBRANCH  30  38
ENDBRANCH   1  30
TORSDOF 13
