REMARK  6 active torsions:
REMARK  status: ('A' for Active; 'I' for Inactive)
REMARK    1  A    between atoms: C3_1  and  S1_10 
REMARK    2  A    between atoms: N8_18  and  C9_2 
REMARK    3  A    between atoms: C9_2  and  C10_3 
REMARK    4  A    between atoms: S1_10  and  N21_9 
REMARK    5  A    between atoms: C6_13  and  S7_15 
REMARK    6  A    between atoms: S7_15  and  N8_18 
ROOT
ATOM      1  C3  TPS d          -5.272   2.093  15.830  0.00  0.00     0.121 A 
ATOM      2  C4  TPS d          -4.040   2.104  15.252  0.00  0.00     0.035 A 
ATOM      3  C5  TPS d          -3.822   3.265  14.557  0.00  0.00     0.035 A 
ATOM      4  C6  TPS d          -4.886   4.136  14.603  0.00  0.00     0.121 A 
ATOM      5  S2  TPS d          -6.178   3.517  15.516  0.00  0.00    -0.063 SA
ENDROOT
BRANCH   4   6
ATOM      6  S7  TPS d          -5.022   5.698  13.858  0.00  0.00     0.265 S 
ATOM      7  O4B TPS d          -6.308   6.244  14.191  0.00  0.00    -0.200 OA
ATOM      8  O3B TPS d          -4.927   5.499  12.442  0.00  0.00    -0.200 OA
BRANCH   6   9
ATOM      9  N8  TPS d          -3.963   6.596  14.412  0.00  0.00    -0.310 N 
ATOM     10  H10 TPS d          -4.187   7.337  15.045  0.00  0.00     0.172 HD
BRANCH   9  11
ATOM     11  C9  TPS d          -2.588   6.346  13.990  0.00  0.00     0.178 C 
BRANCH  11  12
ATOM     12  C10 TPS d          -2.072   7.696  13.894  0.00  0.00     0.001 A 
ATOM     13  S14 TPS d          -1.413   8.561  15.246  0.00  0.00    -0.105 SA
ATOM     14  C13 TPS d          -1.193   9.956  14.236  0.00  0.00     0.050 A 
ATOM     15  C12 TPS d          -1.614   9.713  12.939  0.00  0.00     0.008 A 
ATOM     16  C11 TPS d          -2.106   8.444  12.733  0.00  0.00     0.017 A 
ENDBRANCH  11  12
ENDBRANCH   9  11
ENDBRANCH   6   9
ENDBRANCH   4   6
BRANCH   1  17
ATOM     17  S1  TPS d          -5.899   0.828  16.815  0.00  0.00     0.263 S 
ATOM     18  O1A TPS d          -5.475   1.074  18.158  0.00  0.00    -0.200 OA
ATOM     19  O2A TPS d          -7.315   0.975  16.744  0.00  0.00    -0.200 OA
BRANCH  17  20
ATOM     20  N21 TPS d          -5.399  -0.472  16.289  0.00  0.00    -0.324 N 
ATOM     21  H6  TPS d          -5.661  -1.327  16.737  0.00  0.00     0.169 HD
ATOM     22  H7  TPS d          -4.801  -0.490  15.488  0.00  0.00     0.169 HD
ENDBRANCH  17  20
ENDBRANCH   1  17
TORSDOF 6
