REMARK  3 active torsions:
REMARK  status: ('A' for Active; 'I' for Inactive)
REMARK    1  A    between atoms: C2'_4  and  C1'_1 
REMARK    2  A    between atoms: C3'_5  and  C2'_4 
REMARK    3  A    between atoms: C3_8  and  C3'_5 
ROOT
ATOM      1  N1  IOP d         -13.385  19.105 -22.772  0.00  0.00    -0.365 N 
ATOM      2  C2  IOP d         -12.218  19.465 -23.356  0.00  0.00     0.096 A 
ATOM      3  C3  IOP d         -12.206  20.846 -23.520  0.00  0.00    -0.030 A 
ATOM      4  C3A IOP d         -13.406  21.307 -23.009  0.00  0.00    -0.002 A 
ATOM      5  C4  IOP d         -13.904  22.602 -22.919  0.00  0.00     0.014 A 
ATOM      6  C5  IOP d         -15.169  22.786 -22.357  0.00  0.00     0.001 A 
ATOM      7  C6  IOP d         -15.913  21.701 -21.886  0.00  0.00     0.002 A 
ATOM      8  C7  IOP d         -15.397  20.408 -21.987  0.00  0.00     0.030 A 
ATOM      9  C7A IOP d         -14.133  20.211 -22.551  0.00  0.00     0.042 A 
ATOM     10  H5  IOP d         -13.660  18.142 -22.534  0.00  0.00     0.165 HD
ENDROOT
BRANCH   3  11
ATOM     11  C3' IOP d         -11.116  21.696 -24.124  0.00  0.00     0.051 C 
BRANCH  11  12
ATOM     12  C2' IOP d         -10.057  20.851 -24.828  0.00  0.00     0.118 C 
BRANCH  12  13
ATOM     13  C1' IOP d          -8.878  21.722 -25.188  0.00  0.00     0.172 C 
ATOM     14  O1  IOP d          -7.791  21.157 -25.401  0.00  0.00    -0.648 OA
ATOM     15  O2  IOP d          -9.011  22.962 -25.264  0.00  0.00    -0.648 OA
ENDBRANCH  12  13
ENDBRANCH  11  12
ENDBRANCH   3  11
TORSDOF 3
