REMARK  22 active torsions:
REMARK  status: ('A' for Active; 'I' for Inactive)
REMARK    1  A    between atoms: C_2  and  O2_3 
REMARK       I    between atoms: C_2  and  N_8 
REMARK    2  A    between atoms: O2_3  and  CT_4 
REMARK    3  A    between atoms: N_8  and  CA_9 
REMARK    4  A    between atoms: CA_9  and  C_10 
REMARK    5  A    between atoms: CA_9  and  CB_12 
REMARK    6  A    between atoms: C_10  and  OS_11 
REMARK    7  A    between atoms: C_10  and  CM_19 
REMARK    8  A    between atoms: CB_12  and  CG_13 
REMARK    9  A    between atoms: CM_19  and  N_20 
REMARK   10  A    between atoms: N_20  and  CA_21 
REMARK   11  A    between atoms: CA_21  and  C_22 
REMARK   12  A    between atoms: CA_21  and  CB_24 
REMARK       I    between atoms: C_22  and  N_31 
REMARK   13  A    between atoms: CB_24  and  CG_25 
REMARK   14  A    between atoms: N_31  and  CA_32 
REMARK   15  A    between atoms: CA_32  and  C_33 
REMARK   16  A    between atoms: CA_32  and  CB_35 
REMARK       I    between atoms: C_33  and  N_40 
REMARK   17  A    between atoms: CB_35  and  CG_36 
REMARK   18  A    between atoms: CG_36  and  CD_37 
REMARK       I    between atoms: CD_37  and  NE2_39 
REMARK   19  A    between atoms: N_40  and  CA_41 
REMARK   20  A    between atoms: CA_41  and  C_42 
REMARK   21  A    between atoms: CA_41  and  CB_44 
REMARK       I    between atoms: C_42  and  N_51 
REMARK   22  A    between atoms: CB_44  and  CG_45 
ROOT
ATOM      1  CA  MOL d          12.032  24.763   4.011  0.00  0.00     0.281 C 
ENDROOT
BRANCH   1   2
ATOM      2  N   MOL d          13.448  24.709   4.356  0.00  0.00    -0.060 N 
ATOM      3  H23 MOL d          13.983  24.879   3.519  0.00  0.00     0.278 HD
ATOM      4  H24 MOL d          13.636  25.436   5.028  0.00  0.00     0.278 HD
BRANCH   2   5
ATOM      5  CM  MOL d          13.877  23.454   4.918  0.00  0.00     0.266 C 
BRANCH   5   6
ATOM      6  C   MOL d          14.700  23.697   6.186  0.00  0.00     0.166 C 
BRANCH   6   7
ATOM      7  CA  MOL d          15.034  22.375   6.879  0.00  0.00     0.121 C 
BRANCH   7   8
ATOM      8  N   MOL d          15.795  21.451   6.017  0.00  0.00    -0.329 N 
ATOM      9  C   MOL d          15.144  20.474   5.304  0.00  0.00     0.361 C 
ATOM     10  O1  MOL d          13.932  20.288   5.349  0.00  0.00    -0.238 OA
ATOM     11  H10 MOL d          16.789  21.536   5.951  0.00  0.00     0.165 HD
BRANCH   9  12
ATOM     12  O2  MOL d          16.062  19.785   4.509  0.00  0.00    -0.294 OA
BRANCH  12  13
ATOM     13  CT  MOL d          15.672  18.860   3.362  0.00  0.00     0.061 C 
ATOM     14  C1  MOL d          16.973  18.324   2.740  0.00  0.00     0.046 C 
ATOM     15  C2  MOL d          14.876  19.664   2.329  0.00  0.00     0.046 C 
ATOM     16  C3  MOL d          14.832  17.702   3.931  0.00  0.00     0.046 C 
ENDBRANCH  12  13
ENDBRANCH   9  12
ENDBRANCH   7   8
BRANCH   7  17
ATOM     17  CB  MOL d          15.798  22.688   8.165  0.00  0.00     0.066 C 
BRANCH  17  18
ATOM     18  CG  MOL d          16.241  21.478   8.903  0.00  0.00    -0.056 A 
ATOM     19  CD1 MOL d          17.495  20.930   8.667  0.00  0.00     0.007 A 
ATOM     20  CE1 MOL d          17.895  19.770   9.313  0.00  0.00     0.001 A 
ATOM     21  CZ  MOL d          17.034  19.147  10.206  0.00  0.00     0.000 A 
ATOM     22  CE2 MOL d          15.779  19.690  10.448  0.00  0.00     0.001 A 
ATOM     23  CD2 MOL d          15.388  20.851   9.801  0.00  0.00     0.007 A 
ENDBRANCH  17  18
ENDBRANCH   7  17
ENDBRANCH   6   7
BRANCH   6  24
ATOM     24  OS  MOL d          15.893  24.361   5.846  0.00  0.00    -0.392 OA
ATOM     25  H13 MOL d          15.685  25.182   5.416  0.00  0.00     0.210 HD
ENDBRANCH   6  24
ENDBRANCH   5   6
ENDBRANCH   2   5
ENDBRANCH   1   2
BRANCH   1  26
ATOM     26  C   MOL d          11.082  24.706   5.198  0.00  0.00     0.249 C 
ATOM     27  O   MOL d          11.098  23.778   6.013  0.00  0.00    -0.271 OA
ATOM     28  N   MOL d          10.239  25.721   5.277  0.00  0.00    -0.346 N 
ATOM     29  H33 MOL d          10.285  26.443   4.586  0.00  0.00     0.163 HD
BRANCH  28  30
ATOM     30  CA  MOL d           9.252  25.822   6.331  0.00  0.00     0.177 C 
BRANCH  30  31
ATOM     31  C   MOL d           8.176  26.793   5.850  0.00  0.00     0.241 C 
ATOM     32  O   MOL d           8.469  27.759   5.131  0.00  0.00    -0.271 OA
ATOM     33  N   MOL d           6.927  26.513   6.211  0.00  0.00    -0.346 N 
ATOM     34  H41 MOL d           6.743  25.690   6.749  0.00  0.00     0.163 HD
BRANCH  33  35
ATOM     35  CA  MOL d           5.824  27.385   5.836  0.00  0.00     0.180 C 
BRANCH  35  36
ATOM     36  C   MOL d           4.763  27.385   6.928  0.00  0.00     0.238 C 
ATOM     37  O   MOL d           4.634  26.420   7.677  0.00  0.00    -0.271 OA
ATOM     38  N   MOL d           4.019  28.479   7.037  0.00  0.00    -0.368 N 
ATOM     39  H50 MOL d           3.307  28.532   7.738  0.00  0.00     0.159 HD
ATOM     40  H51 MOL d           4.170  29.250   6.418  0.00  0.00     0.159 HD
ENDBRANCH  35  36
BRANCH  35  41
ATOM     41  CB  MOL d           5.233  26.955   4.481  0.00  0.00     0.073 C 
BRANCH  41  42
ATOM     42  CG  MOL d           4.586  25.590   4.488  0.00  0.00    -0.056 A 
ATOM     43  CD1 MOL d           3.231  25.446   4.791  0.00  0.00     0.007 A 
ATOM     44  CE1 MOL d           2.620  24.187   4.779  0.00  0.00     0.001 A 
ATOM     45  CZ  MOL d           3.371  23.058   4.461  0.00  0.00     0.000 A 
ATOM     46  CE2 MOL d           4.730  23.188   4.157  0.00  0.00     0.001 A 
ATOM     47  CD2 MOL d           5.328  24.453   4.173  0.00  0.00     0.007 A 
ENDBRANCH  41  42
ENDBRANCH  35  41
ENDBRANCH  33  35
ENDBRANCH  30  31
BRANCH  30  48
ATOM     48  CB  MOL d           9.917  26.321   7.622  0.00  0.00     0.044 C 
BRANCH  48  49
ATOM     49  CG  MOL d           8.979  26.559   8.800  0.00  0.00     0.105 C 
BRANCH  49  50
ATOM     50  CD  MOL d           8.230  27.894   8.711  0.00  0.00     0.215 C 
ATOM     51  OE1 MOL d           8.680  28.835   8.052  0.00  0.00    -0.274 OA
ATOM     52  NE2 MOL d           7.095  27.984   9.395  0.00  0.00    -0.370 N 
ATOM     53  H39 MOL d           6.564  28.831   9.374  0.00  0.00     0.159 HD
ATOM     54  H40 MOL d           6.771  27.204   9.931  0.00  0.00     0.159 HD
ENDBRANCH  49  50
ENDBRANCH  48  49
ENDBRANCH  30  48
ENDBRANCH  28  30
ENDBRANCH   1  26
BRANCH   1  55
ATOM     55  CB  MOL d          11.651  23.654   3.026  0.00  0.00     0.081 C 
BRANCH  55  56
ATOM     56  CG  MOL d          10.200  23.682   2.627  0.00  0.00    -0.056 A 
ATOM     57  CD1 MOL d           9.374  22.584   2.862  0.00  0.00     0.007 A 
ATOM     58  CE1 MOL d           8.020  22.617   2.508  0.00  0.00     0.001 A 
ATOM     59  CZ  MOL d           7.488  23.758   1.912  0.00  0.00     0.000 A 
ATOM     60  CE2 MOL d           8.306  24.859   1.673  0.00  0.00     0.001 A 
ATOM     61  CD2 MOL d           9.654  24.816   2.032  0.00  0.00     0.007 A 
ENDBRANCH  55  56
ENDBRANCH   1  55
TORSDOF 22
