REMARK  7 active torsions:
REMARK  status: ('A' for Active; 'I' for Inactive)
REMARK    1  A    between atoms: C10_1  and  C11_19 
REMARK    2  A    between atoms: furan_4  and  C21_5 
REMARK    3  A    between atoms: N19_25  and  furan_4 
REMARK    4  A    between atoms: C26_8  and  C27_28 
REMARK    5  A    between atoms: C07_16  and  C06_15 
REMARK    6  A    between atoms: C29_29  and  C30_30 
REMARK    7  A    between atoms: N34_34  and  C35_35 
ROOT
ATOM      1  C21 MOL d           8.953  12.562  25.900  0.00  0.00    -0.040 A 
ATOM      2  C22 MOL d           8.271  11.871  24.927  0.00  0.00     0.010 A 
ATOM      3  C24 MOL d           8.416  13.731  26.439  0.00  0.00     0.010 A 
ATOM      4  C26 MOL d           6.483  13.525  25.013  0.00  0.00    -0.007 A 
ATOM      5  C23 MOL d           7.055  12.357  24.490  0.00  0.00     0.014 A 
ATOM      6  C25 MOL d           7.184  14.217  25.996  0.00  0.00     0.014 A 
ENDROOT
BRANCH   1   7
ATOM      7  fur MOL d          10.280  12.023  26.374  0.00  0.00     0.168 C 
BRANCH   7   8
ATOM      8  N19 MOL d          11.311  12.188  25.342  0.00  0.00    -0.343 N 
ATOM      9  C02 MOL d          12.126  11.186  24.912  0.00  0.00     0.114 A 
ATOM     10  S01 MOL d          12.028   9.631  25.499  0.00  0.00    -0.059 SA
ATOM     11  C03 MOL d          13.114  11.433  23.925  0.00  0.00     0.012 A 
ATOM     12  C04 MOL d          13.252  12.704  23.392  0.00  0.00    -0.021 A 
ATOM     13  C16 MOL d          13.965  10.388  23.474  0.00  0.00     0.016 A 
ATOM     14  C17 MOL d          12.399  13.741  23.851  0.00  0.00     0.029 A 
ATOM     15  C05 MOL d          14.232  12.953  22.410  0.00  0.00     0.026 A 
ATOM     16  C18 MOL d          11.452  13.425  24.827  0.00  0.00     0.093 A 
ATOM     17  C06 MOL d          15.060  11.918  21.981  0.00  0.00    -0.001 A 
ATOM     18  C15 MOL d          14.935  10.642  22.510  0.00  0.00     0.015 A 
BRANCH  17  19
ATOM     19  C07 MOL d          16.105  12.199  20.928  0.00  0.00     0.086 A 
ATOM     20  C08 MOL d          17.184  11.390  20.529  0.00  0.00     0.041 A 
ATOM     21  C09 MOL d          17.867  12.137  19.501  0.00  0.00     0.047 A 
ATOM     22  C10 MOL d          17.121  13.321  19.417  0.00  0.00     0.152 A 
ATOM     23  O14 MOL d          16.111  13.304  20.242  0.00  0.00    -0.303 OA
BRANCH  22  24
ATOM     24  C11 MOL d          17.331  14.485  18.527  0.00  0.00     0.234 C 
ATOM     25  O12 MOL d          18.352  14.581  17.801  0.00  0.00    -0.642 OA
ATOM     26  O13 MOL d          16.427  15.352  18.558  0.00  0.00    -0.642 OA
ENDBRANCH  22  24
ENDBRANCH  17  19
ENDBRANCH   7   8
ENDBRANCH   1   7
BRANCH   4  27
ATOM     27  C27 MOL d           5.146  14.061  24.527  0.00  0.00     0.071 A 
ATOM     28  C28 MOL d           4.669  15.403  24.663  0.00  0.00     0.073 A 
ATOM     29  C29 MOL d           3.378  15.417  24.051  0.00  0.00     0.156 A 
ATOM     30  N33 MOL d           3.145  14.193  23.598  0.00  0.00    -0.160 NA
ATOM     31  N34 MOL d           4.171  13.407  23.886  0.00  0.00    -0.233 N 
BRANCH  29  32
ATOM     32  C30 MOL d           2.438  16.580  23.917  0.00  0.00     0.230 C 
ATOM     33  O31 MOL d           1.318  16.395  23.379  0.00  0.00    -0.643 OA
ATOM     34  O32 MOL d           2.754  17.730  24.332  0.00  0.00    -0.643 OA
ENDBRANCH  29  32
BRANCH  31  35
ATOM     35  C35 MOL d           4.230  12.008  23.534  0.00  0.00     0.060 A 
ATOM     36  C36 MOL d           3.699  11.046  24.373  0.00  0.00     0.033 A 
ATOM     37  C37 MOL d           3.785   9.708  24.021  0.00  0.00     0.028 A 
ATOM     38  C38 MOL d           4.407   9.340  22.838  0.00  0.00     0.055 A 
ATOM     39 CL3  MOL d           4.465   7.656  22.473  0.00  0.00    -0.083 Cl
ATOM     40  C40 MOL d           4.959  10.314  22.005  0.00  0.00     0.058 A 
ATOM     41 CL4  MOL d           5.763   9.980  20.510  0.00  0.00    -0.082 Cl
ATOM     42  C42 MOL d           4.853  11.642  22.357  0.00  0.00     0.057 A 
ENDBRANCH  31  35
ENDBRANCH   4  27
TORSDOF 7
