REMARK  9 active torsions:
REMARK  status: ('A' for Active; 'I' for Inactive)
REMARK    1  A    between atoms: C2_2  and  C7_7 
REMARK    2  A    between atoms: C10_10  and  C12_12 
REMARK    3  A    between atoms: C12_12  and  C13_13 
REMARK    4  A    between atoms: C13_13  and  C15_15 
REMARK    5  A    between atoms: C15_15  and  C16_16 
REMARK    6  A    between atoms: C16_16  and  C17_17 
REMARK    7  A    between atoms: C17_17  and  C18_18 
REMARK    8  A    between atoms: C18_18  and  C19_19 
REMARK    9  A    between atoms: C19_19  and  C20_20 
ROOT
ATOM      1  C12 JG1 d          37.970 -41.381   7.106  0.00  0.00     0.203 C 
ATOM      2  O14 JG1 d          37.883 -42.565   7.446  0.00  0.00    -0.288 OA
ENDROOT
BRANCH   1   3
ATOM      3  C10 JG1 d          36.719 -40.527   7.076  0.00  0.00     0.239 A 
ATOM      4  N9  JG1 d          36.606 -39.261   6.673  0.00  0.00    -0.118 NA
ATOM      5  N8  JG1 d          35.427 -38.900   6.857  0.00  0.00    -0.119 NA
ATOM      6  C7  JG1 d          34.727 -39.884   7.447  0.00  0.00     0.221 A 
ATOM      7  O11 JG1 d          35.549 -40.946   7.631  0.00  0.00    -0.265 OA
BRANCH   6   8
ATOM      8  C2  JG1 d          33.395 -39.945   7.862  0.00  0.00     0.111 A 
ATOM      9  N1  JG1 d          32.553 -38.913   7.659  0.00  0.00    -0.257 NA
ATOM     10  C6  JG1 d          31.282 -38.948   8.033  0.00  0.00     0.117 A 
ATOM     11  C5  JG1 d          30.762 -40.065   8.683  0.00  0.00     0.019 A 
ATOM     12  C4  JG1 d          31.614 -41.147   8.928  0.00  0.00     0.004 A 
ATOM     13  C3  JG1 d          32.948 -41.090   8.519  0.00  0.00     0.036 A 
ENDBRANCH   6   8
ENDBRANCH   1   3
BRANCH   1  14
ATOM     14  C13 JG1 d          39.318 -40.748   6.725  0.00  0.00     0.088 C 
BRANCH  14  15
ATOM     15  C15 JG1 d          40.433 -41.767   6.525  0.00  0.00     0.008 C 
BRANCH  15  16
ATOM     16  C16 JG1 d          41.741 -41.035   6.199  0.00  0.00     0.000 C 
BRANCH  16  17
ATOM     17  C17 JG1 d          42.879 -42.010   5.894  0.00  0.00     0.000 C 
BRANCH  17  18
ATOM     18  C18 JG1 d          43.210 -42.979   7.022  0.00  0.00     0.005 C 
BRANCH  18  19
ATOM     19  C19 JG1 d          44.356 -43.887   6.565  0.00  0.00     0.038 C 
BRANCH  19  20
ATOM     20  C20 JG1 d          44.742 -44.910   7.638  0.00  0.00    -0.058 A 
ATOM     21  C21 JG1 d          44.992 -46.228   7.271  0.00  0.00     0.007 A 
ATOM     22  C22 JG1 d          45.348 -47.169   8.233  0.00  0.00     0.001 A 
ATOM     23  C23 JG1 d          45.442 -46.796   9.569  0.00  0.00     0.000 A 
ATOM     24  C24 JG1 d          45.183 -45.481   9.937  0.00  0.00     0.001 A 
ATOM     25  C25 JG1 d          44.837 -44.538   8.972  0.00  0.00     0.007 A 
ENDBRANCH  19  20
ENDBRANCH  18  19
ENDBRANCH  17  18
ENDBRANCH  16  17
ENDBRANCH  15  16
ENDBRANCH  14  15
ENDBRANCH   1  14
TORSDOF 9
