REMARK  10 active torsions:
REMARK  status: ('A' for Active; 'I' for Inactive)
REMARK    1  A    between atoms: C5'_2  and  O5'_1 
REMARK    2  A    between atoms: C4'_3  and  C5'_2 
REMARK    3  A    between atoms: C1'_5  and  N9_6 
REMARK    4  A    between atoms: C6_11  and  N6_12 
REMARK    5  A    between atoms: C2'_16  and  O2'_17 
REMARK    6  A    between atoms: N8_19  and  C3'_18 
REMARK    7  A    between atoms: CA_21  and  N_20 
REMARK    8  A    between atoms: CA_21  and  CB_22 
REMARK    9  A    between atoms: CA_21  and  C_24 
REMARK   10  A    between atoms: CB_22  and  OG_23 
ROOT
ATOM      1  C4' A3S d           9.799  -4.324   6.782  0.00  0.00     0.173 C 
ATOM      2  O4' A3S d           9.159  -3.363   6.049  0.00  0.00    -0.354 OA
ATOM      3  C1' A3S d          10.181  -2.578   5.350  0.00  0.00     0.261 C 
ATOM      4  C2' A3S d          11.500  -3.243   5.518  0.00  0.00     0.192 C 
ATOM      5  C3' A3S d          11.259  -3.812   6.945  0.00  0.00     0.147 C 
ENDROOT
BRANCH   3   6
ATOM      6  N9  A3S d          10.010  -1.143   5.686  0.00  0.00    -0.294 N 
ATOM      7  C4  A3S d          10.833  -0.159   5.375  0.00  0.00     0.167 A 
ATOM      8  N3  A3S d          12.123  -0.113   4.927  0.00  0.00    -0.222 NA
ATOM      9  C5  A3S d          10.177   1.026   5.687  0.00  0.00     0.149 A 
ATOM     10  C2  A3S d          12.715   1.086   4.733  0.00  0.00     0.237 A 
ATOM     11  N1  A3S d          12.140   2.263   5.009  0.00  0.00    -0.222 NA
ATOM     12  C6  A3S d          10.835   2.239   5.455  0.00  0.00     0.155 A 
ATOM     13  N7  A3S d           8.882   0.695   6.111  0.00  0.00    -0.236 NA
ATOM     14  C8  A3S d           8.785  -0.646   6.078  0.00  0.00     0.214 A 
BRANCH  12  15
ATOM     15  N6  A3S d          10.241   3.407   5.717  0.00  0.00    -0.382 N 
ATOM     16  H7  A3S d           9.267   3.426   6.052  0.00  0.00     0.157 HD
ATOM     17  H8  A3S d          10.757   4.288   5.584  0.00  0.00     0.157 HD
ENDBRANCH  12  15
ENDBRANCH   3   6
BRANCH   4  18
ATOM     18  O2' A3S d          11.618  -4.245   4.488  0.00  0.00    -0.389 OA
ATOM     19  H11 A3S d          12.455  -4.687   4.572  0.00  0.00     0.210 HD
ENDBRANCH   4  18
BRANCH   1  20
ATOM     20  C5' A3S d           9.074  -4.261   8.079  0.00  0.00     0.198 C 
BRANCH  20  21
ATOM     21  O5' A3S d           9.111  -2.926   8.592  0.00  0.00    -0.398 OA
ATOM     22  H1  A3S d           8.697  -2.338   7.971  0.00  0.00     0.209 HD
ENDBRANCH  20  21
ENDBRANCH   1  20
BRANCH   5  23
ATOM     23  N8  A3S d          12.152  -4.936   7.133  0.00  0.00    -0.360 N 
ATOM     24  C   A3S d          13.421  -4.777   7.479  0.00  0.00     0.184 C 
ATOM     25  O   A3S d          13.967  -3.554   7.700  0.00  0.00    -0.175 OA
ATOM     26  H13 A3S d          11.800  -5.862   6.997  0.00  0.00     0.162 HD
BRANCH  24  27
ATOM     27  CA  A3S d          14.320  -6.033   7.493  0.00  0.00     0.283 C 
BRANCH  27  28
ATOM     28  N   A3S d          15.733  -5.650   7.729  0.00  0.00    -0.066 N 
ATOM     29  H14 A3S d          16.309  -6.477   7.736  0.00  0.00     0.275 HD
ATOM     30  H15 A3S d          15.810  -5.180   8.617  0.00  0.00     0.275 HD
ATOM     31  H16 A3S d          16.041  -5.032   6.994  0.00  0.00     0.275 HD
ENDBRANCH  27  28
BRANCH  27  32
ATOM     32  CB  A3S d          13.924  -7.019   8.612  0.00  0.00     0.205 C 
BRANCH  32  33
ATOM     33  OG  A3S d          14.706  -8.203   8.380  0.00  0.00    -0.398 OA
ATOM     34  H20 A3S d          15.630  -7.984   8.422  0.00  0.00     0.209 HD
ENDBRANCH  32  33
ENDBRANCH  27  32
ENDBRANCH  24  27
ENDBRANCH   5  23
TORSDOF 10
