REMARK  5 active torsions:
REMARK  status: ('A' for Active; 'I' for Inactive)
REMARK    1  A    between atoms: CAB_13  and  NAN_14 
REMARK    2  A    between atoms: CAR_19  and  NBA_20 
REMARK       I    between atoms: NBA_20  and  CBB_21 
REMARK    3  A    between atoms: CBB_21  and  OBC_23 
REMARK    4  A    between atoms: OBC_23  and  CBD_24 
REMARK    5  A    between atoms: CAS_28  and  CAU_29 
ROOT
ATOM      1  NAN MOL d          46.460  -2.380  29.614  0.00  0.00    -0.307 N 
ATOM      2  CAO MOL d          45.822  -3.592  29.421  0.00  0.00     0.225 C 
ATOM      3  OAT MOL d          45.426  -4.263  30.416  0.00  0.00    -0.273 OA
ATOM      4  CAP MOL d          45.430  -4.109  28.141  0.00  0.00     0.105 C 
ATOM      5  CAQ MOL d          46.256  -3.443  27.017  0.00  0.00     0.037 C 
ATOM      6  CAR MOL d          46.323  -1.980  27.195  0.00  0.00     0.115 C 
ATOM      7  CAS MOL d          47.041  -1.608  28.541  0.00  0.00     0.149 C 
ENDROOT
BRANCH   1   8
ATOM      8  CAB MOL d          46.714  -2.034  30.908  0.00  0.00     0.040 A 
ATOM      9  CAC MOL d          48.010  -2.058  31.420  0.00  0.00     0.060 A 
ATOM     10  CAD MOL d          48.261  -1.796  32.780  0.00  0.00     0.050 A 
ATOM     11  NAG MOL d          49.550  -1.764  33.276  0.00  0.00    -0.318 N 
ATOM     12  CAE MOL d          47.172  -1.493  33.630  0.00  0.00    -0.003 A 
ATOM     13  CAH MOL d          49.766  -1.511  34.621  0.00  0.00     0.248 A 
ATOM     14  CAM MOL d          50.697  -2.032  32.353  0.00  0.00     0.159 C 
ATOM     15  CAI MOL d          48.668  -1.312  35.484  0.00  0.00     0.082 A 
ATOM     16  OAL MOL d          50.911  -1.539  35.101  0.00  0.00    -0.268 OA
ATOM     17  CAJ MOL d          47.376  -1.270  35.018  0.00  0.00    -0.044 A 
ATOM     18  CAK MOL d          46.229  -1.053  35.932  0.00  0.00     0.049 C 
ATOM     19  CAF MOL d          45.874  -1.487  33.091  0.00  0.00     0.016 A 
ATOM     20  CAA MOL d          45.633  -1.753  31.736  0.00  0.00     0.031 A 
ENDBRANCH   1   8
BRANCH   7  21
ATOM     21  CAU MOL d          46.999  -0.234  28.774  0.00  0.00    -0.033 A 
ATOM     22  CAV MOL d          48.209   0.495  28.858  0.00  0.00     0.009 A 
ATOM     23  CAW MOL d          48.191   1.907  29.081  0.00  0.00     0.001 A 
ATOM     24  CAX MOL d          46.970   2.565  29.207  0.00  0.00     0.000 A 
ATOM     25  CAY MOL d          45.783   1.835  29.115  0.00  0.00     0.001 A 
ATOM     26  CAZ MOL d          45.771   0.442  28.897  0.00  0.00     0.009 A 
ENDBRANCH   7  21
BRANCH   6  27
ATOM     27  NBA MOL d          47.156  -1.522  26.089  0.00  0.00    -0.330 N 
ATOM     28  CBB MOL d          46.576  -1.166  24.931  0.00  0.00     0.361 C 
ATOM     29  OBH MOL d          45.347  -1.086  24.836  0.00  0.00    -0.238 OA
ATOM     30  H16 MOL d          48.150  -1.474  26.192  0.00  0.00     0.165 HD
BRANCH  28  31
ATOM     31  OBC MOL d          47.381  -0.926  23.880  0.00  0.00    -0.294 OA
BRANCH  31  32
ATOM     32  CBD MOL d          46.865  -0.950  22.512  0.00  0.00     0.061 C 
ATOM     33  CBF MOL d          45.986  -2.206  22.231  0.00  0.00     0.046 C 
ATOM     34  CBG MOL d          48.130  -0.915  21.631  0.00  0.00     0.046 C 
ATOM     35  CBE MOL d          46.055   0.325  22.256  0.00  0.00     0.046 C 
ENDBRANCH  31  32
ENDBRANCH  28  31
ENDBRANCH   6  27
TORSDOF 5
