4z6i_ligand

Created by X-TOOL on Sun Nov 13 14:28:15 2016
 65 68  0  0  0  0  0  0  0  0999 V2000
   46.2290   -1.0530   35.9320  C 0  0  0  4  0  4
   47.3760   -1.2700   35.0180  C 0  0  0  1  0  3
   48.6680   -1.3120   35.4840  C 0  0  0  2  0  3
   49.7660   -1.5110   34.6210  C 0  0  0  1  0  3
   50.9110   -1.5390   35.1010  O 0  0  0  1  0  1
   49.5500   -1.7640   33.2760  N 0  0  0  1  0  3
   50.6970   -2.0320   32.3530  C 0  0  0  4  0  4
   48.2610   -1.7960   32.7800  C 0  0  0  1  0  3
   48.0100   -2.0580   31.4200  C 0  0  0  2  0  3
   47.1720   -1.4930   33.6300  C 0  0  0  1  0  3
   45.8740   -1.4870   33.0910  C 0  0  0  2  0  3
   45.6330   -1.7530   31.7360  C 0  0  0  2  0  3
   46.7140   -2.0340   30.9080  C 0  0  0  1  0  3
   46.4600   -2.3800   29.6140  N 0  0  0  1  0  3
   45.8220   -3.5920   29.4210  C 0  0  0  1  0  3
   45.4260   -4.2630   30.4160  O 0  0  0  1  0  1
   45.4300   -4.1090   28.1410  C 0  0  0  3  0  4
   46.2560   -3.4430   27.0170  C 0  0  0  3  0  4
   46.3230   -1.9800   27.1950  C 0  0  0  2  0  4
   47.1560   -1.5220   26.0890  N 0  0  0  2  0  3
   46.5760   -1.1660   24.9310  C 0  0  0  1  0  3
   45.3470   -1.0860   24.8360  O 0  0  0  1  0  1
   47.3810   -0.9260   23.8800  O 0  0  0  1  0  2
   46.8650   -0.9500   22.5120  C 0  0  0  1  0  4
   45.9860   -2.2060   22.2310  C 0  0  0  4  0  4
   48.1300   -0.9150   21.6310  C 0  0  0  4  0  4
   46.0550    0.3250   22.2560  C 0  0  0  4  0  4
   47.0410   -1.6080   28.5410  C 0  0  0  2  0  4
   46.9990   -0.2340   28.7740  C 0  0  0  1  0  3
   48.2090    0.4950   28.8580  C 0  0  0  2  0  3
   48.1910    1.9070   29.0810  C 0  0  0  2  0  3
   46.9700    2.5650   29.2070  C 0  0  0  2  0  3
   45.7830    1.8350   29.1150  C 0  0  0  2  0  3
   45.7710    0.4420   28.8970  C 0  0  0  2  0  3
   46.6001   -0.9005   36.9562  H 0  0  0  1  0  1
   45.5696   -1.9331   35.9082  H 0  0  0  1  0  1
   45.6664   -0.1644   35.6098  H 0  0  0  1  0  1
   48.8496   -1.1881   36.5506  H 0  0  0  1  0  1
   51.6415   -1.9658   32.9130  H 0  0  0  1  0  1
   50.6979   -1.2874   31.5434  H 0  0  0  1  0  1
   50.5949   -3.0398   31.9242  H 0  0  0  1  0  1
   48.8394   -2.2824   30.7591  H 0  0  0  1  0  1
   45.0348   -1.2704   33.7421  H 0  0  0  1  0  1
   44.6235   -1.7399   31.3414  H 0  0  0  1  0  1
   44.3621   -3.9020   27.9777  H 0  0  0  1  0  1
   45.6001   -5.1956   28.1210  H 0  0  0  1  0  1
   45.7859   -3.6647   26.0476  H 0  0  0  1  0  1
   47.2767   -3.8527   27.0318  H 0  0  0  1  0  1
   45.3196   -1.5305   27.1610  H 0  0  0  1  0  1
   48.1495   -1.4735   26.1918  H 0  0  0  1  0  1
   45.6244   -2.1756   21.1926  H 0  0  0  1  0  1
   45.1271   -2.2137   22.9182  H 0  0  0  1  0  1
   46.5861   -3.1152   22.3837  H 0  0  0  1  0  1
   47.8387   -0.9302   20.5704  H 0  0  0  1  0  1
   48.7552   -1.7926   21.8521  H 0  0  0  1  0  1
   48.6985    0.0028   21.8420  H 0  0  0  1  0  1
   45.6648    0.3112   21.2276  H 0  0  0  1  0  1
   46.7025    1.2040   22.3906  H 0  0  0  1  0  1
   45.2162    0.3752   22.9658  H 0  0  0  1  0  1
   48.0996   -1.8944   28.4553  H 0  0  0  1  0  1
   49.1565   -0.0210   28.7525  H 0  0  0  1  0  1
   49.1201    2.4610   29.1514  H 0  0  0  1  0  1
   46.9412    3.6355   29.3752  H 0  0  0  1  0  1
   44.8383    2.3573   29.2146  H 0  0  0  1  0  1
   44.8337   -0.0978   28.8255  H 0  0  0  1  0  1
  1  2  1  0  0  2
  2  3  2  0  0  1
  2 10  1  0  0  1
  3  4  1  0  0  1
  4  5  2  0  0  2
  4  6  1  0  0  1
  6  7  1  0  0  2
  6  8  1  0  0  1
  8  9  4  0  0  1
  8 10  4  0  0  1
  9 13  4  0  0  1
 10 11  4  0  0  1
 11 12  4  0  0  1
 12 13  4  0  0  1
 13 14  1  0  0  2
 14 15  1  0  0  1
 14 28  1  0  0  1
 15 16  2  0  0  2
 15 17  1  0  0  1
 17 18  1  0  0  1
 18 19  1  0  0  1
 19 20  1  0  0  2
 19 28  1  0  0  1
 20 21  1  0  0  2
 21 22  2  0  0  2
 21 23  1  0  0  2
 23 24  1  0  0  2
 24 25  1  0  0  2
 24 26  1  0  0  2
 24 27  1  0  0  2
 28 29  1  0  0  2
 29 30  4  0  0  1
 29 34  4  0  0  1
 30 31  4  0  0  1
 31 32  4  0  0  1
 32 33  4  0  0  1
 33 34  4  0  0  1
  1 35  1  0  0  2
  1 36  1  0  0  2
  1 37  1  0  0  2
  3 38  1  0  0  2
  7 39  1  0  0  2
  7 40  1  0  0  2
  7 41  1  0  0  2
  9 42  1  0  0  2
 11 43  1  0  0  2
 12 44  1  0  0  2
 17 45  1  0  0  2
 17 46  1  0  0  2
 18 47  1  0  0  2
 18 48  1  0  0  2
 19 49  1  0  0  2
 20 50  1  0  0  2
 25 51  1  0  0  2
 25 52  1  0  0  2
 25 53  1  0  0  2
 26 54  1  0  0  2
 26 55  1  0  0  2
 26 56  1  0  0  2
 27 57  1  0  0  2
 27 58  1  0  0  2
 27 59  1  0  0  2
 28 60  1  0  0  2
 30 61  1  0  0  2
 31 62  1  0  0  2
 32 63  1  0  0  2
 33 64  1  0  0  2
 34 65  1  0  0  2
M  END
> <MOLECULAR_FORMULA>
C27H31N3O4

> <MOLECULAR_WEIGHT>
461.3

> <NUM_HB_ATOMS>
5  

> <NUM_ROTOR>
3  

> <XLOGP2>
4.07 

$$$$
