REMARK  4 active torsions:
REMARK  status: ('A' for Active; 'I' for Inactive)
REMARK    1  A    between atoms: C2_2  and  C15_15 
REMARK    2  A    between atoms: O1_18  and  C3_3 
REMARK    3  A    between atoms: C8_8  and  C9_9 
REMARK    4  A    between atoms: O1_18  and  C8_8 
ROOT
ATOM      1  C1  MOL d          22.446  -1.263  26.259  0.00  0.00     0.205 C 
ATOM      2  C2  MOL d          23.823  -1.870  25.848  0.00  0.00     0.147 C 
ATOM      3  C3  MOL d          23.717  -2.306  24.354  0.00  0.00     0.150 C 
ATOM      4  C4  MOL d          22.510  -3.075  23.988  0.00  0.00     0.067 C 
ATOM      5  C5  MOL d          21.202  -2.329  24.566  0.00  0.00     0.191 C 
ATOM      6  C6  MOL d          21.157  -0.837  24.176  0.00  0.00     0.035 C 
ATOM      7  C7  MOL d          22.012  -0.081  25.348  0.00  0.00     0.036 C 
ATOM      8  C16 MOL d          20.109  -2.054  26.875  0.00  0.00     0.270 C 
ATOM      9  N1  MOL d          21.364  -2.356  26.057  0.00  0.00    -0.065 N 
ATOM     10  H19 MOL d          21.710  -3.258  26.345  0.00  0.00     0.280 HD
ENDROOT
BRANCH   3  11
ATOM     11  O1  MOL d          24.923  -3.025  23.964  0.00  0.00    -0.311 OA
BRANCH  11  12
ATOM     12  C8  MOL d          26.129  -2.532  24.009  0.00  0.00     0.293 C 
ATOM     13  O2  MOL d          26.419  -1.384  24.289  0.00  0.00    -0.259 OA
BRANCH  12  14
ATOM     14  C9  MOL d          27.150  -3.532  23.593  0.00  0.00     0.039 A 
ATOM     15  C10 MOL d          26.774  -4.854  23.191  0.00  0.00     0.017 A 
ATOM     16  C11 MOL d          27.829  -5.763  22.752  0.00  0.00     0.001 A 
ATOM     17  C12 MOL d          29.174  -5.322  22.736  0.00  0.00     0.000 A 
ATOM     18  C13 MOL d          29.523  -3.999  23.172  0.00  0.00     0.001 A 
ATOM     19  C14 MOL d          28.487  -3.135  23.589  0.00  0.00     0.017 A 
ENDBRANCH  12  14
ENDBRANCH  11  12
ENDBRANCH   3  11
BRANCH   2  20
ATOM     20  C15 MOL d          24.295  -3.002  26.772  0.00  0.00     0.181 C 
ATOM     21  O3  MOL d          25.348  -3.099  27.321  0.00  0.00    -0.648 OA
ATOM     22  O4  MOL d          23.370  -3.904  26.858  0.00  0.00    -0.648 OA
ENDBRANCH   2  20
TORSDOF 4
