REMARK  2 active torsions:
REMARK  status: ('A' for Active; 'I' for Inactive)
REMARK    1  A    between atoms: C1_1  and  C_7 
REMARK    2  A    between atoms: C_7  and  N1_8 
ROOT
ATOM      1  C   BEN d          53.666  65.868 -27.780  0.00  0.00     0.102 C 
ATOM      2  N2  BEN d          53.201  64.642 -27.927  0.00  0.00    -0.385 N 
ATOM      3  H8  BEN d          52.631  64.403 -28.751  0.00  0.00     0.157 HD
ATOM      4  H9  BEN d          53.408  63.924 -27.218  0.00  0.00     0.157 HD
ENDROOT
BRANCH   1   5
ATOM      5  C1  BEN d          53.362  66.934 -28.854  0.00  0.00     0.007 A 
ATOM      6  C2  BEN d          52.739  66.559 -30.132  0.00  0.00     0.015 A 
ATOM      7  C3  BEN d          52.456  67.568 -31.146  0.00  0.00     0.001 A 
ATOM      8  C4  BEN d          52.791  68.960 -30.896  0.00  0.00     0.000 A 
ATOM      9  C5  BEN d          53.406  69.347 -29.643  0.00  0.00     0.001 A 
ATOM     10  C6  BEN d          53.692  68.342 -28.625  0.00  0.00     0.015 A 
ENDBRANCH   1   5
BRANCH   1  11
ATOM     11  N1  BEN d          54.397  66.184 -26.727  0.00  0.00    -0.385 N 
ATOM     12  H6  BEN d          54.601  65.474 -26.009  0.00  0.00     0.157 HD
ATOM     13  H7  BEN d          54.764  67.141 -26.623  0.00  0.00     0.157 HD
ENDBRANCH   1  11
TORSDOF 2
