REMARK  12 active torsions:
REMARK  status: ('A' for Active; 'I' for Inactive)
REMARK    1  A    between atoms: CA_14  and  C_1 
REMARK    2  A    between atoms: CA_14  and  N_2 
REMARK    3  A    between atoms: N6_10  and  C27_22 
REMARK    4  A    between atoms: C1'_19  and  N9_13 
REMARK    5  A    between atoms: CB_15  and  CA_14 
REMARK    6  A    between atoms: CG_18  and  CB_15 
REMARK    7  A    between atoms: CD_16  and  SD_17 
REMARK    8  A    between atoms: C4'_32  and  CD_16 
REMARK    9  A    between atoms: SD_17  and  CG_18 
REMARK   10  A    between atoms: C2'_20  and  O2'_21 
REMARK   11  A    between atoms: C27_22  and  C28_23 
REMARK   12  A    between atoms: C3'_25  and  O3'_26 
ROOT
ATOM      1  C1' MOL d           6.103   0.261  41.787  0.00  0.00     0.262 C 
ATOM      2  C2' MOL d           5.545   0.575  43.195  0.00  0.00     0.198 C 
ATOM      3  C3' MOL d           5.647  -0.770  43.912  0.00  0.00     0.180 C 
ATOM      4  C4' MOL d           5.700  -1.791  42.775  0.00  0.00     0.165 C 
ATOM      5  O4' MOL d           5.632  -1.071  41.529  0.00  0.00    -0.355 OA
ENDROOT
BRANCH   1   6
ATOM      6  N9  MOL d           5.527   1.071  40.707  0.00  0.00    -0.294 N 
ATOM      7  C4  MOL d           6.211   1.464  39.619  0.00  0.00     0.167 A 
ATOM      8  N3  MOL d           7.515   1.259  39.274  0.00  0.00    -0.222 NA
ATOM      9  C5  MOL d           5.357   2.197  38.809  0.00  0.00     0.149 A 
ATOM     10  C2  MOL d           7.981   1.772  38.121  0.00  0.00     0.237 A 
ATOM     11  N1  MOL d           7.185   2.474  37.293  0.00  0.00    -0.222 NA
ATOM     12  C6  MOL d           5.885   2.736  37.606  0.00  0.00     0.158 A 
ATOM     13  N6  MOL d           5.177   3.459  36.709  0.00  0.00    -0.368 N 
ATOM     14  H5  MOL d           5.619   3.662  35.801  0.00  0.00     0.161 HD
ATOM     15  N7  MOL d           4.132   2.215  39.419  0.00  0.00    -0.236 NA
ATOM     16  C8  MOL d           4.257   1.513  40.587  0.00  0.00     0.214 A 
BRANCH  13  17
ATOM     17  C27 MOL d           3.847   3.965  36.936  0.00  0.00     0.160 C 
BRANCH  17  18
ATOM     18  C28 MOL d           2.803   3.149  36.217  0.00  0.00    -0.039 A 
ATOM     19  C29 MOL d           3.077   2.640  34.940  0.00  0.00     0.032 A 
ATOM     20  C30 MOL d           2.102   1.912  34.289  0.00  0.00     0.034 A 
ATOM     21  C31 MOL d           0.846   1.682  34.864  0.00  0.00     0.024 A 
ATOM     22 CL34 MOL d           2.485   1.273  32.690  0.00  0.00    -0.084 Cl
ATOM     23  C32 MOL d           0.577   2.188  36.140  0.00  0.00     0.002 A 
ATOM     24  C33 MOL d           1.545   2.934  36.814  0.00  0.00     0.009 A 
ENDBRANCH  17  18
ENDBRANCH  13  17
ENDBRANCH   1   6
BRANCH   2  25
ATOM     25  O2' MOL d           6.253   1.580  43.916  0.00  0.00    -0.388 OA
ATOM     26  H16 MOL d           7.155   1.306  44.036  0.00  0.00     0.210 HD
ENDBRANCH   2  25
BRANCH   3  27
ATOM     27  O3' MOL d           6.865  -0.843  44.656  0.00  0.00    -0.390 OA
ATOM     28  H21 MOL d           6.884  -0.145  45.300  0.00  0.00     0.210 HD
ENDBRANCH   3  27
BRANCH   4  29
ATOM     29  CD  MOL d           4.594  -2.825  42.795  0.00  0.00     0.108 C 
BRANCH  29  30
ATOM     30  SD  MOL d           4.695  -3.867  44.236  0.00  0.00    -0.166 SA
BRANCH  30  31
ATOM     31  CG  MOL d           6.167  -4.806  43.989  0.00  0.00     0.076 C 
BRANCH  31  32
ATOM     32  CB  MOL d           6.383  -5.928  44.978  0.00  0.00     0.054 C 
BRANCH  32  33
ATOM     33  CA  MOL d           7.568  -6.766  44.435  0.00  0.00     0.284 C 
BRANCH  33  34
ATOM     34  C   MOL d           8.215  -7.526  45.584  0.00  0.00     0.204 C 
ATOM     35  O   MOL d           8.646  -6.908  46.575  0.00  0.00    -0.646 OA
ATOM     36  OXT MOL d           8.330  -8.795  45.547  0.00  0.00    -0.646 OA
ENDBRANCH  33  34
BRANCH  33  37
ATOM     37  N   MOL d           7.082  -7.634  43.364  0.00  0.00    -0.065 N 
ATOM     38  H1  MOL d           6.667  -7.071  42.638  0.00  0.00     0.275 HD
ATOM     39  H2  MOL d           6.391  -8.269  43.733  0.00  0.00     0.275 HD
ATOM     40  H3  MOL d           7.852  -8.160  42.982  0.00  0.00     0.275 HD
ENDBRANCH  33  37
ENDBRANCH  32  33
ENDBRANCH  31  32
ENDBRANCH  30  31
ENDBRANCH  29  30
ENDBRANCH   4  29
TORSDOF 12
