REMARK  3 active torsions:
REMARK  status: ('A' for Active; 'I' for Inactive)
REMARK    1  A    between atoms: C1_1  and  N_9 
REMARK    2  A    between atoms: N_9  and  C11_13 
REMARK    3  A    between atoms: C9_11  and  S_10 
ROOT
ATOM      1  C1  MOL d         -22.838   2.183 -11.464  0.00  0.00     0.045 A 
ATOM      2  C2  MOL d         -23.569   1.813 -12.596  0.00  0.00     0.030 A 
ATOM      3  C3  MOL d         -24.819   2.333 -12.877  0.00  0.00     0.003 A 
ATOM      4  C4  MOL d         -25.342   3.278 -12.016  0.00  0.00     0.012 A 
ATOM      5  C5  MOL d         -24.632   3.690 -10.904  0.00  0.00    -0.022 A 
ATOM      6  C6  MOL d         -25.270   4.634 -10.114  0.00  0.00     0.012 A 
ATOM      7  C7  MOL d         -24.673   5.124  -8.969  0.00  0.00     0.002 A 
ATOM      8  C8  MOL d         -23.421   4.630  -8.636  0.00  0.00     0.027 A 
ATOM      9  C9  MOL d         -22.769   3.677  -9.405  0.00  0.00     0.094 A 
ATOM     10  C10 MOL d         -23.366   3.166 -10.586  0.00  0.00     0.025 A 
ENDROOT
BRANCH   1  11
ATOM     11  N   MOL d         -21.615   1.635 -11.222  0.00  0.00    -0.355 N 
ATOM     12  H7  MOL d         -20.833   2.272 -11.015  0.00  0.00     0.166 HD
BRANCH  11  13
ATOM     13  C11 MOL d         -21.359   0.285 -11.237  0.00  0.00     0.032 A 
ATOM     14  C12 MOL d         -22.267  -0.725 -11.589  0.00  0.00     0.029 A 
ATOM     15  C13 MOL d         -21.939  -2.080 -11.576  0.00  0.00     0.002 A 
ATOM     16  C14 MOL d         -20.656  -2.472 -11.226  0.00  0.00     0.000 A 
ATOM     17  C15 MOL d         -19.731  -1.496 -10.871  0.00  0.00     0.002 A 
ATOM     18  C16 MOL d         -20.076  -0.137 -10.878  0.00  0.00     0.029 A 
ENDBRANCH  11  13
ENDBRANCH   1  11
BRANCH   9  19
ATOM     19  S   MOL d         -21.199   3.254  -8.728  0.00  0.00     0.138 S 
ATOM     20  O1  MOL d         -20.209   3.265  -9.884  0.00  0.00    -0.591 OA
ATOM     21  O2  MOL d         -21.278   1.868  -8.063  0.00  0.00    -0.591 OA
ATOM     22  O3  MOL d         -20.832   4.325  -7.701  0.00  0.00    -0.591 OA
ENDBRANCH   9  19
TORSDOF 3
