REMARK  7 active torsions:
REMARK  status: ('A' for Active; 'I' for Inactive)
REMARK    1  A    between atoms: N2_2  and  C13_9 
REMARK    2  A    between atoms: C5_5  and  C8_6 
REMARK       I    between atoms: C8_6  and  N10_8 
REMARK    3  A    between atoms: C13_9  and  C14_10 
REMARK    4  A    between atoms: C13_9  and  C18_12 
REMARK    5  A    between atoms: C14_10  and  O15_11 
REMARK    6  A    between atoms: C18_12  and  C19_13 
REMARK    7  A    between atoms: C19_13  and  C22_14 
ROOT
ATOM      1  C13 FR3 d          50.944  56.470  21.669  0.00  0.00     0.114 C 
ENDROOT
BRANCH   1   2
ATOM      2  N2  FR3 d          51.031  54.948  21.797  0.00  0.00    -0.342 N 
ATOM      3  C1  FR3 d          50.953  53.959  20.788  0.00  0.00     0.129 A 
ATOM      4  C5  FR3 d          50.732  52.788  21.358  0.00  0.00     0.141 A 
ATOM      5  N4  FR3 d          50.681  52.928  22.743  0.00  0.00    -0.237 NA
ATOM      6  C3  FR3 d          50.875  54.258  22.938  0.00  0.00     0.210 A 
BRANCH   4   7
ATOM      7  C8  FR3 d          50.596  51.443  20.783  0.00  0.00     0.269 C 
ATOM      8  O9  FR3 d          50.355  51.363  19.604  0.00  0.00    -0.266 OA
ATOM      9  N10 FR3 d          50.560  50.307  21.521  0.00  0.00    -0.365 N 
ATOM     10  H3  FR3 d          50.466  49.420  21.069  0.00  0.00     0.159 HD
ATOM     11  H4  FR3 d          50.628  50.356  22.517  0.00  0.00     0.159 HD
ENDBRANCH   4   7
ENDBRANCH   1   2
BRANCH   1  12
ATOM     12  C14 FR3 d          52.447  57.135  21.608  0.00  0.00     0.189 C 
BRANCH  12  13
ATOM     13  O15 FR3 d          53.360  56.506  22.614  0.00  0.00    -0.399 OA
ATOM     14  H8  FR3 d          53.433  55.576  22.436  0.00  0.00     0.209 HD
ENDBRANCH  12  13
ENDBRANCH   1  12
BRANCH   1  15
ATOM     15  C18 FR3 d          50.256  56.879  20.372  0.00  0.00     0.032 C 
BRANCH  15  16
ATOM     16  C19 FR3 d          48.715  56.517  20.521  0.00  0.00     0.041 C 
BRANCH  16  17
ATOM     17  C22 FR3 d          47.956  56.798  19.223  0.00  0.00    -0.047 C 
ATOM     18  C25 FR3 d          47.576  58.096  18.884  0.00  0.00     0.008 C 
ATOM     19  C26 FR3 d          46.922  58.373  17.649  0.00  0.00     0.001 C 
ATOM     20  C27 FR3 d          46.724  57.303  16.726  0.00  0.00     0.012 C 
ATOM     21  C28 FR3 d          47.098  55.995  17.076  0.00  0.00    -0.025 C 
ATOM     22  C29 FR3 d          47.798  55.742  18.274  0.00  0.00    -0.020 C 
ATOM     23  C2  FR3 d          46.952  54.946  16.117  0.00  0.00     0.012 C 
ATOM     24  C4  FR3 d          48.179  54.426  18.617  0.00  0.00     0.013 C 
ATOM     25  C7  FR3 d          48.011  53.396  17.709  0.00  0.00     0.001 C 
ATOM     26  C6  FR3 d          47.356  53.624  16.448  0.00  0.00     0.001 C 
ENDBRANCH  16  17
ENDBRANCH  15  16
ENDBRANCH   1  15
TORSDOF 7
