REMARK  5 active torsions:
REMARK  status: ('A' for Active; 'I' for Inactive)
REMARK    1  A    between atoms: C2_2  and  O2_8 
REMARK    2  A    between atoms: C3_3  and  O3_9 
REMARK    3  A    between atoms: C4_4  and  O4_10 
REMARK    4  A    between atoms: C5_5  and  C6_6 
REMARK    5  A    between atoms: C6_6  and  O6_12 
ROOT
ATOM      1  C1  MOL d          53.966  -8.974  28.887  0.00  0.00     0.291 C 
ATOM      2  C2  MOL d          53.724  -8.044  27.726  0.00  0.00     0.248 C 
ATOM      3  C3  MOL d          52.534  -7.150  28.021  0.00  0.00     0.188 C 
ATOM      4  C4  MOL d          51.413  -8.033  28.568  0.00  0.00     0.181 C 
ATOM      5  C5  MOL d          51.774  -8.533  29.971  0.00  0.00     0.186 C 
ATOM      6  O1  MOL d          54.972  -9.642  28.911  0.00  0.00    -0.262 OA
ATOM      7  O5  MOL d          53.067  -9.143  30.037  0.00  0.00    -0.309 OA
ENDROOT
BRANCH   5   8
ATOM      8  C6  MOL d          50.794  -9.575  30.518  0.00  0.00     0.199 C 
BRANCH   8   9
ATOM      9  O6  MOL d          49.489  -9.004  30.593  0.00  0.00    -0.398 OA
ATOM     10  H10 MOL d          48.881  -9.650  30.932  0.00  0.00     0.209 HD
ENDBRANCH   8   9
ENDBRANCH   5   8
BRANCH   4  11
ATOM     11  O4  MOL d          51.179  -9.136  27.678  0.00  0.00    -0.390 OA
ATOM     12  H9  MOL d          50.957  -8.804  26.816  0.00  0.00     0.210 HD
ENDBRANCH   4  11
BRANCH   3  13
ATOM     13  O3  MOL d          52.111  -6.511  26.811  0.00  0.00    -0.390 OA
ATOM     14  H8  MOL d          51.891  -7.172  26.165  0.00  0.00     0.210 HD
ENDBRANCH   3  13
BRANCH   2  15
ATOM     15  O2  MOL d          54.898  -7.255  27.460  0.00  0.00    -0.383 OA
ATOM     16  H7  MOL d          55.631  -7.831  27.278  0.00  0.00     0.210 HD
ENDBRANCH   2  15
TORSDOF 5
