REMARK  14 active torsions:
REMARK  status: ('A' for Active; 'I' for Inactive)
REMARK    1  A    between atoms: C1_2  and  C2_4 
REMARK       I    between atoms: N2_13  and  C1_2 
REMARK    2  A    between atoms: C11_14  and  N2_13 
REMARK    3  A    between atoms: C12_15  and  C11_14 
REMARK    4  A    between atoms: C11_14  and  C13_17 
REMARK       I    between atoms: N4_24  and  C12_15 
REMARK    5  A    between atoms: C13_17  and  C14_18 
REMARK       I    between atoms: C14_18  and  N3_20 
REMARK    6  A    between atoms: C15_21  and  O4_22 
REMARK    7  A    between atoms: C16_23  and  C15_21 
REMARK    8  A    between atoms: C15_21  and  C24_33 
REMARK    9  A    between atoms: C16_23  and  N4_24 
REMARK   10  A    between atoms: C16_23  and  C17_25 
REMARK   11  A    between atoms: C17_25  and  C18_26 
REMARK   12  A    between atoms: C24_33  and  N5_32 
REMARK   13  A    between atoms: C25_34  and  C26_35 
REMARK       I    between atoms: C26_35  and  N6_45 
REMARK   14  A    between atoms: N6_45  and  C35_46 
ROOT
ATOM      1  C16 ROC d          16.889  23.923  18.502  0.00  0.00     0.119 C 
ENDROOT
BRANCH   1   2
ATOM      2  C15 ROC d          15.480  24.466  18.138  0.00  0.00     0.167 C 
BRANCH   2   3
ATOM      3  O4  ROC d          15.065  25.568  18.933  0.00  0.00    -0.392 OA
ATOM      4  H14 ROC d          14.200  25.848  18.658  0.00  0.00     0.210 HD
ENDBRANCH   2   3
BRANCH   2   5
ATOM      5  C24 ROC d          14.389  23.429  18.129  0.00  0.00     0.269 C 
BRANCH   5   6
ATOM      6  N5  ROC d          14.362  22.635  16.919  0.00  0.00    -0.055 N 
ATOM      7  C25 ROC d          13.635  21.370  17.114  0.00  0.00     0.279 C 
ATOM      8  C27 ROC d          13.696  20.547  15.812  0.00  0.00     0.048 C 
ATOM      9  C28 ROC d          12.991  21.313  14.673  0.00  0.00    -0.006 C 
ATOM     10  C29 ROC d          13.119  20.560  13.308  0.00  0.00     0.005 C 
ATOM     11  C33 ROC d          13.649  22.692  14.587  0.00  0.00     0.016 C 
ATOM     12  C30 ROC d          14.602  20.443  12.870  0.00  0.00     0.000 C 
ATOM     13  C31 ROC d          15.097  21.877  12.648  0.00  0.00     0.000 C 
ATOM     14  C32 ROC d          15.083  22.592  14.016  0.00  0.00     0.007 C 
ATOM     15  C34 ROC d          13.598  23.418  15.890  0.00  0.00     0.241 C 
ATOM     16  H24 ROC d          15.303  22.450  16.607  0.00  0.00     0.281 HD
BRANCH   7  17
ATOM     17  C26 ROC d          14.437  20.541  18.119  0.00  0.00     0.249 C 
ATOM     18  O5  ROC d          15.653  20.453  18.161  0.00  0.00    -0.271 OA
ATOM     19  N6  ROC d          13.609  19.890  18.990  0.00  0.00    -0.351 N 
ATOM     20  H42 ROC d          12.626  20.061  18.922  0.00  0.00     0.163 HD
BRANCH  19  21
ATOM     21  C35 ROC d          14.082  18.946  20.030  0.00  0.00     0.022 C 
ATOM     22  C36 ROC d          14.921  17.823  19.407  0.00  0.00     0.037 C 
ATOM     23  C37 ROC d          12.782  18.437  20.702  0.00  0.00     0.037 C 
ATOM     24  C38 ROC d          14.981  19.714  21.055  0.00  0.00     0.037 C 
ENDBRANCH  19  21
ENDBRANCH   7  17
ENDBRANCH   5   6
ENDBRANCH   2   5
ENDBRANCH   1   2
BRANCH   1  25
ATOM     25  N4  ROC d          17.868  24.916  18.112  0.00  0.00    -0.352 N 
ATOM     26  C12 ROC d          18.793  24.656  17.178  0.00  0.00     0.241 C 
ATOM     27  O2  ROC d          18.877  23.574  16.590  0.00  0.00    -0.271 OA
ATOM     28  H16 ROC d          17.854  25.815  18.549  0.00  0.00     0.163 HD
BRANCH  26  29
ATOM     29  C11 ROC d          19.736  25.800  16.894  0.00  0.00     0.185 C 
BRANCH  29  30
ATOM     30  N2  ROC d          20.960  25.617  17.735  0.00  0.00    -0.342 N 
ATOM     31  C1  ROC d          21.451  26.582  18.550  0.00  0.00     0.271 C 
ATOM     32  O1  ROC d          20.978  27.728  18.549  0.00  0.00    -0.266 OA
ATOM     33  H7  ROC d          21.439  24.740  17.694  0.00  0.00     0.163 HD
BRANCH  31  34
ATOM     34  C2  ROC d          22.580  26.086  19.401  0.00  0.00     0.125 A 
ATOM     35  N1  ROC d          23.319  25.038  18.974  0.00  0.00    -0.243 NA
ATOM     36  C10 ROC d          24.355  24.556  19.719  0.00  0.00     0.068 A 
ATOM     37  C5  ROC d          24.705  25.145  20.991  0.00  0.00    -0.007 A 
ATOM     38  C9R ROC d          25.103  23.467  19.249  0.00  0.00     0.032 A 
ATOM     39  C4  ROC d          23.887  26.259  21.401  0.00  0.00     0.016 A 
ATOM     40  C6  ROC d          25.775  24.610  21.709  0.00  0.00     0.014 A 
ATOM     41  C3  ROC d          22.841  26.710  20.598  0.00  0.00     0.038 A 
ATOM     42  C7  ROC d          26.508  23.516  21.210  0.00  0.00     0.001 A 
ATOM     43  C8  ROC d          26.166  22.937  19.964  0.00  0.00     0.002 A 
ENDBRANCH  31  34
ENDBRANCH  29  30
BRANCH  29  44
ATOM     44  C13 ROC d          19.972  25.906  15.406  0.00  0.00     0.137 C 
BRANCH  44  45
ATOM     45  C14 ROC d          20.794  27.165  15.222  0.00  0.00     0.217 C 
ATOM     46  O3  ROC d          20.277  28.268  15.359  0.00  0.00    -0.274 OA
ATOM     47  N3  ROC d          22.100  27.039  14.907  0.00  0.00    -0.370 N 
ATOM     48  H11 ROC d          22.665  27.855  14.780  0.00  0.00     0.159 HD
ATOM     49  H12 ROC d          22.503  26.130  14.800  0.00  0.00     0.159 HD
ENDBRANCH  44  45
ENDBRANCH  29  44
ENDBRANCH  26  29
ENDBRANCH   1  25
BRANCH   1  50
ATOM     50  C17 ROC d          16.955  23.589  19.987  0.00  0.00     0.066 C 
BRANCH  50  51
ATOM     51  C18 ROC d          18.375  23.354  20.474  0.00  0.00    -0.056 A 
ATOM     52  C19 ROC d          19.020  22.138  20.278  0.00  0.00     0.007 A 
ATOM     53  C21 ROC d          20.391  21.998  20.707  0.00  0.00     0.001 A 
ATOM     54  C23 ROC d          21.044  23.046  21.300  0.00  0.00     0.000 A 
ATOM     55  C22 ROC d          20.380  24.283  21.496  0.00  0.00     0.001 A 
ATOM     56  C20 ROC d          19.054  24.387  21.070  0.00  0.00     0.007 A 
ENDBRANCH  50  51
ENDBRANCH   1  50
TORSDOF 14
