REMARK  9 active torsions:
REMARK  status: ('A' for Active; 'I' for Inactive)
REMARK    1  A    between atoms: PB_1  and  O3A_5 
REMARK    2  A    between atoms: O3A_5  and  PA_6 
REMARK    3  A    between atoms: PA_6  and  O5'_9 
REMARK    4  A    between atoms: O5'_9  and  C5'_10 
REMARK    5  A    between atoms: C5'_10  and  C4'_11 
REMARK    6  A    between atoms: C3'_13  and  O3'_14 
REMARK    7  A    between atoms: C2'_15  and  O2'_16 
REMARK    8  A    between atoms: C1'_17  and  N9_18 
REMARK    9  A    between atoms: C2_25  and  N2_26 
ROOT
ATOM      1  C4' GDP d          -6.456  39.944  25.417  0.00  0.00     0.180 C 
ATOM      2  O4' GDP d          -7.691  40.639  25.294  0.00  0.00    -0.353 OA
ATOM      3  C3' GDP d          -5.405  41.022  25.642  0.00  0.00     0.182 C 
ATOM      4  C2' GDP d          -6.208  42.194  26.154  0.00  0.00     0.198 C 
ATOM      5  C1' GDP d          -7.527  42.045  25.427  0.00  0.00     0.262 C 
ENDROOT
BRANCH   5   6
ATOM      6  N9  GDP d          -8.697  42.548  26.206  0.00  0.00    -0.295 N 
ATOM      7  C8  GDP d          -9.050  42.169  27.461  0.00  0.00     0.214 A 
ATOM      8  N7  GDP d         -10.161  42.818  27.853  0.00  0.00    -0.234 NA
ATOM      9  C5  GDP d         -10.537  43.602  26.830  0.00  0.00     0.171 A 
ATOM     10  C6  GDP d         -11.631  44.528  26.554  0.00  0.00     0.292 A 
ATOM     11  C4  GDP d          -9.564  43.423  25.752  0.00  0.00     0.161 A 
ATOM     12  O6  GDP d         -12.533  44.754  27.388  0.00  0.00    -0.265 OA
ATOM     13  N1  GDP d         -11.653  45.119  25.358  0.00  0.00    -0.154 N 
ATOM     14  C2  GDP d         -10.721  44.905  24.427  0.00  0.00     0.680 A 
ATOM     15  H10 GDP d         -12.400  45.750  25.150  0.00  0.00     0.187 HD
ATOM     16  N3  GDP d          -9.702  44.067  24.568  0.00  0.00    -0.174 N 
ATOM     17  H13 GDP d          -9.035  43.910  23.799  0.00  0.00     0.186 HD
BRANCH  14  18
ATOM     18  N2  GDP d         -10.849  45.541  23.290  0.00  0.00    -0.234 N 
ATOM     19  H11 GDP d         -10.153  45.406  22.543  0.00  0.00     0.174 HD
ATOM     20  H12 GDP d         -11.646  46.177  23.142  0.00  0.00     0.174 HD
ENDBRANCH  14  18
ENDBRANCH   5   6
BRANCH   4  21
ATOM     21  O2' GDP d          -5.641  43.466  25.895  0.00  0.00    -0.388 OA
ATOM     22  H7  GDP d          -5.551  43.586  24.957  0.00  0.00     0.210 HD
ENDBRANCH   4  21
BRANCH   1  23
ATOM     23  C5' GDP d          -6.591  38.924  26.533  0.00  0.00     0.216 C 
BRANCH  23  24
ATOM     24  O5' GDP d          -6.763  39.595  27.781  0.00  0.00    -0.287 OA
BRANCH  24  25
ATOM     25  PA  GDP d          -6.268  38.910  29.124  0.00  0.00     0.418 P 
ATOM     26  O1A GDP d          -4.834  38.565  29.155  0.00  0.00    -0.624 OA
ATOM     27  O2A GDP d          -6.673  39.867  30.235  0.00  0.00    -0.624 OA
BRANCH  25  28
ATOM     28  O3A GDP d          -7.145  37.556  29.137  0.00  0.00    -0.173 OA
BRANCH  28  29
ATOM     29  PB  GDP d          -7.076  36.373  30.207  0.00  0.00     0.431 P 
ATOM     30  O1B GDP d          -6.240  36.720  31.438  0.00  0.00    -0.616 OA
ATOM     31  O2B GDP d          -6.354  35.256  29.530  0.00  0.00    -0.616 OA
ATOM     32  O3B GDP d          -8.523  35.955  30.402  0.00  0.00    -0.616 OA
ENDBRANCH  28  29
ENDBRANCH  25  28
ENDBRANCH  24  25
ENDBRANCH  23  24
ENDBRANCH   1  23
BRANCH   3  33
ATOM     33  O3' GDP d          -4.841  41.369  24.370  0.00  0.00    -0.390 OA
ATOM     34  H5  GDP d          -4.181  42.042  24.490  0.00  0.00     0.210 HD
ENDBRANCH   3  33
TORSDOF 9
