REMARK  6 active torsions:
REMARK  status: ('A' for Active; 'I' for Inactive)
REMARK    1  A    between atoms: O5_1  and  C5_2 
REMARK    2  A    between atoms: C5_2  and  C4_3 
REMARK    3  A    between atoms: C3_5  and  O3_6 
REMARK    4  A    between atoms: C2_7  and  O2_8 
REMARK    5  A    between atoms: C1_9  and  N9_10 
REMARK    6  A    between atoms: C6_14  and  N6_15 
ROOT
ATOM      1  C4  ADN d          31.913  60.025  13.066  0.00  0.00     0.179 C 
ATOM      2  O4  ADN d          31.739  60.032  11.608  0.00  0.00    -0.353 OA
ATOM      3  C3  ADN d          33.442  60.237  13.324  0.00  0.00     0.182 C 
ATOM      4  C2  ADN d          34.028  59.472  12.115  0.00  0.00     0.198 C 
ATOM      5  C1  ADN d          33.053  59.838  10.988  0.00  0.00     0.262 C 
ENDROOT
BRANCH   5   6
ATOM      6  N9  ADN d          33.493  61.072  10.289  0.00  0.00    -0.294 N 
ATOM      7  C8  ADN d          33.109  62.377  10.552  0.00  0.00     0.214 A 
ATOM      8  N7  ADN d          33.656  63.201   9.701  0.00  0.00    -0.236 NA
ATOM      9  C5  ADN d          34.405  62.490   8.831  0.00  0.00     0.149 A 
ATOM     10  C6  ADN d          35.195  62.823   7.719  0.00  0.00     0.155 A 
ATOM     11  C4  ADN d          34.320  61.113   9.193  0.00  0.00     0.167 A 
ATOM     12  N1  ADN d          35.757  61.826   7.011  0.00  0.00    -0.222 NA
ATOM     13  C2  ADN d          35.669  60.528   7.400  0.00  0.00     0.237 A 
ATOM     14  N3  ADN d          34.981  60.174   8.466  0.00  0.00    -0.222 NA
BRANCH  10  15
ATOM     15  N6  ADN d          35.394  64.154   7.388  0.00  0.00    -0.382 N 
ATOM     16  H11 ADN d          35.973  64.401   6.573  0.00  0.00     0.157 HD
ATOM     17  H12 ADN d          34.963  64.896   7.957  0.00  0.00     0.157 HD
ENDBRANCH  10  15
ENDBRANCH   5   6
BRANCH   4  18
ATOM     18  O2  ADN d          34.009  58.048  12.361  0.00  0.00    -0.388 OA
ATOM     19  H8  ADN d          34.529  57.854  13.132  0.00  0.00     0.210 HD
ENDBRANCH   4  18
BRANCH   1  20
ATOM     20  C5  ADN d          31.052  61.097  13.743  0.00  0.00     0.198 C 
BRANCH  20  21
ATOM     21  O5  ADN d          31.363  62.367  13.194  0.00  0.00    -0.398 OA
ATOM     22  H1  ADN d          31.185  62.359  12.261  0.00  0.00     0.209 HD
ENDBRANCH  20  21
ENDBRANCH   1  20
BRANCH   3  23
ATOM     23  O3  ADN d          33.865  59.729  14.610  0.00  0.00    -0.390 OA
ATOM     24  H6  ADN d          33.688  58.797  14.655  0.00  0.00     0.210 HD
ENDBRANCH   3  23
TORSDOF 6
