REMARK  6 active torsions:
REMARK  status: ('A' for Active; 'I' for Inactive)
REMARK       I    between atoms: C1_1  and  N2_2 
REMARK    1  A    between atoms: C1_1  and  C6_5 
REMARK    2  A    between atoms: N2_2  and  C3_3 
REMARK    3  A    between atoms: C6_5  and  S7_6 
REMARK    4  A    between atoms: S7_6  and  C10_7 
REMARK    5  A    between atoms: C13_10  and  C19_13 
REMARK    6  A    between atoms: C27_20  and  O31_21 
ROOT
ATOM      1  C1  1E7 d          14.159   9.901  27.222  0.00  0.00     0.231 C 
ATOM      2  N2  1E7 d          13.606  10.858  28.085  0.00  0.00    -0.324 N 
ATOM      3  O4  1E7 d          15.074   9.090  27.621  0.00  0.00    -0.272 OA
ATOM      4  H1  1E7 d          12.726  11.228  27.788  0.00  0.00     0.169 HD
ENDROOT
BRANCH   1   5
ATOM      5  C6  1E7 d          13.638   9.833  25.761  0.00  0.00     0.184 C 
BRANCH   5   6
ATOM      6  S7  1E7 d          12.156   8.760  25.652  0.00  0.00    -0.101 SA
BRANCH   6   7
ATOM      7  C10 1E7 d          10.802   9.886  26.153  0.00  0.00     0.093 A 
ATOM      8  C11 1E7 d           9.435   9.452  26.020  0.00  0.00     0.040 A 
ATOM      9  C12 1E7 d           8.377  10.386  26.438  0.00  0.00     0.022 A 
ATOM     10  C13 1E7 d           8.698  11.702  26.965  0.00  0.00     0.058 A 
ATOM     11  C14 1E7 d          10.099  12.024  27.049  0.00  0.00     0.136 A 
ATOM     12  N15 1E7 d          11.127  11.122  26.646  0.00  0.00    -0.253 NA
BRANCH  10  13
ATOM     13  C19 1E7 d           7.593  12.682  27.410  0.00  0.00     0.210 C 
ATOM     14  O20 1E7 d           7.762  14.049  27.172  0.00  0.00    -0.644 OA
ATOM     15  O21 1E7 d           6.575  12.283  27.971  0.00  0.00    -0.644 OA
ENDBRANCH  10  13
ENDBRANCH   6   7
ENDBRANCH   5   6
ENDBRANCH   1   5
BRANCH   2  16
ATOM     16  C3  1E7 d          14.108  11.411  29.362  0.00  0.00     0.070 A 
ATOM     17  C23 1E7 d          15.346  10.978  30.027  0.00  0.00     0.056 A 
ATOM     18  C24 1E7 d          15.812  11.566  31.302  0.00  0.00     0.036 A 
ATOM     19  C25 1E7 d          15.045  12.597  31.928  0.00  0.00     0.026 A 
ATOM     20 CL3  1E7 d          17.297  11.011  32.054  0.00  0.00    -0.084 Cl
ATOM     21  C26 1E7 d          13.828  13.049  31.316  0.00  0.00     0.041 A 
ATOM     22  C27 1E7 d          13.320  12.493  30.042  0.00  0.00     0.095 A 
BRANCH  22  23
ATOM     23  O31 1E7 d          12.103  12.917  29.397  0.00  0.00    -0.354 OA
ATOM     24  C33 1E7 d          11.157  13.727  30.144  0.00  0.00     0.210 C 
ENDBRANCH  22  23
ENDBRANCH   2  16
TORSDOF 6
