REMARK  2 active torsions:
REMARK  status: ('A' for Active; 'I' for Inactive)
REMARK    1  A    between atoms: C7_2  and  CG_3 
REMARK    2  A    between atoms: C1_8  and  O1_9 
ROOT
ATOM      1  CG  ETY d          25.301  38.427  42.499  0.00  0.00    -0.058 A 
ATOM      2  C3  ETY d          24.463  38.912  43.535  0.00  0.00     0.010 A 
ATOM      3  C2  ETY d          23.057  38.838  43.426  0.00  0.00     0.037 A 
ATOM      4  C5  ETY d          24.693  37.860  41.343  0.00  0.00     0.010 A 
ATOM      5  C6  ETY d          23.289  37.782  41.225  0.00  0.00     0.037 A 
ATOM      6  C1  ETY d          22.478  38.273  42.272  0.00  0.00     0.065 A 
ENDROOT
BRANCH   1   7
ATOM      7  C7  ETY d          26.796  38.506  42.616  0.00  0.00     0.034 C 
ATOM      8  C8  ETY d          27.394  37.413  43.508  0.00  0.00     0.010 C 
ENDBRANCH   1   7
BRANCH   6   9
ATOM      9  O1  ETY d          21.115  38.201  42.163  0.00  0.00    -0.361 OA
ATOM     10  H10 ETY d          20.716  38.569  42.943  0.00  0.00     0.217 HD
ENDBRANCH   6   9
TORSDOF 2
