REMARK  14 active torsions:
REMARK  status: ('A' for Active; 'I' for Inactive)
REMARK    1  A    between atoms: C2_1  and  O39_38 
REMARK    2  A    between atoms: S8_7  and  C5_4 
REMARK    3  A    between atoms: N11_10  and  S8_7 
REMARK    4  A    between atoms: N11_10  and  C12_11 
REMARK    5  A    between atoms: C16_15  and  N11_10 
REMARK    6  A    between atoms: C12_11  and  C13_12 
REMARK    7  A    between atoms: C17_16  and  C16_15 
REMARK    8  A    between atoms: C17_16  and  O18_17 
REMARK    9  A    between atoms: C19_18  and  C17_16 
REMARK   10  A    between atoms: C19_18  and  N20_19 
REMARK   11  A    between atoms: C32_31  and  C19_18 
REMARK       I    between atoms: N20_19  and  C21_20 
REMARK   12  A    between atoms: C21_20  and  O23_22 
REMARK   13  A    between atoms: O23_22  and  C24_23 
REMARK   14  A    between atoms: C38_37  and  C32_31 
ROOT
ATOM      1  C19 G52 d          15.103  22.932  16.931  0.00  0.00     0.121 C 
ENDROOT
BRANCH   1   2
ATOM      2  C17 G52 d          15.444  24.091  17.870  0.00  0.00     0.160 C 
BRANCH   2   3
ATOM      3  C16 G52 d          16.598  24.944  17.342  0.00  0.00     0.169 C 
BRANCH   3   4
ATOM      4  N11 G52 d          17.848  24.184  17.365  0.00  0.00    -0.304 N 
BRANCH   4   5
ATOM      5  S8  G52 d          18.563  23.948  15.908  0.00  0.00     0.260 S 
ATOM      6  O9  G52 d          17.496  23.772  14.880  0.00  0.00    -0.200 OA
ATOM      7  O10 G52 d          19.457  22.759  16.002  0.00  0.00    -0.200 OA
BRANCH   5   8
ATOM      8  C5  G52 d          19.516  25.365  15.486  0.00  0.00     0.079 A 
ATOM      9  C4  G52 d          18.926  26.445  14.831  0.00  0.00     0.028 A 
ATOM     10  C3  G52 d          19.684  27.573  14.535  0.00  0.00     0.038 A 
ATOM     11  C2  G52 d          21.030  27.665  14.900  0.00  0.00     0.068 A 
ATOM     12  C7  G52 d          21.636  26.572  15.527  0.00  0.00     0.038 A 
ATOM     13  C6  G52 d          20.856  25.457  15.823  0.00  0.00     0.028 A 
BRANCH  11  14
ATOM     14  O39 G52 d          21.694  28.825  14.673  0.00  0.00    -0.356 OA
ATOM     15  C40 G52 d          23.073  28.731  15.037  0.00  0.00     0.210 C 
ENDBRANCH  11  14
ENDBRANCH   5   8
ENDBRANCH   4   5
BRANCH   4  16
ATOM     16  C12 G52 d          18.745  24.552  18.441  0.00  0.00     0.139 C 
BRANCH  16  17
ATOM     17  C13 G52 d          18.439  23.832  19.764  0.00  0.00    -0.004 C 
ATOM     18  C14 G52 d          18.664  22.315  19.669  0.00  0.00     0.011 C 
ATOM     19  C15 G52 d          19.360  24.383  20.869  0.00  0.00     0.011 C 
ENDBRANCH  16  17
ENDBRANCH   4  16
ENDBRANCH   3   4
ENDBRANCH   2   3
BRANCH   2  20
ATOM     20  O18 G52 d          14.278  24.873  18.149  0.00  0.00    -0.392 OA
ATOM     21  H17 G52 d          13.588  24.306  18.474  0.00  0.00     0.210 HD
ENDBRANCH   2  20
ENDBRANCH   1   2
BRANCH   1  22
ATOM     22  N20 G52 d          14.191  22.013  17.617  0.00  0.00    -0.329 N 
ATOM     23  C21 G52 d          14.462  20.751  17.968  0.00  0.00     0.361 C 
ATOM     24  O22 G52 d          15.569  20.232  17.775  0.00  0.00    -0.238 OA
ATOM     25  H19 G52 d          13.282  22.362  17.844  0.00  0.00     0.165 HD
BRANCH  23  26
ATOM     26  O23 G52 d          13.420  20.086  18.532  0.00  0.00    -0.296 OA
BRANCH  26  27
ATOM     27  C24 G52 d          13.686  18.706  18.802  0.00  0.00     0.166 C 
ATOM     28  C25 G52 d          13.226  18.440  20.239  0.00  0.00     0.204 C 
ATOM     29  O26 G52 d          11.799  18.287  20.179  0.00  0.00    -0.358 OA
ATOM     30  C27 G52 d          11.440  17.936  18.851  0.00  0.00     0.270 C 
ATOM     31  O28 G52 d          10.648  18.988  18.313  0.00  0.00    -0.331 OA
ATOM     32  C31 G52 d          12.686  17.857  17.999  0.00  0.00     0.082 C 
ATOM     33  C29 G52 d          11.107  19.404  17.049  0.00  0.00     0.267 C 
ATOM     34  C30 G52 d          12.281  18.506  16.667  0.00  0.00     0.054 C 
ATOM     35  O41 G52 d          10.089  19.131  16.079  0.00  0.00    -0.361 OA
ATOM     36  C43 G52 d          11.656  17.499  15.701  0.00  0.00     0.036 C 
ATOM     37  C42 G52 d          10.153  17.714  15.848  0.00  0.00     0.171 C 
ENDBRANCH  26  27
ENDBRANCH  23  26
ENDBRANCH   1  22
BRANCH   1  38
ATOM     38  C32 G52 d          14.396  23.436  15.670  0.00  0.00     0.066 C 
BRANCH  38  39
ATOM     39  C38 G52 d          14.075  22.256  14.745  0.00  0.00    -0.056 A 
ATOM     40  C33 G52 d          12.763  21.830  14.584  0.00  0.00     0.007 A 
ATOM     41  C34 G52 d          12.474  20.744  13.759  0.00  0.00     0.001 A 
ATOM     42  C35 G52 d          13.495  20.075  13.081  0.00  0.00     0.000 A 
ATOM     43  C36 G52 d          14.801  20.545  13.206  0.00  0.00     0.001 A 
ATOM     44  C37 G52 d          15.093  21.620  14.050  0.00  0.00     0.007 A 
ENDBRANCH  38  39
ENDBRANCH   1  38
TORSDOF 14
