REMARK  2 active torsions:
REMARK  status: ('A' for Active; 'I' for Inactive)
REMARK    1  A    between atoms: C5_2  and  C10_5 
REMARK    2  A    between atoms: C8_4  and  C13_6 
REMARK       I    between atoms: C10_5  and  N11_14 
ROOT
ATOM      1  C4  MOL d          -4.530  34.259  39.610  0.00  0.00     0.078 A 
ATOM      2  C5  MOL d          -4.628  33.822  40.928  0.00  0.00     0.060 A 
ATOM      3  C6  MOL d          -5.853  33.354  41.412  0.00  0.00     0.019 A 
ATOM      4  C8  MOL d          -4.036  34.980  37.659  0.00  0.00     0.141 A 
ATOM      5  C1  MOL d          -6.992  33.335  40.608  0.00  0.00     0.003 A 
ATOM      6  C2  MOL d          -6.877  33.776  39.311  0.00  0.00     0.034 A 
ATOM      7  C3  MOL d          -5.662  34.222  38.808  0.00  0.00     0.086 A 
ATOM      8  N7  MOL d          -5.307  34.657  37.602  0.00  0.00    -0.231 NA
ATOM      9  N9  MOL d          -3.528  34.775  38.855  0.00  0.00    -0.340 N 
ATOM     10  H8  MOL d          -2.562  34.968  39.158  0.00  0.00     0.167 HD
ENDROOT
BRANCH   4  11
ATOM     11  C13 MOL d          -3.278  35.602  36.493  0.00  0.00     0.181 C 
ATOM     12  C17 MOL d          -3.866  36.973  36.238  0.00  0.00     0.048 C 
ATOM     13  C16 MOL d          -3.121  37.894  37.179  0.00  0.00     0.030 C 
ATOM     14  C15 MOL d          -1.802  37.172  37.501  0.00  0.00     0.233 C 
ATOM     15  N14 MOL d          -1.866  35.835  36.874  0.00  0.00    -0.059 N 
ATOM     16  H11 MOL d          -1.278  35.808  36.056  0.00  0.00     0.278 HD
ATOM     17  H12 MOL d          -1.563  35.131  37.529  0.00  0.00     0.278 HD
ATOM     18  C18 MOL d          -3.437  34.797  35.211  0.00  0.00     0.055 C 
ENDBRANCH   4  11
BRANCH   2  19
ATOM     19  C10 MOL d          -3.422  33.805  41.873  0.00  0.00     0.251 C 
ATOM     20  N11 MOL d          -2.278  34.235  41.379  0.00  0.00    -0.366 N 
ATOM     21  H9  MOL d          -1.458  34.246  41.952  0.00  0.00     0.159 HD
ATOM     22  H10 MOL d          -2.230  34.550  40.431  0.00  0.00     0.159 HD
ATOM     23  O12 MOL d          -3.500  33.315  42.996  0.00  0.00    -0.268 OA
ENDBRANCH   2  19
TORSDOF 2
