REMARK  19 active torsions:
REMARK  status: ('A' for Active; 'I' for Inactive)
REMARK    1  A    between atoms: C_1  and  CA_4 
REMARK       I    between atoms: NBY_49  and  C_1 
REMARK    2  A    between atoms: CBK_37  and  OAF_9 
REMARK    3  A    between atoms: CBL_38  and  OAG_10 
REMARK    4  A    between atoms: CBM_39  and  OAH_11 
REMARK    5  A    between atoms: CBN_40  and  OAI_12 
REMARK    6  A    between atoms: CBO_41  and  OAJ_13 
REMARK    7  A    between atoms: CBP_42  and  OAK_14 
REMARK    8  A    between atoms: CAU_24  and  CAW_26 
REMARK    9  A    between atoms: CAY_28  and  CAU_24 
REMARK   10  A    between atoms: CAX_27  and  CAV_25 
REMARK   11  A    between atoms: CAV_25  and  CAZ_29 
REMARK   12  A    between atoms: CAW_26  and  NBB_30 
REMARK   13  A    between atoms: NBC_31  and  CAX_27 
REMARK   14  A    between atoms: NBY_49  and  CAY_28 
REMARK   15  A    between atoms: CAZ_29  and  NBY_49 
REMARK       I    between atoms: NBB_30  and  CBG_34 
REMARK       I    between atoms: CBH_35  and  NBC_31 
REMARK   16  A    between atoms: CBG_34  and  CBQ_43 
REMARK   17  A    between atoms: CBX_48  and  CBH_35 
REMARK   18  A    between atoms: CBJ_36  and  CBR_44 
REMARK   19  A    between atoms: CBS_45  and  CBW_47 
ROOT
ATOM      1  C   VBN d          24.588  18.115   4.483  0.00  0.00     0.253 C 
ATOM      2  O   VBN d          23.748  18.830   4.918  0.00  0.00    -0.271 OA
ATOM      3  NBY VBN d          25.708  18.666   3.729  0.00  0.00    -0.350 N 
ENDROOT
BRANCH   3   4
ATOM      4  CAY VBN d          25.699  20.103   3.439  0.00  0.00     0.127 C 
BRANCH   4   5
ATOM      5  CAU VBN d          26.385  21.003   4.469  0.00  0.00     0.039 C 
BRANCH   5   6
ATOM      6  CAW VBN d          25.550  21.343   5.715  0.00  0.00     0.124 C 
BRANCH   6   7
ATOM      7  NBB VBN d          25.474  20.319   6.754  0.00  0.00    -0.357 N 
ATOM      8  CBG VBN d          26.079  20.553   8.045  0.00  0.00     0.254 C 
ATOM      9  OAC VBN d          26.684  21.539   8.282  0.00  0.00    -0.268 OA
ATOM     10  H35 VBN d          25.003  19.456   6.572  0.00  0.00     0.162 HD
BRANCH   8  11
ATOM     11  CBQ VBN d          25.822  19.557   9.170  0.00  0.00     0.067 A 
ATOM     12  CAR VBN d          26.066  19.960  10.443  0.00  0.00     0.020 A 
ATOM     13  CAL VBN d          25.790  19.058  11.535  0.00  0.00     0.004 A 
ATOM     14  CAO VBN d          25.265  17.746  11.282  0.00  0.00     0.039 A 
ATOM     15  CBK VBN d          25.020  17.340   9.938  0.00  0.00     0.099 A 
ATOM     16  CBN VBN d          25.273  18.191   8.902  0.00  0.00     0.114 A 
BRANCH  15  17
ATOM     17  OAF VBN d          24.538  16.083   9.645  0.00  0.00    -0.358 OA
ATOM     18  H8  VBN d          24.438  15.995   8.704  0.00  0.00     0.217 HD
ENDBRANCH  15  17
BRANCH  16  19
ATOM     19  OAI VBN d          25.047  17.727   7.615  0.00  0.00    -0.357 OA
ATOM     20  H11 VBN d          25.594  16.967   7.453  0.00  0.00     0.217 HD
ENDBRANCH  16  19
ENDBRANCH   8  11
ENDBRANCH   6   7
ENDBRANCH   5   6
ENDBRANCH   4   5
ENDBRANCH   3   4
BRANCH   3  21
ATOM     21  CAZ VBN d          26.717  17.787   3.130  0.00  0.00     0.127 C 
BRANCH  21  22
ATOM     22  CAV VBN d          27.998  18.493   2.654  0.00  0.00     0.039 C 
BRANCH  22  23
ATOM     23  CAX VBN d          29.161  17.545   2.279  0.00  0.00     0.124 C 
BRANCH  23  24
ATOM     24  NBC VBN d          29.649  16.829   3.456  0.00  0.00    -0.359 N 
ATOM     25  CBH VBN d          29.181  15.472   3.753  0.00  0.00     0.251 C 
ATOM     26  OAD VBN d          28.433  14.866   3.041  0.00  0.00    -0.271 OA
ATOM     27  H36 VBN d          30.309  17.269   4.065  0.00  0.00     0.162 HD
BRANCH  25  28
ATOM     28  CBX VBN d          29.584  14.936   5.121  0.00  0.00     0.308 C 
ATOM     29  NBD VBN d          28.453  14.752   6.041  0.00  0.00    -0.029 N 
ATOM     30  CBW VBN d          28.173  13.360   5.877  0.00  0.00     0.359 C 
ATOM     31  H37 VBN d          28.713  14.966   6.991  0.00  0.00     0.281 HD
ATOM     32  H38 VBN d          27.665  15.320   5.773  0.00  0.00     0.281 HD
ATOM     33  OBF VBN d          29.332  12.608   5.689  0.00  0.00    -0.348 OA
ATOM     34  CBU VBN d          30.381  13.539   5.178  0.00  0.00     0.160 C 
ATOM     35  CAB VBN d          31.692  13.467   5.941  0.00  0.00     0.042 C 
BRANCH  30  36
ATOM     36  CBS VBN d          27.079  12.687   6.656  0.00  0.00     0.033 A 
ATOM     37  CAT VBN d          27.074  11.368   6.918  0.00  0.00     0.014 A 
ATOM     38  CAN VBN d          25.960  10.769   7.560  0.00  0.00     0.004 A 
ATOM     39  CAQ VBN d          24.813  11.552   7.916  0.00  0.00     0.039 A 
ATOM     40  CBM VBN d          24.820  12.913   7.620  0.00  0.00     0.099 A 
ATOM     41  CBP VBN d          25.898  13.485   7.000  0.00  0.00     0.109 A 
BRANCH  40  42
ATOM     42  OAH VBN d          23.735  13.727   7.898  0.00  0.00    -0.358 OA
ATOM     43  H10 VBN d          23.929  14.616   7.625  0.00  0.00     0.217 HD
ENDBRANCH  40  42
BRANCH  41  44
ATOM     44  OAK VBN d          25.947  14.843   6.787  0.00  0.00    -0.357 OA
ATOM     45  H13 VBN d          25.902  15.295   7.621  0.00  0.00     0.217 HD
ENDBRANCH  41  44
ENDBRANCH  30  36
ENDBRANCH  25  28
ENDBRANCH  23  24
ENDBRANCH  22  23
ENDBRANCH  21  22
ENDBRANCH   3  21
BRANCH   1  46
ATOM     46  CA  VBN d          24.435  16.600   4.511  0.00  0.00     0.308 C 
ATOM     47  N   VBN d          23.568  16.049   5.538  0.00  0.00    -0.029 N 
ATOM     48  CBJ VBN d          22.254  16.061   4.950  0.00  0.00     0.359 C 
ATOM     49  H1  VBN d          23.592  16.621   6.368  0.00  0.00     0.281 HD
ATOM     50  H2  VBN d          23.845  15.108   5.770  0.00  0.00     0.281 HD
ATOM     51  OG1 VBN d          22.339  15.881   3.553  0.00  0.00    -0.348 OA
ATOM     52  CB  VBN d          23.788  15.996   3.208  0.00  0.00     0.160 C 
ATOM     53  CG2 VBN d          24.469  14.808   2.547  0.00  0.00     0.042 C 
BRANCH  48  54
ATOM     54  CBR VBN d          21.045  15.570   5.707  0.00  0.00     0.033 A 
ATOM     55  CAS VBN d          19.953  15.199   5.031  0.00  0.00     0.014 A 
ATOM     56  CAM VBN d          18.780  14.917   5.746  0.00  0.00     0.004 A 
ATOM     57  CAP VBN d          18.745  15.043   7.164  0.00  0.00     0.039 A 
ATOM     58  CBL VBN d          19.893  15.461   7.862  0.00  0.00     0.099 A 
ATOM     59  CBO VBN d          21.002  15.727   7.169  0.00  0.00     0.109 A 
BRANCH  58  60
ATOM     60  OAG VBN d          19.889  15.596   9.238  0.00  0.00    -0.358 OA
ATOM     61  H9  VBN d          20.746  15.885   9.529  0.00  0.00     0.217 HD
ENDBRANCH  58  60
BRANCH  59  62
ATOM     62  OAJ VBN d          22.152  16.078   7.807  0.00  0.00    -0.357 OA
ATOM     63  H12 VBN d          22.415  15.377   8.391  0.00  0.00     0.217 HD
ENDBRANCH  59  62
ENDBRANCH  48  54
ENDBRANCH   1  46
TORSDOF 19
