REMARK  4 active torsions:
REMARK  status: ('A' for Active; 'I' for Inactive)
REMARK    1  A    between atoms: CAO_6  and  CAL_7 
REMARK    2  A    between atoms: CAL_7  and  CAP_8 
REMARK    3  A    between atoms: CAQ_13  and  CAS_14 
REMARK    4  A    between atoms: CAR_16  and  NAA_17 
ROOT
ATOM      1  CAP MOL d          13.775 -14.029  16.879  0.00  0.00    -0.054 A 
ATOM      2  CAH MOL d          13.298 -14.522  18.086  0.00  0.00     0.008 A 
ATOM      3  CAJ MOL d          12.108 -15.229  18.238  0.00  0.00     0.014 A 
ATOM      4  CAG MOL d          12.930 -14.214  15.804  0.00  0.00     0.008 A 
ATOM      5  CAI MOL d          11.716 -14.908  15.967  0.00  0.00     0.014 A 
ATOM      6  CAQ MOL d          11.284 -15.492  17.162  0.00  0.00    -0.007 A 
ENDROOT
BRANCH   6   7
ATOM      7  CAS MOL d          10.058 -16.131  17.348  0.00  0.00     0.076 A 
ATOM      8  NAM MOL d           9.392 -16.822  16.427  0.00  0.00    -0.224 NA
ATOM      9  CAR MOL d           8.208 -17.400  16.819  0.00  0.00     0.164 A 
ATOM     10  SAN MOL d           7.784 -17.011  18.390  0.00  0.00    -0.062 SA
ATOM     11  CAK MOL d           9.382 -16.081  18.494  0.00  0.00     0.085 A 
BRANCH   9  12
ATOM     12  NAA MOL d           7.322 -18.092  16.107  0.00  0.00    -0.378 N 
ATOM     13  H   MOL d           7.536 -18.356  15.135  0.00  0.00     0.158 HD
ATOM     14  H   MOL d           6.422 -18.364  16.528  0.00  0.00     0.158 HD
ENDBRANCH   9  12
ENDBRANCH   6   7
BRANCH   1  15
ATOM     15  CAL MOL d          15.022 -13.277  16.804  0.00  0.00     0.077 C 
BRANCH  15  16
ATOM     16  CAO MOL d          15.089 -12.078  16.001  0.00  0.00    -0.054 C 
ATOM     17  CAE MOL d          15.901 -11.976  14.868  0.00  0.00     0.007 C 
ATOM     18  CAC MOL d          15.991 -10.776  14.197  0.00  0.00     0.001 C 
ATOM     19  CAB MOL d          15.298  -9.660  14.589  0.00  0.00     0.000 C 
ATOM     20  CAD MOL d          14.548  -9.747  15.774  0.00  0.00     0.001 C 
ATOM     21  CAF MOL d          14.530 -10.917  16.501  0.00  0.00     0.007 C 
ENDBRANCH  15  16
ENDBRANCH   1  15
TORSDOF 4
