REMARK  4 active torsions:
REMARK  status: ('A' for Active; 'I' for Inactive)
REMARK    1  A    between atoms: N_1  and  CA_2 
REMARK    2  A    between atoms: CA_2  and  C_3 
REMARK    3  A    between atoms: CA_2  and  CB_5 
REMARK    4  A    between atoms: CB_5  and  CG_6 
ROOT
ATOM      1  CA  ASP d           2.947  50.723  -7.964  0.00  0.00     0.293 C 
ENDROOT
BRANCH   1   2
ATOM      2  N   ASP d           3.421  49.324  -7.798  0.00  0.00    -0.065 N 
ATOM      3  H1  ASP d           4.372  49.251  -8.123  0.00  0.00     0.275 HD
ATOM      4  H2  ASP d           2.834  48.705  -8.335  0.00  0.00     0.275 HD
ATOM      5  H3  ASP d           3.378  49.068  -6.824  0.00  0.00     0.275 HD
ENDBRANCH   1   2
BRANCH   1   6
ATOM      6  C   ASP d           1.524  50.859  -7.485  0.00  0.00     0.205 C 
ATOM      7  O   ASP d           0.788  49.851  -7.281  0.00  0.00    -0.646 OA
ATOM      8  OXT ASP d           1.072  51.998  -7.304  0.00  0.00    -0.646 OA
ENDBRANCH   1   6
BRANCH   1   9
ATOM      9  CB  ASP d           3.011  51.181  -9.434  0.00  0.00     0.157 C 
BRANCH   9  10
ATOM     10  CG  ASP d           4.401  51.583  -9.863  0.00  0.00     0.175 C 
ATOM     11  OD1 ASP d           4.738  51.393 -11.075  0.00  0.00    -0.648 OA
ATOM     12  OD2 ASP d           5.162  52.103  -9.008  0.00  0.00    -0.648 OA
ENDBRANCH   9  10
ENDBRANCH   1   9
TORSDOF 4
