REMARK  7 active torsions:
REMARK  status: ('A' for Active; 'I' for Inactive)
REMARK    1  A    between atoms: C4'_2  and  O2'_3 
REMARK    2  A    between atoms: O2'_3  and  C3'_4 
REMARK    3  A    between atoms: C3'_4  and  C2'_6 
REMARK    4  A    between atoms: C2'_6  and  C1'_7 
REMARK    5  A    between atoms: C1'_7  and  C1_8 
REMARK    6  A    between atoms: C4_12  and  O4_13 
REMARK    7  A    between atoms: C3_14  and  O3_15 
ROOT
ATOM      1  C1  MOL d           6.650 -17.190 115.482  0.00  0.00    -0.033 A 
ATOM      2  C2  MOL d           6.878 -18.244 114.604  0.00  0.00     0.050 A 
ATOM      3  C6  MOL d           5.935 -16.076 115.058  0.00  0.00     0.014 A 
ATOM      4  C5  MOL d           5.439 -16.016 113.759  0.00  0.00     0.040 A 
ATOM      5  C4  MOL d           5.661 -17.074 112.884  0.00  0.00     0.098 A 
ATOM      6  C3  MOL d           6.380 -18.187 113.305  0.00  0.00     0.099 A 
ENDROOT
BRANCH   1   7
ATOM      7  C1' MOL d           7.101 -17.252 116.940  0.00  0.00     0.017 C 
BRANCH   7   8
ATOM      8  C2' MOL d           7.787 -18.577 117.269  0.00  0.00     0.083 C 
BRANCH   8   9
ATOM      9  C3' MOL d           8.149 -18.640 118.754  0.00  0.00     0.282 C 
ATOM     10  O1' MOL d           7.692 -17.823 119.553  0.00  0.00    -0.260 OA
BRANCH   9  11
ATOM     11  O2' MOL d           8.977 -19.633 119.175  0.00  0.00    -0.319 OA
BRANCH  11  12
ATOM     12  C4' MOL d           9.189 -19.574 120.590  0.00  0.00     0.174 C 
ATOM     13  C5' MOL d           9.877 -20.874 121.019  0.00  0.00     0.034 C 
ENDBRANCH  11  12
ENDBRANCH   9  11
ENDBRANCH   8   9
ENDBRANCH   7   8
ENDBRANCH   1   7
BRANCH   6  14
ATOM     14  O3  MOL d           6.570 -19.219 112.440  0.00  0.00    -0.358 OA
ATOM     15  H12 MOL d           7.075 -19.901 112.868  0.00  0.00     0.217 HD
ENDBRANCH   6  14
BRANCH   5  16
ATOM     16  O4  MOL d           5.178 -17.018 111.615  0.00  0.00    -0.358 OA
ATOM     17  H11 MOL d           5.415 -17.813 111.152  0.00  0.00     0.217 HD
ENDBRANCH   5  16
TORSDOF 7
