REMARK  4 active torsions:
REMARK  status: ('A' for Active; 'I' for Inactive)
REMARK    1  A    between atoms: N1_3  and  C6_4 
REMARK    2  A    between atoms: C6_4  and  C8_5 
REMARK    3  A    between atoms: C18_21  and  C19_25 
REMARK    4  A    between atoms: C2_22  and  O1_23 
ROOT
ATOM      1  O2  MOL d           3.030  -5.500  26.548  0.00  0.00    -0.246 OA
ATOM      2  C13 MOL d           2.632  -5.591  25.396  0.00  0.00     0.328 A 
ATOM      3  N1  MOL d           2.227  -6.757  24.766  0.00  0.00    -0.286 N 
ATOM      4  N3  MOL d           2.494  -4.604  24.494  0.00  0.00    -0.305 N 
ATOM      5  C14 MOL d           2.010  -5.112  23.302  0.00  0.00     0.082 A 
ATOM      6  C5  MOL d           1.837  -6.461  23.452  0.00  0.00     0.080 A 
ATOM      7  C15 MOL d           1.710  -4.488  22.098  0.00  0.00     0.149 A 
ATOM      8  N4  MOL d           1.249  -5.164  21.059  0.00  0.00    -0.258 NA
ATOM      9  C16 MOL d           1.063  -6.499  21.169  0.00  0.00     0.070 A 
ATOM     10  C4  MOL d           1.342  -7.233  22.359  0.00  0.00     0.025 A 
ATOM     11  C3  MOL d           1.127  -8.597  22.382  0.00  0.00     0.053 A 
ATOM     12  C17 MOL d           0.567  -7.187  20.037  0.00  0.00     0.048 A 
ATOM     13  C18 MOL d           0.361  -8.544  20.096  0.00  0.00     0.014 A 
ATOM     14  C2  MOL d           0.642  -9.241  21.277  0.00  0.00     0.080 A 
ATOM     15  H9  MOL d           2.710  -3.642  24.661  0.00  0.00     0.171 HD
ENDROOT
BRANCH   3  16
ATOM     16  C6  MOL d           2.260  -8.060  25.512  0.00  0.00     0.142 C 
ATOM     17  C7  MOL d           3.303  -8.994  24.939  0.00  0.00     0.039 C 
BRANCH  16  18
ATOM     18  C8  MOL d           0.912  -8.710  25.610  0.00  0.00     0.057 A 
ATOM     19  N2  MOL d           0.890 -10.050  25.634  0.00  0.00    -0.263 NA
ATOM     20  C12 MOL d          -0.310 -10.633  25.726  0.00  0.00     0.117 A 
ATOM     21  C11 MOL d          -1.494  -9.939  25.797  0.00  0.00     0.019 A 
ATOM     22  C10 MOL d          -1.440  -8.570  25.775  0.00  0.00     0.003 A 
ATOM     23  C9  MOL d          -0.225  -7.935  25.680  0.00  0.00     0.029 A 
ENDBRANCH  16  18
ENDBRANCH   3  16
BRANCH  14  24
ATOM     24  O1  MOL d           0.382 -10.583  21.195  0.00  0.00    -0.355 OA
ATOM     25  C1  MOL d           0.789 -11.409  22.281  0.00  0.00     0.210 C 
ENDBRANCH  14  24
BRANCH  13  26
ATOM     26  C19 MOL d          -0.196  -9.238  18.913  0.00  0.00     0.035 A 
ATOM     27  C22 MOL d           0.355 -10.302  18.276  0.00  0.00     0.088 A 
ATOM     28  C23 MOL d           1.589 -11.078  18.481  0.00  0.00     0.080 C 
ATOM     29  O3  MOL d          -0.444 -10.692  17.243  0.00  0.00    -0.217 OA
ATOM     30  N5  MOL d          -1.540  -9.832  17.237  0.00  0.00    -0.133 NA
ATOM     31  C20 MOL d          -1.402  -8.955  18.231  0.00  0.00     0.072 A 
ATOM     32  C21 MOL d          -2.299  -7.991  18.484  0.00  0.00     0.074 C 
ENDBRANCH  13  26
TORSDOF 4
