4zj4_ligand

Created by X-TOOL on Sun Nov 13 14:28:45 2016
150153  0  0  0  0  0  0  0  0999 V2000
  -33.3330  -11.0290   -2.3220  N 0  3  0  4  0  4
  -32.9550  -12.1130   -3.2830  C 0  0  0  2  0  4
  -34.1840  -12.6860   -3.9930  C 0  0  0  1  0  3
  -35.2360  -12.8440   -3.3670  O 0  0  0  1  0  1
  -32.1700  -13.2300   -2.5790  C 0  0  0  3  0  4
  -32.8330  -13.7420   -0.9770  S 0  0  0  1  0  2
  -34.0570  -12.9890   -5.3040  N 0  0  0  1  0  3
  -35.1490  -13.6050   -6.0750  C 0  0  0  2  0  4
  -35.5720  -14.9800   -5.5580  C 0  0  0  1  0  3
  -34.7650  -15.6960   -4.9620  O 0  0  0  1  0  1
  -34.5580  -13.7450   -7.4840  C 0  0  0  3  0  4
  -33.4710  -12.7410   -7.5540  C 0  0  0  3  0  4
  -32.9180  -12.6230   -6.1670  C 0  0  0  3  0  4
  -36.8240  -15.3460   -5.8290  N 0  0  0  2  0  3
  -37.4170  -16.6000   -5.3590  C 0  0  0  2  0  4
  -36.6610  -17.8640   -5.7890  C 0  0  0  1  0  3
  -36.7450  -18.8870   -5.1090  O 0  0  0  1  0  1
  -38.8690  -16.6930   -5.8150  C 0  0  0  4  0  4
  -35.9440  -17.8040   -6.9120  N 0  0  0  2  0  3
  -35.1690  -18.9610   -7.3860  C 0  0  0  2  0  4
  -34.0080  -19.3010   -6.4500  C 0  0  0  1  0  3
  -33.5530  -20.4450   -6.4110  O 0  0  0  1  0  1
  -34.6760  -18.7580   -8.8260  C 0  0  0  3  0  4
  -33.6450  -17.6590   -9.0480  C 0  0  0  3  0  4
  -33.4860  -17.3870  -10.5390  C 0  0  0  3  0  4
  -32.4490  -16.4050  -10.8560  N 0  0  0  2  0  3
  -32.6170  -15.0830  -10.8720  C 0  3  0  1  0  3
  -33.7920  -14.5310  -10.5690  N 0  0  0  3  0  3
  -31.5950  -14.2970  -11.1900  N 0  0  0  3  0  3
  -33.5590  -18.3370   -5.6710  N 0  0  0  2  0  3
  -32.5350  -18.6110   -4.6360  C 0  0  0  2  0  4
  -33.0180  -19.2000   -3.3310  C 0  0  0  1  0  3
  -34.1450  -19.5020   -3.1950  O 0  0  0  1  0  1
  -31.6600  -17.3850   -4.3820  C 0  0  0  3  0  4
  -30.9540  -16.9040   -5.6040  C 0  0  0  1  0  3
  -31.5670  -16.0310   -6.4590  C 0  0  0  2  0  3
  -29.6900  -17.3480   -5.9210  C 0  0  0  2  0  3
  -30.9570  -15.6280   -7.6080  C 0  0  0  2  0  3
  -29.0770  -16.9550   -7.0810  C 0  0  0  2  0  3
  -29.7130  -16.0590   -7.9100  C 0  0  0  2  0  3
  -32.1580  -19.8780   -2.4800  N 0  0  0  2  0  3
  -32.5310  -20.8330   -1.4640  C 0  0  0  2  0  4
  -32.3610  -20.3510   -0.0410  C 0  0  0  1  0  3
  -32.8360  -20.9360    0.8420  O 0  0  0  1  0  1
  -31.7930  -22.1630   -1.6870  C 0  0  0  4  0  4
  -32.0830  -19.0850    0.1320  N 0  0  0  2  0  3
  -32.1030  -18.5770    1.4800  C 0  0  0  2  0  4
  -33.5140  -18.3750    1.9830  C 0  0  0  1  0  3
  -34.3580  -18.3280    1.2270  O 0  0  0  1  0  1
  -31.2770  -17.3270    1.6090  C 0  0  0  4  0  4
  -33.7350  -18.3170    3.2900  N 0  0  0  2  0  3
  -35.0870  -18.5600    3.7720  C 0  0  0  2  0  4
  -36.0620  -17.4130    3.4810  C 0  0  0  1  0  3
  -37.2730  -17.6100    3.5540  O 0  0  0  1  0  1
  -35.0620  -18.8790    5.2690  C 0  0  0  3  0  4
  -34.2570  -20.1250    5.6560  C 0  0  0  2  0  4
  -34.3680  -20.3810    7.1510  C 0  0  0  4  0  4
  -34.7030  -21.3520    4.8710  C 0  0  0  4  0  4
  -35.5460  -16.2310    3.1490  N 0  0  0  2  0  3
  -36.3990  -15.0900    2.8110  C 0  0  0  2  0  4
  -36.2240  -14.6120    1.3630  C 0  0  0  1  0  3
  -36.5010  -13.4530    1.0420  O 0  0  0  1  0  1
  -36.1470  -13.9500    3.7970  C 0  0  0  3  0  4
  -36.3330  -14.3500    5.2360  C 0  0  0  1  0  3
  -37.5880  -14.2920    5.8290  C 0  0  0  2  0  3
  -35.2570  -14.7910    5.9940  C 0  0  0  2  0  3
  -37.7650  -14.6620    7.1520  C 0  0  0  2  0  3
  -35.4270  -15.1640    7.3180  C 0  0  0  2  0  3
  -36.6840  -15.0990    7.8970  C 0  0  0  2  0  3
  -35.7350  -15.4690    0.5050  N 0  0  0  2  0  3
  -35.6600  -15.1950   -0.8950  C 0  0  0  2  0  4
  -37.0510  -15.3650   -1.4570  C 0  5  0  1  0  3
  -37.7260  -16.2900   -1.1290  O 0  0  0  1  0  1
  -34.6830  -16.1780   -1.5300  C 0  0  0  3  0  4
  -32.9690  -15.8500   -1.0410  S 0  0  0  1  0  2
  -37.4890  -14.5760   -2.2350  O 0  0  0  1  0  1
  -32.5034  -10.6741   -1.8726  H 0  0  0  1  0  1
  -33.9595  -11.4009   -1.6254  H 0  0  0  1  0  1
  -33.7905  -10.2821   -2.8209  H 0  0  0  1  0  1
  -32.3001  -11.6695   -4.0475  H 0  0  0  1  0  1
  -31.1398  -12.8768   -2.4241  H 0  0  0  1  0  1
  -32.1608  -14.1089   -3.2404  H 0  0  0  1  0  1
  -36.0267  -12.9420   -6.0811  H 0  0  0  1  0  1
  -35.3241  -13.5370   -8.2455  H 0  0  0  1  0  1
  -34.1569  -14.7581   -7.6346  H 0  0  0  1  0  1
  -33.8687  -11.7717   -7.8892  H 0  0  0  1  0  1
  -32.6872  -13.0760   -8.2493  H 0  0  0  1  0  1
  -32.0762  -13.3156   -6.0202  H 0  0  0  1  0  1
  -32.5862  -11.5942   -5.9633  H 0  0  0  1  0  1
  -37.3881  -14.7328   -6.3820  H 0  0  0  1  0  1
  -37.4049  -16.5719   -4.2594  H 0  0  0  1  0  1
  -39.3057  -17.6372   -5.4577  H 0  0  0  1  0  1
  -38.9110  -16.6623   -6.9138  H 0  0  0  1  0  1
  -39.4378  -15.8467   -5.4025  H 0  0  0  1  0  1
  -35.9330  -16.9561   -7.4420  H 0  0  0  1  0  1
  -35.8481  -19.8263   -7.3906  H 0  0  0  1  0  1
  -35.5522  -18.5235   -9.4483  H 0  0  0  1  0  1
  -34.2304  -19.7058   -9.1624  H 0  0  0  1  0  1
  -32.6782  -17.9768   -8.6306  H 0  0  0  1  0  1
  -33.9779  -16.7399   -8.5436  H 0  0  0  1  0  1
  -34.4455  -17.0147  -10.9272  H 0  0  0  1  0  1
  -33.2308  -18.3333  -11.0383  H 0  0  0  1  0  1
  -31.5117  -16.7650  -11.0858  H 0  0  0  1  0  1
  -33.9000  -13.5068  -10.5876  H 0  0  0  1  0  1
  -34.5919  -15.1287  -10.3163  H 0  0  0  1  0  1
  -30.6816  -14.7102  -11.4262  H 0  0  0  1  0  1
  -31.7157  -13.2741  -11.2004  H 0  0  0  1  0  1
  -33.9142  -17.4086   -5.7801  H 0  0  0  1  0  1
  -31.8787  -19.3766   -5.0753  H 0  0  0  1  0  1
  -30.9075  -17.6438   -3.6226  H 0  0  0  1  0  1
  -32.2979  -16.5724   -4.0042  H 0  0  0  1  0  1
  -32.5543  -15.6535   -6.2186  H 0  0  0  1  0  1
  -29.1729  -18.0177   -5.2433  H 0  0  0  1  0  1
  -31.4733  -14.9568   -8.2848  H 0  0  0  1  0  1
  -28.1006  -17.3457   -7.3436  H 0  0  0  1  0  1
  -29.2162  -15.6997   -8.8040  H 0  0  0  1  0  1
  -31.1817  -19.6860   -2.5803  H 0  0  0  1  0  1
  -33.6051  -21.0287   -1.5985  H 0  0  0  1  0  1
  -32.0864  -22.8805   -0.9065  H 0  0  0  1  0  1
  -30.7074  -21.9925   -1.6389  H 0  0  0  1  0  1
  -32.0572  -22.5678   -2.6751  H 0  0  0  1  0  1
  -31.8646  -18.4915   -0.6426  H 0  0  0  1  0  1
  -31.6379  -19.3402    2.1212  H 0  0  0  1  0  1
  -31.3149  -16.9681    2.6481  H 0  0  0  1  0  1
  -31.6773  -16.5522    0.9386  H 0  0  0  1  0  1
  -30.2346  -17.5464    1.3347  H 0  0  0  1  0  1
  -32.9922  -18.1117    3.9273  H 0  0  0  1  0  1
  -35.4657  -19.4480    3.2447  H 0  0  0  1  0  1
  -36.0996  -19.0265    5.6032  H 0  0  0  1  0  1
  -34.6269  -18.0158    5.7940  H 0  0  0  1  0  1
  -33.2004  -19.9349    5.4165  H 0  0  0  1  0  1
  -33.7862  -21.2768    7.4138  H 0  0  0  1  0  1
  -35.4233  -20.5376    7.4189  H 0  0  0  1  0  1
  -33.9747  -19.5138    7.7017  H 0  0  0  1  0  1
  -34.6162  -21.1493    3.7933  H 0  0  0  1  0  1
  -35.7496  -21.5844    5.1172  H 0  0  0  1  0  1
  -34.0652  -22.2083    5.1355  H 0  0  0  1  0  1
  -34.5523  -16.1201    3.1301  H 0  0  0  1  0  1
  -37.4445  -15.4125    2.9247  H 0  0  0  1  0  1
  -36.8463  -13.1319    3.5697  H 0  0  0  1  0  1
  -35.1137  -13.5967    3.6644  H 0  0  0  1  0  1
  -38.4390  -13.9531    5.2493  H 0  0  0  1  0  1
  -34.2718  -14.8443    5.5450  H 0  0  0  1  0  1
  -38.7492  -14.6093    7.6032  H 0  0  0  1  0  1
  -34.5783  -15.5059    7.8993  H 0  0  0  1  0  1
  -36.8204  -15.3901    8.9322  H 0  0  0  1  0  1
  -35.4009  -16.3494    0.8415  H 0  0  0  1  0  1
  -35.3110  -14.1660   -1.0663  H 0  0  0  1  0  1
  -34.7608  -16.0981   -2.6243  H 0  0  0  1  0  1
  -34.9520  -17.1975   -1.2167  H 0  0  0  1  0  1
  1  2  1  0  0  2
  2  3  1  0  0  1
  2  5  1  0  0  1
  3  4  2  0  0  2
  3  7  1  0  0  1
  5  6  1  0  0  1
  6 75  1  0  0  1
  7  8  1  0  0  1
  7 13  1  0  0  1
  8  9  1  0  0  1
  8 11  1  0  0  1
  9 10  2  0  0  2
  9 14  1  0  0  1
 11 12  1  0  0  1
 12 13  1  0  0  1
 14 15  1  0  0  1
 15 16  1  0  0  1
 15 18  1  0  0  2
 16 17  2  0  0  2
 16 19  1  0  0  1
 19 20  1  0  0  1
 20 21  1  0  0  1
 20 23  1  0  0  2
 21 22  2  0  0  2
 21 30  1  0  0  1
 23 24  1  0  0  2
 24 25  1  0  0  2
 25 26  1  0  0  2
 26 27  2  0  0  2
 27 28  2  0  0  2
 27 29  2  0  0  2
 30 31  1  0  0  1
 31 32  1  0  0  1
 31 34  1  0  0  2
 32 33  2  0  0  2
 32 41  1  0  0  1
 34 35  1  0  0  2
 35 36  4  0  0  1
 35 37  4  0  0  1
 36 38  4  0  0  1
 37 39  4  0  0  1
 38 40  4  0  0  1
 39 40  4  0  0  1
 41 42  1  0  0  1
 42 43  1  0  0  1
 42 45  1  0  0  2
 43 44  2  0  0  2
 43 46  1  0  0  1
 46 47  1  0  0  1
 47 48  1  0  0  1
 47 50  1  0  0  2
 48 49  2  0  0  2
 48 51  1  0  0  1
 51 52  1  0  0  1
 52 53  1  0  0  1
 52 55  1  0  0  2
 53 54  2  0  0  2
 53 59  1  0  0  1
 55 56  1  0  0  2
 56 57  1  0  0  2
 56 58  1  0  0  2
 59 60  1  0  0  1
 60 61  1  0  0  1
 60 63  1  0  0  2
 61 62  2  0  0  2
 61 70  1  0  0  1
 63 64  1  0  0  2
 64 65  4  0  0  1
 64 66  4  0  0  1
 65 67  4  0  0  1
 66 68  4  0  0  1
 67 69  4  0  0  1
 68 69  4  0  0  1
 70 71  1  0  0  1
 71 72  1  0  0  2
 71 74  1  0  0  1
 72 73  2  0  0  2
 72 76  2  0  0  2
 74 75  1  0  0  1
  1 77  1  0  0  2
  1 78  1  0  0  2
  1 79  1  0  0  2
  2 80  1  0  0  2
  5 81  1  0  0  2
  5 82  1  0  0  2
  8 83  1  0  0  2
 11 84  1  0  0  2
 11 85  1  0  0  2
 12 86  1  0  0  2
 12 87  1  0  0  2
 13 88  1  0  0  2
 13 89  1  0  0  2
 14 90  1  0  0  2
 15 91  1  0  0  2
 18 92  1  0  0  2
 18 93  1  0  0  2
 18 94  1  0  0  2
 19 95  1  0  0  2
 20 96  1  0  0  2
 23 97  1  0  0  2
 23 98  1  0  0  2
 24 99  1  0  0  2
 24100  1  0  0  2
 25101  1  0  0  2
 25102  1  0  0  2
 26103  1  0  0  2
 28104  1  0  0  2
 28105  1  0  0  2
 29106  1  0  0  2
 29107  1  0  0  2
 30108  1  0  0  2
 31109  1  0  0  2
 34110  1  0  0  2
 34111  1  0  0  2
 36112  1  0  0  2
 37113  1  0  0  2
 38114  1  0  0  2
 39115  1  0  0  2
 40116  1  0  0  2
 41117  1  0  0  2
 42118  1  0  0  2
 45119  1  0  0  2
 45120  1  0  0  2
 45121  1  0  0  2
 46122  1  0  0  2
 47123  1  0  0  2
 50124  1  0  0  2
 50125  1  0  0  2
 50126  1  0  0  2
 51127  1  0  0  2
 52128  1  0  0  2
 55129  1  0  0  2
 55130  1  0  0  2
 56131  1  0  0  2
 57132  1  0  0  2
 57133  1  0  0  2
 57134  1  0  0  2
 58135  1  0  0  2
 58136  1  0  0  2
 58137  1  0  0  2
 59138  1  0  0  2
 60139  1  0  0  2
 63140  1  0  0  2
 63141  1  0  0  2
 65142  1  0  0  2
 66143  1  0  0  2
 67144  1  0  0  2
 68145  1  0  0  2
 69146  1  0  0  2
 70147  1  0  0  2
 71148  1  0  0  2
 74149  1  0  0  2
 74150  1  0  0  2
M  END
> <MOLECULAR_FORMULA>
C50H74N13O11S2

> <MOLECULAR_WEIGHT>
1096.8

> <NUM_HB_ATOMS>
25 

> <NUM_ROTOR>
10 

> <XLOGP2>
-0.20

$$$$
