REMARK  3 active torsions:
REMARK  status: ('A' for Active; 'I' for Inactive)
REMARK    1  A    between atoms: C1_1  and  S1_12 
REMARK    2  A    between atoms: N4_8  and  C2_2 
REMARK       I    between atoms: C3_3  and  N4_8 
REMARK    3  A    between atoms: S1_12  and  N1_5 
ROOT
ATOM      1  C1  AZM d          38.143  20.269  22.393  0.00  0.00     0.237 A 
ATOM      2  C2  AZM d          38.245  20.934  24.669  0.00  0.00     0.197 A 
ATOM      3  N2  AZM d          37.907  19.643  24.451  0.00  0.00    -0.122 NA
ATOM      4  N3  AZM d          37.856  19.287  23.243  0.00  0.00    -0.126 NA
ATOM      5  S2  AZM d          38.513  21.702  23.209  0.00  0.00    -0.015 SA
ENDROOT
BRANCH   1   6
ATOM      6  S1  AZM d          38.143  20.119  20.691  0.00  0.00     0.282 S 
ATOM      7  O1  AZM d          38.791  18.818  20.292  0.00  0.00    -0.199 OA
ATOM      8  O2  AZM d          38.897  21.259  20.097  0.00  0.00    -0.199 OA
BRANCH   6   9
ATOM      9  N1  AZM d          36.585  20.144  20.202  0.00  0.00    -0.323 N 
ATOM     10  H4  AZM d          36.365  20.068  19.230  0.00  0.00     0.169 HD
ATOM     11  H5  AZM d          35.851  20.235  20.875  0.00  0.00     0.169 HD
ENDBRANCH   6   9
ENDBRANCH   1   6
BRANCH   2  12
ATOM     12  N4  AZM d          38.390  21.506  25.864  0.00  0.00    -0.305 N 
ATOM     13  C3  AZM d          38.752  22.765  26.055  0.00  0.00     0.219 C 
ATOM     14  C4  AZM d          38.883  23.126  27.512  0.00  0.00     0.117 C 
ATOM     15  O3  AZM d          38.969  23.602  25.184  0.00  0.00    -0.274 OA
ATOM     16  H6  AZM d          38.213  20.945  26.673  0.00  0.00     0.171 HD
ENDBRANCH   2  12
TORSDOF 3
