REMARK  4 active torsions:
REMARK  status: ('A' for Active; 'I' for Inactive)
REMARK    1  A    between atoms: CAN_17  and  N11_1 
REMARK       I    between atoms: N12_2  and  CAR_20 
REMARK    2  A    between atoms: CAV_24  and  OAB_5 
REMARK    3  A    between atoms: CAJ_13  and  CAN_17 
REMARK    4  A    between atoms: CAR_20  and  CAJ_13 
ROOT
ATOM      1  N12 G9L d         -35.951 -73.958   0.578  0.00  0.00    -0.347 N 
ATOM      2  N13 G9L d         -36.651 -72.976   4.599  0.00  0.00    -0.228 NA
ATOM      3  OAA G9L d         -35.218 -72.995  -1.342  0.00  0.00    -0.273 OA
ATOM      4  FAC G9L d         -35.678 -78.462   6.981  0.00  0.00    -0.206 F 
ATOM      5  CAD G9L d         -35.574 -77.969   4.684  0.00  0.00     0.043 A 
ATOM      6  CAE G9L d         -35.689 -77.037   3.675  0.00  0.00     0.016 A 
ATOM      7  CAF G9L d         -36.106 -76.240   6.362  0.00  0.00     0.059 A 
ATOM      8  CAK G9L d         -36.589 -72.308   2.228  0.00  0.00     0.080 C 
ATOM      9  CAO G9L d         -36.781 -72.830   0.863  0.00  0.00     0.132 C 
ATOM     10  CAP G9L d         -35.921 -75.043   1.521  0.00  0.00     0.167 C 
ATOM     11  CAR G9L d         -35.138 -73.954  -0.604  0.00  0.00     0.221 C 
ATOM     12  CAS G9L d         -35.794 -77.574   6.018  0.00  0.00     0.117 A 
ATOM     13  CAT G9L d         -36.446 -73.332   3.295  0.00  0.00     0.047 A 
ATOM     14  CAU G9L d         -36.139 -74.655   2.967  0.00  0.00    -0.004 A 
ATOM     15  CAV G9L d         -36.532 -73.885   5.618  0.00  0.00     0.173 A 
ATOM     16  CAW G9L d         -36.022 -75.681   4.018  0.00  0.00    -0.011 A 
ATOM     17  CAX G9L d         -36.221 -75.293   5.335  0.00  0.00     0.030 A 
ENDROOT
BRANCH  11  18
ATOM     18  CAJ G9L d         -34.232 -75.108  -0.948  0.00  0.00     0.130 C 
BRANCH  18  19
ATOM     19  CAN G9L d         -33.282 -74.877  -2.122  0.00  0.00     0.244 C 
BRANCH  19  20
ATOM     20  N11 G9L d         -32.237 -75.852  -2.301  0.00  0.00    -0.071 N 
ATOM     21  CAL G9L d         -30.863 -75.316  -3.002  0.00  0.00     0.235 C 
ATOM     22  CAH G9L d         -30.605 -75.844  -3.608  0.00  0.00     0.028 C 
ATOM     23  CAG G9L d         -30.399 -77.363  -3.048  0.00  0.00     0.003 C 
ATOM     24  CAI G9L d         -31.564 -77.783  -1.977  0.00  0.00     0.028 C 
ATOM     25  CAM G9L d         -32.314 -77.473  -2.205  0.00  0.00     0.235 C 
ATOM     26  H1  G9L d         -31.915 -75.753  -1.351  0.00  0.00     0.279 HD
ENDBRANCH  19  20
ENDBRANCH  18  19
ENDBRANCH  11  18
BRANCH  15  27
ATOM     27  OAB G9L d         -36.740 -73.444   6.882  0.00  0.00    -0.344 OA
ATOM     28  H2  G9L d         -36.114 -72.758   7.084  0.00  0.00     0.219 HD
ENDBRANCH  15  27
TORSDOF 4
