REMARK  6 active torsions:
REMARK  status: ('A' for Active; 'I' for Inactive)
REMARK    1  A    between atoms: C1_3  and  N1_4 
REMARK    2  A    between atoms: C4_7  and  C7_8 
REMARK    3  A    between atoms: C7_8  and  C16_10 
REMARK    4  A    between atoms: C19_15  and  C10_16 
REMARK    5  A    between atoms: C13_19  and  S2_24 
REMARK    6  A    between atoms: S2_24  and  N2_25 
ROOT
ATOM      1  C16 MOL d          -2.149   7.924  13.072  0.00  0.00     0.015 A 
ATOM      2  C17 MOL d          -1.903   6.672  12.520  0.00  0.00     0.016 A 
ATOM      3  C18 MOL d          -2.488   5.538  13.074  0.00  0.00     0.013 A 
ATOM      4  C15 MOL d          -2.973   8.044  14.184  0.00  0.00     0.016 A 
ATOM      5  C14 MOL d          -3.558   6.911  14.738  0.00  0.00     0.013 A 
ATOM      6  C19 MOL d          -3.319   5.659  14.181  0.00  0.00    -0.026 A 
ENDROOT
BRANCH   6   7
ATOM      7  C10 MOL d          -3.937   4.538  14.724  0.00  0.00    -0.026 A 
ATOM      8  C9  MOL d          -3.190   3.407  15.034  0.00  0.00     0.014 A 
ATOM      9  C8  MOL d          -3.805   2.313  15.634  0.00  0.00     0.026 A 
ATOM     10  C13 MOL d          -5.164   2.348  15.923  0.00  0.00     0.079 A 
ATOM     11  C12 MOL d          -5.914   3.475  15.604  0.00  0.00     0.026 A 
ATOM     12  C11 MOL d          -5.299   4.569  15.004  0.00  0.00     0.014 A 
BRANCH  10  13
ATOM     13  S2  MOL d          -5.922   0.991  16.749  0.00  0.00     0.256 S 
ATOM     14  O3  MOL d          -5.433   1.042  18.098  0.00  0.00    -0.201 OA
ATOM     15  O2  MOL d          -7.340   1.100  16.557  0.00  0.00    -0.201 OA
BRANCH  13  16
ATOM     16  N2  MOL d          -5.403  -0.342  16.054  0.00  0.00    -0.324 N 
ATOM     17  H15 MOL d          -5.720  -1.232  16.381  0.00  0.00     0.169 HD
ATOM     18  H16 MOL d          -4.760  -0.290  15.290  0.00  0.00     0.169 HD
ENDBRANCH  13  16
ENDBRANCH  10  13
ENDBRANCH   6   7
BRANCH   1  19
ATOM     19  C7  MOL d          -1.574   9.147  12.433  0.00  0.00     0.192 C 
ATOM     20  O1  MOL d          -1.504   9.228  11.215  0.00  0.00    -0.287 OA
BRANCH  19  21
ATOM     21  C4  MOL d          -1.100  10.272  13.293  0.00  0.00     0.015 A 
ATOM     22  C3  MOL d          -0.281  10.019  14.388  0.00  0.00     0.018 A 
ATOM     23  C2  MOL d           0.165  11.071  15.181  0.00  0.00     0.030 A 
ATOM     24  C1  MOL d          -0.207  12.377  14.879  0.00  0.00     0.025 A 
ATOM     25  C6  MOL d          -1.027  12.629  13.784  0.00  0.00     0.030 A 
ATOM     26  C5  MOL d          -1.473  11.578  12.992  0.00  0.00     0.018 A 
BRANCH  24  27
ATOM     27  N1  MOL d           0.227  13.410  15.658  0.00  0.00    -0.399 N 
ATOM     28  H3  MOL d          -0.050  14.376  15.433  0.00  0.00     0.156 HD
ATOM     29  H4  MOL d           0.831  13.223  16.471  0.00  0.00     0.156 HD
ENDBRANCH  24  27
ENDBRANCH  19  21
ENDBRANCH   1  19
TORSDOF 6
