REMARK  1 active torsions:
REMARK  status: ('A' for Active; 'I' for Inactive)
REMARK    1  A    between atoms: C2_2  and  C4_4 
ROOT
ATOM      1  C4  1F1 d          10.860  23.793  23.610  0.00  0.00     0.043 A 
ATOM      2  C5  1F1 d          11.460  25.040  23.413  0.00  0.00     0.019 A 
ATOM      3  C6  1F1 d          12.678  25.192  22.746  0.00  0.00     0.015 A 
ATOM      4  C7  1F1 d          13.284  24.024  22.281  0.00  0.00    -0.008 A 
ATOM      5  C8  1F1 d          14.482  23.819  21.590  0.00  0.00     0.030 A 
ATOM      6  C9  1F1 d          14.593  22.448  21.366  0.00  0.00     0.089 A 
ATOM      7  N10 1F1 d          13.507  21.843  21.903  0.00  0.00    -0.365 N 
ATOM      8  C11 1F1 d          12.696  22.773  22.467  0.00  0.00     0.043 A 
ATOM      9  C12 1F1 d          11.471  22.629  23.130  0.00  0.00     0.048 A 
ATOM     10  H5  1F1 d          13.324  20.829  21.886  0.00  0.00     0.165 HD
ENDROOT
BRANCH   1  11
ATOM     11  C2  1F1 d           9.542  23.690  24.331  0.00  0.00     0.209 C 
ATOM     12  O1  1F1 d           9.043  22.595  24.530  0.00  0.00    -0.644 OA
ATOM     13  O3  1F1 d           8.884  24.772  24.762  0.00  0.00    -0.644 OA
ENDBRANCH   1  11
TORSDOF 1
