REMARK  1 active torsions:
REMARK  status: ('A' for Active; 'I' for Inactive)
REMARK    1  A    between atoms: C1_2  and  N2_10 
ROOT
ATOM      1  N1  MOL d          44.420  -2.376  25.681  0.00  0.00    -0.063 NA
ATOM      2  C1  MOL d          44.121  -3.608  25.347  0.00  0.00     0.699 A 
ATOM      3  C2  MOL d          44.143  -2.266  26.943  0.00  0.00     0.103 A 
ATOM      4  C3  MOL d          44.282  -1.167  27.760  0.00  0.00     0.034 A 
ATOM      5  C4  MOL d          43.905  -1.349  29.098  0.00  0.00     0.002 A 
ATOM      6  C5  MOL d          43.411  -2.595  29.545  0.00  0.00     0.002 A 
ATOM      7  C6  MOL d          43.286  -3.706  28.668  0.00  0.00     0.032 A 
ATOM      8  C7  MOL d          43.670  -3.478  27.369  0.00  0.00     0.078 A 
ATOM      9  N3  MOL d          43.657  -4.303  26.363  0.00  0.00    -0.188 N 
ATOM     10  H5  MOL d          43.350  -5.286  26.362  0.00  0.00     0.184 HD
ENDROOT
BRANCH   2  11
ATOM     11  N2  MOL d          44.367  -4.097  24.171  0.00  0.00    -0.233 N 
ATOM     12  H6  MOL d          44.730  -3.487  23.425  0.00  0.00     0.174 HD
ATOM     13  H7  MOL d          44.199  -5.096  23.983  0.00  0.00     0.174 HD
ENDBRANCH   2  11
TORSDOF 1
