REMARK  12 active torsions:
REMARK  status: ('A' for Active; 'I' for Inactive)
REMARK    1  A    between atoms: C5_1  and  C3_2 
REMARK    2  A    between atoms: C5_1  and  C6_6 
REMARK       I    between atoms: C3_2  and  N1_4 
REMARK    3  A    between atoms: N1_4  and  O2_5 
REMARK    4  A    between atoms: C6_6  and  C12_7 
REMARK    5  A    between atoms: C6_6  and  C7_9 
REMARK       I    between atoms: C12_7  and  N14_14 
REMARK    6  A    between atoms: C7_9  and  C8_10 
REMARK    7  A    between atoms: C8_10  and  C9_11 
REMARK    8  A    between atoms: C9_11  and  C10_12 
REMARK    9  A    between atoms: N14_14  and  C15_15 
REMARK   10  A    between atoms: C15_15  and  C16_16 
REMARK   11  A    between atoms: C15_15  and  C19_19 
REMARK       I    between atoms: C19_19  and  N21_21 
REMARK   12  A    between atoms: C22_22  and  C26_26 
ROOT
ATOM      1  C12 BB2 d          -7.307  44.929  56.276  0.00  0.00     0.223 C 
ATOM      2  O13 BB2 d          -7.000  44.624  57.403  0.00  0.00    -0.273 OA
ATOM      3  N14 BB2 d          -8.295  45.817  55.957  0.00  0.00    -0.347 N 
ATOM      4  H17 BB2 d          -8.468  45.977  54.985  0.00  0.00     0.163 HD
ENDROOT
BRANCH   3   5
ATOM      5  C15 BB2 d          -9.113  46.546  56.902  0.00  0.00     0.180 C 
BRANCH   5   6
ATOM      6  C16 BB2 d          -8.817  48.051  56.983  0.00  0.00     0.009 C 
ATOM      7  C18 BB2 d          -8.758  48.680  55.645  0.00  0.00     0.012 C 
ATOM      8  C17 BB2 d          -7.489  48.219  57.694  0.00  0.00     0.012 C 
ENDBRANCH   5   6
BRANCH   5   9
ATOM      9  C19 BB2 d         -10.590  46.242  56.518  0.00  0.00     0.243 C 
ATOM     10  O20 BB2 d         -10.883  46.101  55.311  0.00  0.00    -0.271 OA
ATOM     11  N21 BB2 d         -11.518  46.115  57.491  0.00  0.00    -0.336 N 
ATOM     12  C22 BB2 d         -12.925  45.804  57.180  0.00  0.00     0.188 C 
ATOM     13  C23 BB2 d         -11.313  46.247  58.963  0.00  0.00     0.127 C 
ATOM     14  C25 BB2 d         -13.450  45.260  58.499  0.00  0.00     0.038 C 
ATOM     15  C24 BB2 d         -12.688  46.003  59.537  0.00  0.00     0.022 C 
BRANCH  12  16
ATOM     16  C26 BB2 d         -13.707  47.027  56.760  0.00  0.00     0.196 C 
ATOM     17  O27 BB2 d         -13.534  47.359  55.574  0.00  0.00    -0.646 OA
ATOM     18  O1  BB2 d         -14.468  47.656  57.543  0.00  0.00    -0.646 OA
ENDBRANCH  12  16
ENDBRANCH   5   9
ENDBRANCH   3   5
BRANCH   1  19
ATOM     19  C6  BB2 d          -6.565  44.329  55.084  0.00  0.00     0.086 C 
BRANCH  19  20
ATOM     20  C5  BB2 d          -4.973  44.377  55.230  0.00  0.00     0.119 C 
BRANCH  20  21
ATOM     21  C3  BB2 d          -4.420  44.044  53.840  0.00  0.00     0.241 C 
ATOM     22  O4  BB2 d          -4.414  44.950  53.038  0.00  0.00    -0.271 OA
ATOM     23  N1  BB2 d          -4.001  42.820  53.525  0.00  0.00    -0.237 N 
ATOM     24  H3  BB2 d          -4.033  42.099  54.217  0.00  0.00     0.197 HD
BRANCH  23  25
ATOM     25  O2  BB2 d          -3.570  42.555  52.388  0.00  0.00    -0.287 OA
ATOM     26  H4  BB2 d          -4.249  42.725  51.746  0.00  0.00     0.244 HD
ENDBRANCH  23  25
ENDBRANCH  20  21
ENDBRANCH  19  20
BRANCH  19  27
ATOM     27  C7  BB2 d          -7.007  42.830  54.992  0.00  0.00     0.014 C 
BRANCH  27  28
ATOM     28  C8  BB2 d          -8.532  42.908  54.741  0.00  0.00     0.001 C 
BRANCH  28  29
ATOM     29  C9  BB2 d          -9.151  41.619  54.551  0.00  0.00    -0.000 C 
BRANCH  29  30
ATOM     30  C10 BB2 d         -10.573  41.753  54.023  0.00  0.00    -0.005 C 
ATOM     31  C11 BB2 d         -11.518  42.342  55.006  0.00  0.00     0.005 C 
ENDBRANCH  29  30
ENDBRANCH  28  29
ENDBRANCH  27  28
ENDBRANCH  19  27
ENDBRANCH   1  19
TORSDOF 12
