REMARK  2 active torsions:
REMARK  status: ('A' for Active; 'I' for Inactive)
REMARK    1  A    between atoms: C3_3  and  O3_4 
REMARK    2  A    between atoms: C17_18  and  O17_19 
ROOT
ATOM      1  C1  EST d          43.148  25.815  67.976  0.00  0.00     0.011 A 
ATOM      2  C2  EST d          44.547  25.724  68.282  0.00  0.00     0.037 A 
ATOM      3  C3  EST d          45.340  24.672  67.700  0.00  0.00     0.066 A 
ATOM      4  C4  EST d          44.749  23.711  66.809  0.00  0.00     0.044 A 
ATOM      5  C5  EST d          43.338  23.784  66.479  0.00  0.00    -0.049 A 
ATOM      6  C6  EST d          42.736  22.745  65.504  0.00  0.00     0.039 C 
ATOM      7  C7  EST d          41.214  22.912  65.179  0.00  0.00     0.010 C 
ATOM      8  C8  EST d          40.713  24.381  65.247  0.00  0.00    -0.001 C 
ATOM      9  C9  EST d          40.972  24.941  66.722  0.00  0.00     0.023 C 
ATOM     10  C10 EST d          42.500  24.861  67.077  0.00  0.00    -0.047 A 
ATOM     11  C11 EST d          40.419  26.405  66.795  0.00  0.00     0.010 C 
ATOM     12  C12 EST d          38.907  26.528  66.427  0.00  0.00     0.013 C 
ATOM     13  C13 EST d          38.658  26.023  64.975  0.00  0.00    -0.014 C 
ATOM     14  C14 EST d          39.161  24.500  64.904  0.00  0.00     0.001 C 
ATOM     15  C15 EST d          38.604  24.073  63.535  0.00  0.00     0.008 C 
ATOM     16  C16 EST d          37.111  24.591  63.624  0.00  0.00     0.033 C 
ATOM     17  C17 EST d          37.159  25.840  64.577  0.00  0.00     0.126 C 
ATOM     18  C18 EST d          39.354  27.006  63.925  0.00  0.00     0.018 C 
ENDROOT
BRANCH   3  19
ATOM     19  O3  EST d          46.679  24.593  68.003  0.00  0.00    -0.361 OA
ATOM     20  H3  EST d          47.063  23.853  67.547  0.00  0.00     0.217 HD
ENDBRANCH   3  19
BRANCH  17  21
ATOM     21  O17 EST d          36.533  26.973  63.917  0.00  0.00    -0.395 OA
ATOM     22  H21 EST d          36.562  27.729  64.492  0.00  0.00     0.210 HD
ENDBRANCH  17  21
TORSDOF 2
