REMARK  6 active torsions:
REMARK  status: ('A' for Active; 'I' for Inactive)
REMARK    1  A    between atoms: O1_1  and  C5_2 
REMARK    2  A    between atoms: C2_5  and  C1_8 
REMARK    3  A    between atoms: C1_8  and  C14_9 
REMARK    4  A    between atoms: C1_8  and  C8_18 
REMARK    5  A    between atoms: C17_12  and  N2_13 
REMARK    6  A    between atoms: C11_21  and  N1_22 
ROOT
ATOM      1  C1  1OM d           2.123   7.787  -1.917  0.00  0.00     0.084 C 
ENDROOT
BRANCH   1   2
ATOM      2  C2  1OM d           1.869   6.635  -1.021  0.00  0.00    -0.045 A 
ATOM      3  C3  1OM d           1.652   5.356  -1.530  0.00  0.00     0.011 A 
ATOM      4  C4  1OM d           1.436   4.236  -0.650  0.00  0.00     0.037 A 
ATOM      5  C5  1OM d           1.449   4.402   0.763  0.00  0.00     0.065 A 
ATOM      6  C6  1OM d           1.677   5.689   1.278  0.00  0.00     0.037 A 
ATOM      7  C7  1OM d           1.899   6.802   0.410  0.00  0.00     0.011 A 
BRANCH   5   8
ATOM      8  O1  1OM d           1.198   3.315   1.646  0.00  0.00    -0.361 OA
ATOM      9  H1  1OM d           1.250   3.620   2.544  0.00  0.00     0.217 HD
ENDBRANCH   5   8
ENDBRANCH   1   2
BRANCH   1  10
ATOM     10  C14 1OM d           1.556   9.057  -1.595  0.00  0.00    -0.045 A 
ATOM     11  C19 1OM d           2.162  10.285  -1.966  0.00  0.00     0.010 A 
ATOM     12  C18 1OM d           1.521  11.529  -1.752  0.00  0.00     0.030 A 
ATOM     13  C17 1OM d           0.221  11.590  -1.115  0.00  0.00     0.029 A 
ATOM     14  C16 1OM d          -0.373  10.362  -0.765  0.00  0.00     0.030 A 
ATOM     15  C15 1OM d           0.261   9.117  -0.983  0.00  0.00     0.010 A 
BRANCH  13  16
ATOM     16  N2  1OM d          -0.553  12.807  -1.023  0.00  0.00    -0.390 N 
ATOM     17  C23 1OM d          -1.981  12.676  -0.808  0.00  0.00     0.149 C 
ATOM     18  C22 1OM d           0.091  14.104  -1.252  0.00  0.00     0.149 C 
ENDBRANCH  13  16
ENDBRANCH   1  10
BRANCH   1  19
ATOM     19  C8  1OM d           2.928   7.638  -3.101  0.00  0.00    -0.045 A 
ATOM     20  C13 1OM d           2.623   8.341  -4.321  0.00  0.00     0.010 A 
ATOM     21  C12 1OM d           3.411   8.240  -5.474  0.00  0.00     0.030 A 
ATOM     22  C11 1OM d           4.540   7.416  -5.463  0.00  0.00     0.029 A 
ATOM     23  C10 1OM d           4.857   6.718  -4.278  0.00  0.00     0.030 A 
ATOM     24  C9  1OM d           4.048   6.832  -3.101  0.00  0.00     0.010 A 
BRANCH  22  25
ATOM     25  N1  1OM d           5.350   7.375  -6.528  0.00  0.00    -0.390 N 
ATOM     26  C21 1OM d           4.855   7.832  -7.850  0.00  0.00     0.149 C 
ATOM     27  C20 1OM d           6.735   6.974  -6.411  0.00  0.00     0.149 C 
ENDBRANCH  22  25
ENDBRANCH   1  19
TORSDOF 6
