REMARK  3 active torsions:
REMARK  status: ('A' for Active; 'I' for Inactive)
REMARK    1  A    between atoms: C09_9  and  N10_10 
REMARK    2  A    between atoms: N10_10  and  S11_11 
REMARK    3  A    between atoms: S11_11  and  C14_14 
ROOT
ATOM      1  N10 R2S d         -11.376  18.868  -8.838  0.00  0.00    -0.258 N 
ATOM      2  H   R2S d         -10.777  19.658  -8.969  0.00  0.00     0.181 HD
ENDROOT
BRANCH   1   3
ATOM      3  C09 R2S d         -12.279  18.517  -9.843  0.00  0.00     0.181 A 
ATOM      4  N08 R2S d         -12.083  18.903 -11.144  0.00  0.00    -0.223 NA
ATOM      5  C05 R2S d         -13.201  18.435 -11.922  0.00  0.00     0.077 A 
ATOM      6  C04 R2S d         -14.171  17.717 -11.256  0.00  0.00     0.039 A 
ATOM      7  C06 R2S d         -13.298  18.680 -13.296  0.00  0.00     0.035 A 
ATOM      8  C03 R2S d         -15.253  17.227 -11.960  0.00  0.00     0.045 A 
ATOM      9  S23 R2S d         -13.699  17.655  -9.671  0.00  0.00    -0.049 SA
ATOM     10  C02 R2S d         -15.344  17.466 -13.321  0.00  0.00     0.035 A 
ATOM     11 CL1  R2S d         -16.703  16.839 -14.177  0.00  0.00    -0.084 Cl
ATOM     12  C07 R2S d         -14.375  18.194 -13.992  0.00  0.00     0.026 A 
ENDBRANCH   1   3
BRANCH   1  13
ATOM     13  S11 R2S d         -11.283  18.021  -7.470  0.00  0.00     0.271 S 
ATOM     14  O12 R2S d         -12.457  18.102  -6.716  0.00  0.00    -0.200 OA
ATOM     15  O13 R2S d         -10.289  18.544  -6.632  0.00  0.00    -0.200 OA
BRANCH  13  16
ATOM     16  C14 R2S d         -10.970  16.381  -8.032  0.00  0.00     0.122 A 
ATOM     17  C15 R2S d         -10.000  15.945  -8.987  0.00  0.00     0.045 A 
ATOM     18  C16 R2S d         -10.176  14.447  -9.150  0.00  0.00    -0.017 A 
ATOM     19  C17 R2S d          -9.425  13.619  -9.987  0.00  0.00     0.013 A 
ATOM     20  C21 R2S d         -11.187  13.896  -8.366  0.00  0.00     0.016 A 
ATOM     21  C18 R2S d          -9.712  12.264 -10.013  0.00  0.00     0.001 A 
ATOM     22  C19 R2S d         -10.723  11.699  -9.219  0.00  0.00     0.001 A 
ATOM     23  C20 R2S d         -11.470  12.528  -8.392  0.00  0.00     0.019 A 
ATOM     24  S22 R2S d         -11.854  15.129  -7.509  0.00  0.00    -0.076 SA
ENDBRANCH  13  16
ENDBRANCH   1  13
TORSDOF 3
