REMARK  6 active torsions:
REMARK  status: ('A' for Active; 'I' for Inactive)
REMARK    1  A    between atoms: O_6  and  C4_5 
REMARK    2  A    between atoms: C5_7  and  O_6 
REMARK    3  A    between atoms: C8_10  and  C5_7 
REMARK    4  A    between atoms: C9_11  and  S_14 
REMARK    5  A    between atoms: S_14  and  N_16 
REMARK    6  A    between atoms: C12_18  and  S1_19 
ROOT
ATOM      1  C6  MOL d          48.585  23.967   3.039  0.00  0.00     0.112 C 
ATOM      2  C7  MOL d          48.412  25.301   3.690  0.00  0.00    -0.109 C 
ATOM      3  C8  MOL d          48.269  26.364   4.192  0.00  0.00    -0.080 C 
ENDROOT
BRANCH   3   4
ATOM      4  C5  MOL d          47.914  27.774   4.760  0.00  0.00     0.269 C 
BRANCH   4   5
ATOM      5  O   MOL d          46.472  27.817   4.923  0.00  0.00    -0.340 OA
BRANCH   5   6
ATOM      6  C4  MOL d          45.666  28.162   3.839  0.00  0.00     0.070 A 
ATOM      7  C   MOL d          46.085  28.479   2.526  0.00  0.00     0.038 A 
ATOM      8  C1  MOL d          45.114  28.815   1.537  0.00  0.00     0.027 A 
ATOM      9  C9  MOL d          43.753  28.833   1.884  0.00  0.00     0.074 A 
ATOM     10  C2  MOL d          43.368  28.517   3.175  0.00  0.00     0.027 A 
ATOM     11  C3  MOL d          44.311  28.183   4.144  0.00  0.00     0.038 A 
BRANCH   9  12
ATOM     12  S   MOL d          42.465  29.265   0.761  0.00  0.00     0.243 S 
ATOM     13  O1  MOL d          42.995  28.767  -0.494  0.00  0.00    -0.206 OA
ATOM     14  O2  MOL d          41.153  28.787   1.199  0.00  0.00    -0.206 OA
BRANCH  12  15
ATOM     15  N   MOL d          42.224  31.016   0.755  0.00  0.00    -0.205 NA
ATOM     16  C10 MOL d          40.884  31.586   0.411  0.00  0.00     0.109 C 
ATOM     17  C13 MOL d          40.290  31.901   1.762  0.00  0.00     0.032 C 
ATOM     18  C12 MOL d          41.200  31.432   2.888  0.00  0.00     0.059 C 
ATOM     19  C11 MOL d          42.491  31.626   2.095  0.00  0.00     0.122 C 
BRANCH  18  20
ATOM     20  S1  MOL d          41.158  31.976   4.586  0.00  0.00    -0.176 SA
ATOM     21  H15 MOL d          40.249  31.784   4.977  0.00  0.00     0.102 HD
ENDBRANCH  18  20
ENDBRANCH  12  15
ENDBRANCH   9  12
ENDBRANCH   5   6
ENDBRANCH   4   5
ENDBRANCH   3   4
TORSDOF 6
