REMARK  10 active torsions:
REMARK  status: ('A' for Active; 'I' for Inactive)
REMARK    1  A    between atoms: O3B_8  and  PG_1 
REMARK    2  A    between atoms: PB_5  and  O3B_8 
REMARK    3  A    between atoms: O3A_12  and  PB_5 
REMARK    4  A    between atoms: PA_9  and  O3A_12 
REMARK    5  A    between atoms: PA_9  and  O5_13 
REMARK    6  A    between atoms: O5_13  and  C5_14 
REMARK    7  A    between atoms: C5_14  and  C4_15 
REMARK    8  A    between atoms: C3_17  and  O3_18 
REMARK    9  A    between atoms: C2_19  and  O2_20 
REMARK   10  A    between atoms: C1_21  and  N9_22 
ROOT
ATOM      1  C4  ATP d          56.122  23.946  36.705  0.00  0.00     0.180 C 
ATOM      2  O4  ATP d          55.762  24.755  35.566  0.00  0.00    -0.353 OA
ATOM      3  C3  ATP d          56.194  24.946  37.882  0.00  0.00     0.182 C 
ATOM      4  C2  ATP d          55.269  26.021  37.325  0.00  0.00     0.198 C 
ATOM      5  C1  ATP d          55.705  26.109  35.853  0.00  0.00     0.262 C 
ENDROOT
BRANCH   1   6
ATOM      6  C5  ATP d          55.305  22.730  36.824  0.00  0.00     0.216 C 
BRANCH   6   7
ATOM      7  O5  ATP d          53.957  23.088  37.304  0.00  0.00    -0.287 OA
BRANCH   7   8
ATOM      8  PA  ATP d          52.668  22.236  37.062  0.00  0.00     0.417 P 
ATOM      9  O1A ATP d          51.638  22.711  38.008  0.00  0.00    -0.624 OA
ATOM     10  O2A ATP d          53.018  20.819  37.090  0.00  0.00    -0.624 OA
BRANCH   8  11
ATOM     11  O3A ATP d          52.123  22.648  35.588  0.00  0.00    -0.180 OA
BRANCH  11  12
ATOM     12  PB  ATP d          50.666  23.044  35.013  0.00  0.00     0.428 P 
ATOM     13  O1B ATP d          50.243  24.338  35.596  0.00  0.00    -0.624 OA
ATOM     14  O2B ATP d          50.753  23.219  33.554  0.00  0.00    -0.624 OA
BRANCH  12  15
ATOM     15  O3B ATP d          49.753  21.792  35.301  0.00  0.00    -0.173 OA
BRANCH  15  16
ATOM     16  PG  ATP d          48.244  21.596  35.800  0.00  0.00     0.431 P 
ATOM     17  O1G ATP d          48.105  22.186  37.157  0.00  0.00    -0.616 OA
ATOM     18  O2G ATP d          47.931  20.159  35.895  0.00  0.00    -0.616 OA
ATOM     19  O3G ATP d          47.356  22.291  34.825  0.00  0.00    -0.616 OA
ENDBRANCH  15  16
ENDBRANCH  12  15
ENDBRANCH  11  12
ENDBRANCH   8  11
ENDBRANCH   7   8
ENDBRANCH   6   7
ENDBRANCH   1   6
BRANCH   3  20
ATOM     20  O3  ATP d          57.538  25.386  38.082  0.00  0.00    -0.390 OA
ATOM     21  H5  ATP d          57.565  25.999  38.807  0.00  0.00     0.210 HD
ENDBRANCH   3  20
BRANCH   5  22
ATOM     22  N9  ATP d          54.612  26.666  34.942  0.00  0.00    -0.294 N 
ATOM     23  C8  ATP d          53.309  26.195  34.831  0.00  0.00     0.214 A 
ATOM     24  N7  ATP d          52.569  26.899  33.925  0.00  0.00    -0.236 NA
ATOM     25  C5  ATP d          53.449  27.839  33.447  0.00  0.00     0.149 A 
ATOM     26  C6  ATP d          53.262  28.883  32.453  0.00  0.00     0.155 A 
ATOM     27  C4  ATP d          54.716  27.708  34.074  0.00  0.00     0.167 A 
ATOM     28  N6  ATP d          52.130  29.104  31.792  0.00  0.00    -0.382 N 
ATOM     29  N1  ATP d          54.376  29.686  32.198  0.00  0.00    -0.222 NA
ATOM     30  H10 ATP d          52.077  29.866  31.101  0.00  0.00     0.157 HD
ATOM     31  H11 ATP d          51.306  28.513  31.971  0.00  0.00     0.157 HD
ATOM     32  C2  ATP d          55.624  29.528  32.841  0.00  0.00     0.237 A 
ATOM     33  N3  ATP d          55.785  28.531  33.792  0.00  0.00    -0.222 NA
ENDBRANCH   5  22
BRANCH   4  34
ATOM     34  O2  ATP d          55.219  27.278  37.958  0.00  0.00    -0.388 OA
ATOM     35  H7  ATP d          54.603  27.837  37.500  0.00  0.00     0.210 HD
ENDBRANCH   4  34
TORSDOF 10
