REMARK  3 active torsions:
REMARK  status: ('A' for Active; 'I' for Inactive)
REMARK    1  A    between atoms: C20_6  and  C17_7 
REMARK    2  A    between atoms: C14_13  and  O14_15 
REMARK    3  A    between atoms: C3_25  and  O32_27 
ROOT
ATOM      1  C17 DTX d          11.203 -24.507  36.116  0.00  0.00     0.028 C 
ATOM      2  C16 DTX d          11.556 -26.043  36.112  0.00  0.00     0.013 C 
ATOM      3  C13 DTX d           9.967 -24.317  36.994  0.00  0.00    -0.005 C 
ATOM      4  C12 DTX d           8.737 -24.155  36.051  0.00  0.00     0.013 C 
ATOM      5  C11 DTX d           7.376 -24.351  36.706  0.00  0.00     0.007 C 
ATOM      6  C18 DTX d          10.070 -23.118  37.931  0.00  0.00     0.019 C 
ATOM      7  C14 DTX d           9.790 -25.726  37.682  0.00  0.00     0.070 C 
ATOM      8  C15 DTX d          10.262 -26.683  36.612  0.00  0.00     0.040 C 
ATOM      9  C8  DTX d           8.419 -25.959  38.361  0.00  0.00     0.025 C 
ATOM     10  C7  DTX d           8.393 -27.311  39.079  0.00  0.00     0.008 C 
ATOM     11  C9  DTX d           7.222 -25.746  37.373  0.00  0.00     0.001 C 
ATOM     12  C10 DTX d           5.866 -25.976  38.106  0.00  0.00    -0.036 C 
ATOM     13  C1  DTX d           4.706 -25.856  37.078  0.00  0.00     0.012 C 
ATOM     14  C19 DTX d           5.512 -24.881  39.166  0.00  0.00     0.016 C 
ATOM     15  C5  DTX d           5.864 -27.386  38.657  0.00  0.00    -0.004 C 
ATOM     16  C6  DTX d           7.004 -27.671  39.646  0.00  0.00     0.006 C 
ATOM     17  C4  DTX d           5.935 -28.426  37.528  0.00  0.00     0.037 C 
ATOM     18  C3  DTX d           4.835 -28.258  36.495  0.00  0.00     0.118 C 
ATOM     19  C2  DTX d           4.860 -26.850  35.934  0.00  0.00     0.032 C 
ENDROOT
BRANCH   1  20
ATOM     20  C20 DTX d          12.420 -23.740  36.532  0.00  0.00    -0.045 A 
ATOM     21  C22 DTX d          12.904 -22.525  36.164  0.00  0.00     0.087 A 
ATOM     22  C23 DTX d          14.040 -22.208  37.035  0.00  0.00     0.283 A 
ATOM     23  O23 DTX d          14.781 -21.292  37.106  0.00  0.00    -0.260 OA
ATOM     24  O21 DTX d          14.230 -23.261  37.923  0.00  0.00    -0.314 OA
ATOM     25  C21 DTX d          13.224 -24.265  37.662  0.00  0.00     0.213 A 
ENDBRANCH   1  20
BRANCH   7  26
ATOM     26  O14 DTX d          10.826 -25.864  38.702  0.00  0.00    -0.389 OA
ATOM     27  H16 DTX d          10.625 -25.294  39.435  0.00  0.00     0.210 HD
ENDBRANCH   7  26
BRANCH  18  28
ATOM     28  O32 DTX d           3.555 -28.483  37.158  0.00  0.00    -0.396 OA
ATOM     29  H34 DTX d           3.534 -29.364  37.512  0.00  0.00     0.210 HD
ENDBRANCH  18  28
TORSDOF 3
