REMARK  3 active torsions:
REMARK  status: ('A' for Active; 'I' for Inactive)
REMARK    1  A    between atoms: P_1  and  O1P_5 
REMARK    2  A    between atoms: O1P_5  and  C2_6 
REMARK    3  A    between atoms: C2_6  and  C1_7 
ROOT
ATOM      1  O1P MOL d           7.931  -2.097  16.886  0.00  0.00    -0.272 OA
ENDROOT
BRANCH   1   2
ATOM      2  P   MOL d           8.094  -1.735  18.446  0.00  0.00     0.422 P 
ATOM      3  O2P MOL d           8.942  -0.509  18.723  0.00  0.00    -0.617 OA
ATOM      4  O3P MOL d           8.469  -3.108  18.908  0.00  0.00    -0.617 OA
ATOM      5  O4P MOL d           6.541  -1.381  18.575  0.00  0.00    -0.617 OA
ENDBRANCH   1   2
BRANCH   1   6
ATOM      6  C2  MOL d           9.167  -2.415  16.289  0.00  0.00     0.295 C 
BRANCH   6   7
ATOM      7  C1  MOL d           8.907  -2.451  14.791  0.00  0.00     0.198 C 
ATOM      8  O1  MOL d           9.892  -2.135  13.999  0.00  0.00    -0.646 OA
ATOM      9  O2  MOL d           7.838  -2.815  14.318  0.00  0.00    -0.646 OA
ENDBRANCH   6   7
ENDBRANCH   1   6
TORSDOF 3
