REMARK  21 active torsions:
REMARK  status: ('A' for Active; 'I' for Inactive)
REMARK    1  A    between atoms: C35_2  and  C34_4 
REMARK    2  A    between atoms: C34_4  and  N38_5 
REMARK    3  A    between atoms: C34_4  and  C33_6 
REMARK    4  A    between atoms: C33_6  and  C32_7 
REMARK    5  A    between atoms: C32_7  and  C30_8 
REMARK       I    between atoms: C30_8  and  N29_10 
REMARK    6  A    between atoms: N29_10  and  C21_11 
REMARK    7  A    between atoms: C21_11  and  C22_12 
REMARK    8  A    between atoms: C21_11  and  C20_19 
REMARK       I    between atoms: C22_12  and  N23_14 
REMARK    9  A    between atoms: N23_14  and  C24_15 
REMARK   10  A    between atoms: C24_15  and  C25_16 
REMARK   11  A    between atoms: C20_19  and  S13_20 
REMARK   12  A    between atoms: S13_20  and  C12_21 
REMARK   13  A    between atoms: C12_21  and  C11_22 
REMARK   14  A    between atoms: C11_22  and  N7_23 
REMARK   15  A    between atoms: N7_23  and  C8_24 
REMARK   16  A    between atoms: N7_23  and  C1_27 
REMARK   17  A    between atoms: C8_24  and  C9_25 
REMARK   18  A    between atoms: C4_30  and  C14_33 
REMARK   19  A    between atoms: C14_33  and  C15_34 
REMARK   20  A    between atoms: C15_34  and  C16_35 
REMARK   21  A    between atoms: C16_35  and  C17_36 
ROOT
ATOM      1  C21 LZ6 d          21.422 -11.913  20.787  0.00  0.00     0.185 C 
ENDROOT
BRANCH   1   2
ATOM      2  N29 LZ6 d          21.305 -11.522  19.375  0.00  0.00    -0.347 N 
ATOM      3  C30 LZ6 d          21.916 -10.433  18.919  0.00  0.00     0.218 C 
ATOM      4  O31 LZ6 d          22.601  -9.694  19.624  0.00  0.00    -0.274 OA
ATOM      5  H9  LZ6 d          20.760 -12.081  18.750  0.00  0.00     0.163 HD
BRANCH   3   6
ATOM      6  C32 LZ6 d          21.718 -10.142  17.429  0.00  0.00     0.105 C 
BRANCH   6   7
ATOM      7  C33 LZ6 d          22.527  -8.915  17.004  0.00  0.00     0.053 C 
BRANCH   7   8
ATOM      8  C34 LZ6 d          22.409  -8.662  15.500  0.00  0.00     0.283 C 
BRANCH   8   9
ATOM      9  C35 LZ6 d          20.951  -8.369  15.136  0.00  0.00     0.204 C 
ATOM     10  O37 LZ6 d          20.243  -9.346  14.809  0.00  0.00    -0.646 OA
ATOM     11  O36 LZ6 d          20.578  -7.178  15.200  0.00  0.00    -0.646 OA
ENDBRANCH   8   9
BRANCH   8  12
ATOM     12  N38 LZ6 d          23.248  -7.514  15.127  0.00  0.00    -0.065 N 
ATOM     13  H2  LZ6 d          24.208  -7.707  15.367  0.00  0.00     0.275 HD
ATOM     14  H3  LZ6 d          22.936  -6.694  15.624  0.00  0.00     0.275 HD
ATOM     15  H4  LZ6 d          23.175  -7.353  14.135  0.00  0.00     0.275 HD
ENDBRANCH   8  12
ENDBRANCH   7   8
ENDBRANCH   6   7
ENDBRANCH   3   6
ENDBRANCH   1   2
BRANCH   1  16
ATOM     16  C22 LZ6 d          21.832 -13.383  20.893  0.00  0.00     0.241 C 
ATOM     17  O28 LZ6 d          21.207 -14.255  20.288  0.00  0.00    -0.271 OA
ATOM     18  N23 LZ6 d          22.873 -13.617  21.685  0.00  0.00    -0.349 N 
ATOM     19  H11 LZ6 d          23.310 -12.846  22.148  0.00  0.00     0.163 HD
BRANCH  18  20
ATOM     20  C24 LZ6 d          23.404 -14.971  21.903  0.00  0.00     0.235 C 
BRANCH  20  21
ATOM     21  C25 LZ6 d          24.855 -15.043  21.423  0.00  0.00     0.191 C 
ATOM     22  O27 LZ6 d          25.475 -16.104  21.654  0.00  0.00    -0.647 OA
ATOM     23  O26 LZ6 d          25.308 -14.037  20.835  0.00  0.00    -0.647 OA
ENDBRANCH  20  21
ENDBRANCH  18  20
ENDBRANCH   1  16
BRANCH   1  24
ATOM     24  C20 LZ6 d          20.078 -11.724  21.492  0.00  0.00     0.108 C 
BRANCH  24  25
ATOM     25  S13 LZ6 d          19.443 -10.009  21.432  0.00  0.00    -0.165 SA
BRANCH  25  26
ATOM     26  C12 LZ6 d          18.302 -10.145  22.853  0.00  0.00     0.093 C 
BRANCH  26  27
ATOM     27  C11 LZ6 d          19.072 -10.235  24.172  0.00  0.00     0.133 C 
BRANCH  27  28
ATOM     28  N7  LZ6 d          19.749  -8.951  24.391  0.00  0.00    -0.379 N 
BRANCH  28  29
ATOM     29  C8  LZ6 d          21.163  -8.772  24.024  0.00  0.00     0.138 C 
BRANCH  29  30
ATOM     30  C9  LZ6 d          22.066  -9.501  25.021  0.00  0.00     0.134 C 
ATOM     31 CL10 LZ6 d          21.845 -11.015  24.982  0.00  0.00    -0.129 Cl
ENDBRANCH  29  30
ENDBRANCH  28  29
BRANCH  28  32
ATOM     32  C1  LZ6 d          19.039  -7.945  24.894  0.00  0.00     0.030 A 
ATOM     33  C6  LZ6 d          17.698  -8.161  25.185  0.00  0.00     0.030 A 
ATOM     34  C5  LZ6 d          16.915  -7.125  25.679  0.00  0.00     0.009 A 
ATOM     35  C4  LZ6 d          17.479  -5.871  25.881  0.00  0.00    -0.058 A 
ATOM     36  C3  LZ6 d          18.823  -5.654  25.595  0.00  0.00     0.009 A 
ATOM     37  C2  LZ6 d          19.606  -6.692  25.100  0.00  0.00     0.030 A 
BRANCH  35  38
ATOM     38  C14 LZ6 d          16.588  -4.740  26.394  0.00  0.00     0.039 C 
BRANCH  38  39
ATOM     39  C15 LZ6 d          17.072  -4.187  27.737  0.00  0.00     0.015 C 
BRANCH  39  40
ATOM     40  C16 LZ6 d          16.012  -3.266  28.346  0.00  0.00     0.113 C 
BRANCH  40  41
ATOM     41  C17 LZ6 d          15.609  -2.141  27.392  0.00  0.00     0.172 C 
ATOM     42  O18 LZ6 d          15.187  -2.471  26.262  0.00  0.00    -0.648 OA
ATOM     43  O19 LZ6 d          15.712  -0.969  27.817  0.00  0.00    -0.648 OA
ENDBRANCH  40  41
ENDBRANCH  39  40
ENDBRANCH  38  39
ENDBRANCH  35  38
ENDBRANCH  28  32
ENDBRANCH  27  28
ENDBRANCH  26  27
ENDBRANCH  25  26
ENDBRANCH  24  25
ENDBRANCH   1  24
TORSDOF 21
