REMARK  7 active torsions:
REMARK  status: ('A' for Active; 'I' for Inactive)
REMARK    1  A    between atoms: N_1  and  CA_2 
REMARK    2  A    between atoms: CA_2  and  C_3 
REMARK    3  A    between atoms: CA_2  and  CB_5 
REMARK    4  A    between atoms: CB_5  and  CG_6 
REMARK    5  A    between atoms: CG_6  and  CD_7 
REMARK    6  A    between atoms: CD_7  and  CE_8 
REMARK    7  A    between atoms: CE_8  and  NZ_9 
ROOT
ATOM      1  CA  LYS d          26.041 -42.718   5.256  0.00  0.00     0.283 C 
ENDROOT
BRANCH   1   2
ATOM      2  N   LYS d          26.175 -42.493   3.797  0.00  0.00    -0.065 N 
ATOM      3  H1  LYS d          27.105 -42.162   3.592  0.00  0.00     0.275 HD
ATOM      4  H2  LYS d          25.501 -41.805   3.500  0.00  0.00     0.275 HD
ATOM      5  H3  LYS d          26.011 -43.358   3.307  0.00  0.00     0.275 HD
ENDBRANCH   1   2
BRANCH   1   6
ATOM      6  C   LYS d          24.623 -43.220   5.552  0.00  0.00     0.204 C 
ATOM      7  O   LYS d          24.281 -43.254   6.746  0.00  0.00    -0.646 OA
ATOM      8  OXT LYS d          23.883 -43.562   4.592  0.00  0.00    -0.646 OA
ENDBRANCH   1   6
BRANCH   1   9
ATOM      9  CB  LYS d          26.350 -41.402   6.007  0.00  0.00     0.044 C 
BRANCH   9  10
ATOM     10  CG  LYS d          25.371 -40.276   5.748  0.00  0.00     0.004 C 
BRANCH  10  11
ATOM     11  CD  LYS d          25.733 -39.039   6.501  0.00  0.00     0.027 C 
BRANCH  11  12
ATOM     12  CE  LYS d          24.706 -37.990   6.199  0.00  0.00     0.229 C 
BRANCH  12  13
ATOM     13  NZ  LYS d          24.971 -36.708   6.894  0.00  0.00    -0.079 N 
ATOM     14  H13 LYS d          24.253 -36.042   6.656  0.00  0.00     0.274 HD
ATOM     15  H14 LYS d          25.869 -36.350   6.608  0.00  0.00     0.274 HD
ATOM     16  H15 LYS d          24.971 -36.860   7.891  0.00  0.00     0.274 HD
ENDBRANCH  12  13
ENDBRANCH  11  12
ENDBRANCH  10  11
ENDBRANCH   9  10
ENDBRANCH   1   9
TORSDOF 7
