REMARK  7 active torsions:
REMARK  status: ('A' for Active; 'I' for Inactive)
REMARK    1  A    between atoms: C19_16  and  C22_10 
REMARK       I    between atoms: C22_10  and  N25_19 
REMARK    2  A    between atoms: C18_15  and  C12_12 
REMARK    3  A    between atoms: N25_19  and  C171_23 
REMARK    4  A    between atoms: C171_23  and  C181_24 
REMARK    5  A    between atoms: C181_24  and  N4_25 
REMARK    6  A    between atoms: N4_25  and  C191_26 
REMARK    7  A    between atoms: N4_25  and  C201_27 
ROOT
ATOM      1  C4  B49 d          10.561 -11.635  -2.836  0.00  0.00     0.069 C 
ATOM      2  C13 B49 d           7.942 -11.512  -0.190  0.00  0.00    -0.018 A 
ATOM      3  C3  B49 d           7.361 -11.477   1.205  0.00  0.00     0.052 C 
ATOM      4  C14 B49 d           9.345 -11.588  -1.949  0.00  0.00     0.022 A 
ATOM      5  C18 B49 d           7.206 -11.512  -1.363  0.00  0.00     0.040 A 
ATOM      6  C19 B49 d           9.310 -11.565  -0.557  0.00  0.00     0.062 A 
ATOM      7  N23 B49 d           8.087 -11.554  -2.419  0.00  0.00    -0.359 N 
ATOM      8  H11 B49 d           7.823 -11.559  -3.415  0.00  0.00     0.166 HD
ENDROOT
BRANCH   5   9
ATOM      9  C12 B49 d           5.795 -11.462  -1.424  0.00  0.00     0.048 C 
ATOM     10  C20 B49 d           5.005 -11.470  -2.561  0.00  0.00     0.047 A 
ATOM     11  C17 B49 d           3.530 -11.389  -2.525  0.00  0.00     0.009 A 
ATOM     12  C21 B49 d           5.346 -11.542  -3.998  0.00  0.00     0.257 A 
ATOM     13  C7  B49 d           2.610 -11.298  -1.479  0.00  0.00     0.057 A 
ATOM     14  C16 B49 d           3.093 -11.383  -3.858  0.00  0.00     0.046 A 
ATOM     15  C15 B49 d           1.257 -11.220  -1.764  0.00  0.00     0.117 A 
ATOM     16  C5  B49 d           0.818 -11.226  -3.083  0.00  0.00     0.044 A 
ATOM     17  F29 B49 d           0.361 -11.137  -0.756  0.00  0.00    -0.206 F 
ATOM     18  C6  B49 d           1.727 -11.309  -4.125  0.00  0.00     0.033 A 
ATOM     19  N24 B49 d           4.197 -11.479  -4.694  0.00  0.00    -0.322 N 
ATOM     20  H12 B49 d           4.144 -11.499  -5.692  0.00  0.00     0.169 HD
ATOM     21  O27 B49 d           6.454 -11.645  -4.499  0.00  0.00    -0.267 OA
ENDBRANCH   5   9
BRANCH   6  22
ATOM     22  C22 B49 d          10.469 -11.592   0.373  0.00  0.00     0.254 C 
ATOM     23  N25 B49 d          11.628 -12.185   0.004  0.00  0.00    -0.355 N 
ATOM     24  H13 B49 d          11.693 -12.602  -0.902  0.00  0.00     0.162 HD
ATOM     25  O28 B49 d          10.371 -11.087   1.477  0.00  0.00    -0.268 OA
BRANCH  23  26
ATOM     26  C17 B49 d          12.794 -12.233   0.897  0.00  0.00     0.150 C 
BRANCH  26  27
ATOM     27  C18 B49 d          13.629 -10.961   0.720  0.00  0.00     0.254 C 
BRANCH  27  28
ATOM     28  N4  B49 d          14.591 -11.147  -0.381  0.00  0.00    -0.070 N 
ATOM     29  H18 B49 d          14.564 -12.133  -0.587  0.00  0.00     0.279 HD
BRANCH  28  30
ATOM     30  C19 B49 d          14.244 -10.484  -1.656  0.00  0.00     0.230 C 
ATOM     31  C22 B49 d          13.442  -9.188  -1.478  0.00  0.00     0.034 C 
ENDBRANCH  28  30
BRANCH  28  32
ATOM     32  C20 B49 d          15.971 -10.869   0.044  0.00  0.00     0.230 C 
ATOM     33  C21 B49 d          16.778 -12.171   0.037  0.00  0.00     0.034 C 
ENDBRANCH  28  32
ENDBRANCH  27  28
ENDBRANCH  26  27
ENDBRANCH  23  26
ENDBRANCH   6  22
TORSDOF 7
