REMARK  5 active torsions:
REMARK  status: ('A' for Active; 'I' for Inactive)
REMARK    1  A    between atoms: C1_10  and  S4_11 
REMARK    2  A    between atoms: S4_11  and  N7_14 
REMARK    3  A    between atoms: N7_14  and  C12_15 
REMARK    4  A    between atoms: N18_20  and  C21_21 
REMARK    5  A    between atoms: C21_21  and  C22_23 
REMARK       I    between atoms: C22_23  and  N24_25 
ROOT
ATOM      1  C12 GSQ d           6.190   6.819  22.842  0.00  0.00     0.186 C 
ATOM      2  C15 GSQ d           7.071   6.248  21.733  0.00  0.00     0.244 C 
ATOM      3  O19 GSQ d           8.136   6.726  21.335  0.00  0.00    -0.271 OA
ATOM      4  C16 GSQ d           4.849   6.075  22.718  0.00  0.00     0.055 C 
ATOM      5  C20 GSQ d           5.051   5.065  21.578  0.00  0.00     0.129 C 
ATOM      6  N18 GSQ d           6.488   5.117  21.286  0.00  0.00    -0.337 N 
ENDROOT
BRANCH   1   7
ATOM      7  N7  GSQ d           6.003   8.268  22.850  0.00  0.00    -0.300 N 
ATOM      8  H6  GSQ d           5.509   8.670  22.079  0.00  0.00     0.173 HD
BRANCH   7   9
ATOM      9  S4  GSQ d           6.531   9.282  24.007  0.00  0.00     0.275 S 
ATOM     10  O8  GSQ d           5.665   9.173  25.139  0.00  0.00    -0.199 OA
ATOM     11  O9  GSQ d           6.608  10.509  23.279  0.00  0.00    -0.199 OA
BRANCH   9  12
ATOM     12  C1  GSQ d           8.109   8.841  24.592  0.00  0.00     0.150 A 
ATOM     13  N1  GSQ d           8.152   8.199  25.784  0.00  0.00    -0.345 N 
ATOM     14  C6  GSQ d           9.479   7.941  26.083  0.00  0.00     0.043 A 
ATOM     15  H3  GSQ d           7.340   7.947  26.366  0.00  0.00     0.167 HD
ATOM     16  C11 GSQ d          10.090   7.297  27.187  0.00  0.00     0.032 A 
ATOM     17  C5  GSQ d          10.254   8.482  24.988  0.00  0.00    -0.005 A 
ATOM     18  C14 GSQ d          11.493   7.182  27.233  0.00  0.00     0.026 A 
ATOM     19  C13 GSQ d          12.248   7.699  26.151  0.00  0.00     0.035 A 
ATOM     20 CL   GSQ d          13.985   7.528  26.187  0.00  0.00    -0.084 Cl
ATOM     21  C10 GSQ d          11.642   8.357  25.053  0.00  0.00     0.037 A 
ATOM     22  C2  GSQ d           9.372   9.070  24.037  0.00  0.00     0.057 A 
ENDBRANCH   9  12
ENDBRANCH   7   9
ENDBRANCH   1   7
BRANCH   6  23
ATOM     23  C21 GSQ d           7.254   4.043  20.614  0.00  0.00     0.175 C 
ATOM     24  C23 GSQ d           6.997   2.701  21.319  0.00  0.00     0.042 C 
BRANCH  23  25
ATOM     25  C22 GSQ d           7.000   3.870  19.112  0.00  0.00     0.242 C 
ATOM     26  O25 GSQ d           5.861   4.010  18.674  0.00  0.00    -0.271 OA
ATOM     27  N24 GSQ d           8.052   3.553  18.295  0.00  0.00    -0.346 N 
ATOM     28  C26 GSQ d           9.260   2.789  18.663  0.00  0.00     0.152 C 
ATOM     29  C27 GSQ d           8.020   3.978  16.889  0.00  0.00     0.152 C 
ATOM     30  C28 GSQ d           9.615   1.691  17.648  0.00  0.00     0.187 C 
ATOM     31  O30 GSQ d           9.606   2.256  16.337  0.00  0.00    -0.388 OA
ATOM     32  C29 GSQ d           8.331   2.788  15.971  0.00  0.00     0.187 C 
ENDBRANCH  23  25
ENDBRANCH   6  23
TORSDOF 5
