REMARK  15 active torsions:
REMARK  status: ('A' for Active; 'I' for Inactive)
REMARK    1  A    between atoms: C6_6  and  N6_7 
REMARK    2  A    between atoms: C1'_11  and  N9_10 
REMARK    3  A    between atoms: C2'_12  and  O2'_13 
REMARK    4  A    between atoms: C3'_14  and  O3'_15 
REMARK    5  A    between atoms: C5'_18  and  C4'_17 
REMARK    6  A    between atoms: O5'_19  and  C5'_18 
REMARK    7  A    between atoms: PA_20  and  O5'_19 
REMARK    8  A    between atoms: O3A_23  and  PA_20 
REMARK    9  A    between atoms: PB_24  and  O3A_23 
REMARK   10  A    between atoms: O5D_27  and  PB_24 
REMARK   11  A    between atoms: C5D_28  and  O5D_27 
REMARK   12  A    between atoms: C4D_36  and  C5D_28 
REMARK   13  A    between atoms: C1D_31  and  O1D_30 
REMARK   14  A    between atoms: C2D_33  and  O2D_32 
REMARK   15  A    between atoms: C3D_35  and  O3D_34 
ROOT
ATOM      1  C5' APR d          15.402  18.307  13.774  0.00  0.00     0.216 C 
ENDROOT
BRANCH   1   2
ATOM      2  C4' APR d          15.120  19.008  15.146  0.00  0.00     0.180 C 
ATOM      3  C3' APR d          13.652  19.445  15.321  0.00  0.00     0.182 C 
ATOM      4  C2' APR d          13.688  20.914  14.943  0.00  0.00     0.198 C 
ATOM      5  C1' APR d          15.032  21.333  15.513  0.00  0.00     0.262 C 
ATOM      6  O4' APR d          15.924  20.241  15.266  0.00  0.00    -0.353 OA
BRANCH   3   7
ATOM      7  O3' APR d          13.264  19.348  16.676  0.00  0.00    -0.390 OA
ATOM      8  H9  APR d          12.404  19.735  16.786  0.00  0.00     0.210 HD
ENDBRANCH   3   7
BRANCH   4   9
ATOM      9  O2' APR d          12.659  21.658  15.606  0.00  0.00    -0.388 OA
ATOM     10  H7  APR d          12.687  21.474  16.538  0.00  0.00     0.210 HD
ENDBRANCH   4   9
BRANCH   5  11
ATOM     11  N9  APR d          15.381  22.584  14.777  0.00  0.00    -0.294 N 
ATOM     12  C4  APR d          16.289  23.460  15.209  0.00  0.00     0.167 A 
ATOM     13  N3  APR d          17.089  23.451  16.285  0.00  0.00    -0.222 NA
ATOM     14  C5  APR d          16.336  24.523  14.285  0.00  0.00     0.149 A 
ATOM     15  C2  APR d          17.927  24.472  16.492  0.00  0.00     0.237 A 
ATOM     16  N1  APR d          18.015  25.518  15.654  0.00  0.00    -0.222 NA
ATOM     17  C6  APR d          17.251  25.589  14.537  0.00  0.00     0.155 A 
ATOM     18  N7  APR d          15.430  24.220  13.312  0.00  0.00    -0.236 NA
ATOM     19  C8  APR d          14.854  23.047  13.626  0.00  0.00     0.214 A 
BRANCH  17  20
ATOM     20  N6  APR d          17.400  26.652  13.726  0.00  0.00    -0.382 N 
ATOM     21  H2  APR d          16.832  26.731  12.870  0.00  0.00     0.157 HD
ATOM     22  H3  APR d          18.082  27.387  13.961  0.00  0.00     0.157 HD
ENDBRANCH  17  20
ENDBRANCH   5  11
ENDBRANCH   1   2
BRANCH   1  23
ATOM     23  O5' APR d          14.770  19.029  12.687  0.00  0.00    -0.287 OA
BRANCH  23  24
ATOM     24  PA  APR d          15.429  19.223  11.256  0.00  0.00     0.417 P 
ATOM     25  O1A APR d          16.681  19.987  11.484  0.00  0.00    -0.624 OA
ATOM     26  O2A APR d          14.472  19.825  10.288  0.00  0.00    -0.624 OA
BRANCH  24  27
ATOM     27  O3A APR d          15.868  17.587  10.884  0.00  0.00    -0.180 OA
BRANCH  27  28
ATOM     28  PB  APR d          15.142  16.469   9.817  0.00  0.00     0.417 P 
ATOM     29  O1B APR d          13.766  16.706  10.337  0.00  0.00    -0.624 OA
ATOM     30  O2B APR d          16.051  15.394  10.362  0.00  0.00    -0.624 OA
BRANCH  28  31
ATOM     31  O5D APR d          15.673  17.399   8.669  0.00  0.00    -0.287 OA
BRANCH  31  32
ATOM     32  C5D APR d          16.815  17.028   7.937  0.00  0.00     0.216 C 
BRANCH  32  33
ATOM     33  C4D APR d          16.899  17.998   6.785  0.00  0.00     0.180 C 
ATOM     34  O4D APR d          16.629  19.272   7.378  0.00  0.00    -0.349 OA
ATOM     35  C1D APR d          17.691  20.198   6.961  0.00  0.00     0.288 C 
ATOM     36  C2D APR d          18.915  19.279   6.806  0.00  0.00     0.204 C 
ATOM     37  C3D APR d          18.235  18.131   6.050  0.00  0.00     0.182 C 
BRANCH  35  38
ATOM     38  O1D APR d          17.124  20.725   5.728  0.00  0.00    -0.369 OA
ATOM     39  H15 APR d          16.979  20.012   5.117  0.00  0.00     0.212 HD
ENDBRANCH  35  38
BRANCH  36  40
ATOM     40  O2D APR d          19.981  19.833   5.995  0.00  0.00    -0.388 OA
ATOM     41  H17 APR d          19.654  20.009   5.121  0.00  0.00     0.210 HD
ENDBRANCH  36  40
BRANCH  37  42
ATOM     42  O3D APR d          17.978  18.508   4.661  0.00  0.00    -0.390 OA
ATOM     43  H19 APR d          17.410  19.269   4.641  0.00  0.00     0.210 HD
ENDBRANCH  37  42
ENDBRANCH  32  33
ENDBRANCH  31  32
ENDBRANCH  28  31
ENDBRANCH  27  28
ENDBRANCH  24  27
ENDBRANCH  23  24
ENDBRANCH   1  23
TORSDOF 15
