REMARK  8 active torsions:
REMARK  status: ('A' for Active; 'I' for Inactive)
REMARK    1  A    between atoms: CAT_4  and  NAA_5 
REMARK    2  A    between atoms: NBD_8  and  CBC_9 
REMARK    3  A    between atoms: CBA_11  and  OAE_12 
REMARK    4  A    between atoms: CAZ_13  and  OAD_14 
REMARK    5  A    between atoms: CB0_15  and  CAN_16 
REMARK    6  A    between atoms: CAN_16  and  NAQ_17 
REMARK       I    between atoms: NAQ_17  and  CAU_18 
REMARK    7  A    between atoms: CAU_18  and  CAL_20 
REMARK    8  A    between atoms: CAL_20  and  CA0_21 
ROOT
ATOM      1  CBC V12 d          14.677 -10.372  17.184  0.00  0.00     0.263 C 
ATOM      2  OAS V12 d          15.195 -10.090  18.538  0.00  0.00    -0.354 OA
ATOM      3  CBA V12 d          15.903 -10.550  16.268  0.00  0.00     0.198 C 
ATOM      4  CAZ V12 d          17.097 -10.290  17.189  0.00  0.00     0.181 C 
ATOM      5  CB0 V12 d          16.559 -10.490  18.594  0.00  0.00     0.173 C 
ENDROOT
BRANCH   5   6
ATOM      6  CAN V12 d          17.290  -9.475  19.479  0.00  0.00     0.157 C 
BRANCH   6   7
ATOM      7  NAQ V12 d          16.970  -9.662  20.905  0.00  0.00    -0.358 N 
ATOM      8  CAU V12 d          17.777 -10.289  21.765  0.00  0.00     0.224 C 
ATOM      9  OAB V12 d          18.866 -10.783  21.470  0.00  0.00    -0.273 OA
ATOM     10  H13 V12 d          16.103  -9.300  21.247  0.00  0.00     0.162 HD
BRANCH   8  11
ATOM     11  CAL V12 d          17.243 -10.349  23.202  0.00  0.00     0.181 C 
BRANCH  11  12
ATOM     12  CA0 V12 d          17.597 -11.665  23.910  0.00  0.00     0.114 A 
ATOM     13  NAR V12 d          17.345 -11.920  25.194  0.00  0.00    -0.233 NA
ATOM     14  CAY V12 d          17.779 -13.143  25.477  0.00  0.00     0.085 A 
ATOM     15  CAK V12 d          17.770 -13.900  26.648  0.00  0.00     0.034 A 
ATOM     16  CAX V12 d          18.322 -13.663  24.308  0.00  0.00     0.062 A 
ATOM     17  CAI V12 d          18.310 -15.186  26.642  0.00  0.00     0.002 A 
ATOM     18  CAH V12 d          18.857 -15.709  25.469  0.00  0.00     0.002 A 
ATOM     19  CAJ V12 d          18.864 -14.948  24.300  0.00  0.00     0.032 A 
ATOM     20  NAP V12 d          18.193 -12.730  23.368  0.00  0.00    -0.342 N 
ATOM     21  H20 V12 d          18.501 -12.815  22.389  0.00  0.00     0.167 HD
ENDBRANCH  11  12
ENDBRANCH   8  11
ENDBRANCH   6   7
ENDBRANCH   5   6
BRANCH   4  22
ATOM     22  OAD V12 d          18.113 -11.263  16.949  0.00  0.00    -0.390 OA
ATOM     23  H9  V12 d          17.766 -12.130  17.121  0.00  0.00     0.210 HD
ENDBRANCH   4  22
BRANCH   1  24
ATOM     24  NBD V12 d          13.828  -9.190  16.831  0.00  0.00    -0.280 N 
ATOM     25  CAV V12 d          12.982  -9.133  15.695  0.00  0.00     0.330 A 
ATOM     26  OAC V12 d          12.876 -10.068  14.898  0.00  0.00    -0.246 OA
ATOM     27  NAO V12 d          12.262  -8.019  15.475  0.00  0.00    -0.293 N 
ATOM     28  CAT V12 d          12.307  -6.953  16.293  0.00  0.00     0.125 A 
ATOM     29  H1  V12 d          11.669  -7.982  14.671  0.00  0.00     0.172 HD
ATOM     30  CAF V12 d          13.117  -6.955  17.421  0.00  0.00     0.067 A 
ATOM     31  CAG V12 d          13.880  -8.078  17.699  0.00  0.00     0.102 A 
BRANCH  28  32
ATOM     32  NAA V12 d          11.575  -5.873  16.034  0.00  0.00    -0.284 NA
ATOM     33  H2  V12 d          11.614  -5.078  16.652  0.00  0.00     0.188 HD
ENDBRANCH  28  32
ENDBRANCH   1  24
BRANCH   3  34
ATOM     34  OAE V12 d          15.937 -11.889  15.727  0.00  0.00    -0.388 OA
ATOM     35  H7  V12 d          16.697 -11.983  15.165  0.00  0.00     0.210 HD
ENDBRANCH   3  34
TORSDOF 8
