REMARK  4 active torsions:
REMARK  status: ('A' for Active; 'I' for Inactive)
REMARK    1  A    between atoms: N1_1  and  C6_13 
REMARK    2  A    between atoms: C1_3  and  C5_10 
REMARK    3  A    between atoms: C2_4  and  N3_6 
REMARK       I    between atoms: N3_6  and  C4_7 
REMARK       I    between atoms: C4_7  and  N4_8 
REMARK       I    between atoms: C5_10  and  N5_11 
REMARK    4  A    between atoms: C14_21  and  O3_23 
ROOT
ATOM      1  N1  M0Z d          -5.022   8.409  13.457  0.00  0.00    -0.241 N 
ATOM      2  N2  M0Z d          -6.125   7.755  13.868  0.00  0.00    -0.160 NA
ATOM      3  C1  M0Z d          -5.669   6.787  14.727  0.00  0.00     0.172 A 
ATOM      4  C2  M0Z d          -4.239   6.854  14.837  0.00  0.00     0.090 A 
ATOM      5  C3  M0Z d          -3.837   7.900  13.999  0.00  0.00     0.151 A 
ENDROOT
BRANCH   1   6
ATOM      6  C6  M0Z d          -5.059   9.490  12.514  0.00  0.00     0.069 A 
ATOM      7  C7  M0Z d          -4.394   9.315  11.324  0.00  0.00     0.032 A 
ATOM      8  C8  M0Z d          -4.406  10.348  10.365  0.00  0.00     0.003 A 
ATOM      9  C9  M0Z d          -5.086  11.509  10.615  0.00  0.00     0.012 A 
ATOM     10  C11 M0Z d          -5.740  11.708  11.855  0.00  0.00    -0.024 A 
ATOM     11  C10 M0Z d          -5.741  10.698  12.832  0.00  0.00     0.005 A 
ATOM     12  C12 M0Z d          -6.403  12.937  12.119  0.00  0.00     0.015 A 
ATOM     13  C15 M0Z d          -6.396  10.909  14.071  0.00  0.00     0.051 A 
ATOM     14  C14 M0Z d          -7.027  12.107  14.281  0.00  0.00     0.069 A 
ATOM     15  C13 M0Z d          -7.037  13.143  13.303  0.00  0.00     0.037 A 
BRANCH  14  16
ATOM     16  O3  M0Z d          -7.678  12.476  15.418  0.00  0.00    -0.356 OA
ATOM     17  C16 M0Z d          -7.995  11.461  16.335  0.00  0.00     0.210 C 
ENDBRANCH  14  16
ENDBRANCH   1   6
BRANCH   3  18
ATOM     18  C5  M0Z d          -6.546   5.833  15.410  0.00  0.00     0.272 C 
ATOM     19  N5  M0Z d          -7.865   5.795  15.034  0.00  0.00    -0.365 N 
ATOM     20  H   M0Z d          -8.493   5.156  15.478  0.00  0.00     0.159 HD
ATOM     21  H   M0Z d          -8.198   6.406  14.316  0.00  0.00     0.159 HD
ATOM     22  O2  M0Z d          -6.122   5.073  16.289  0.00  0.00    -0.266 OA
ENDBRANCH   3  18
BRANCH   4  23
ATOM     23  N3  M0Z d          -3.471   6.015  15.635  0.00  0.00    -0.305 N 
ATOM     24  C4  M0Z d          -2.075   6.164  15.715  0.00  0.00     0.318 C 
ATOM     25  N4  M0Z d          -1.423   5.319  16.604  0.00  0.00    -0.352 N 
ATOM     26  O1  M0Z d          -1.439   6.988  15.048  0.00  0.00    -0.247 OA
ATOM     27  H   M0Z d          -0.430   5.373  16.709  0.00  0.00     0.160 HD
ATOM     28  H   M0Z d          -1.947   4.656  17.139  0.00  0.00     0.160 HD
ATOM     29  H   M0Z d          -3.919   5.293  16.162  0.00  0.00     0.171 HD
ENDBRANCH   4  23
TORSDOF 4
