REMARK  11 active torsions:
REMARK  status: ('A' for Active; 'I' for Inactive)
REMARK    1  A    between atoms: C11_1  and  O1_34 
REMARK    2  A    between atoms: C20_10  and  N18_8 
REMARK    3  A    between atoms: C19_9  and  C21_11 
REMARK    4  A    between atoms: C28_16  and  C20_10 
REMARK       I    between atoms: C21_11  and  N22_12 
REMARK    5  A    between atoms: N22_12  and  C23_13 
REMARK    6  A    between atoms: C23_13  and  C24_14 
REMARK    7  A    between atoms: C31_17  and  C36_22 
REMARK    8  A    between atoms: C36_22  and  N37_23 
REMARK    9  A    between atoms: C40_26  and  N44_30 
REMARK   10  A    between atoms: O1_34  and  C1_35 
REMARK   11  A    between atoms: C1_35  and  C2_36 
ROOT
ATOM      1  C11 IMA d           2.855  10.412  24.278  0.00  0.00     0.070 A 
ATOM      2  C12 IMA d           3.653   9.817  25.282  0.00  0.00     0.039 A 
ATOM      3  C13 IMA d           4.752   9.045  24.910  0.00  0.00     0.033 A 
ATOM      4  C14 IMA d           5.052   8.897  23.534  0.00  0.00     0.045 A 
ATOM      5  C15 IMA d           4.271   9.530  22.518  0.00  0.00    -0.004 A 
ATOM      6  C16 IMA d           3.159  10.275  22.906  0.00  0.00     0.050 A 
ATOM      7  C17 IMA d           4.832   9.243  21.259  0.00  0.00     0.049 A 
ATOM      8  N18 IMA d           6.068   8.208  22.880  0.00  0.00    -0.337 N 
ATOM      9  C19 IMA d           5.946   8.416  21.538  0.00  0.00     0.104 A 
ENDROOT
BRANCH   9  10
ATOM     10  C21 IMA d           6.789   7.900  20.548  0.00  0.00     0.268 C 
ATOM     11  N22 IMA d           6.269   7.692  19.348  0.00  0.00    -0.351 N 
ATOM     12  H7  IMA d           5.296   7.801  19.143  0.00  0.00     0.163 HD
ATOM     13  O27 IMA d           7.972   7.672  20.782  0.00  0.00    -0.266 OA
BRANCH  11  14
ATOM     14  C23 IMA d           7.251   7.291  18.364  0.00  0.00     0.161 C 
BRANCH  14  15
ATOM     15  C24 IMA d           7.500   5.798  18.226  0.00  0.00    -0.040 A 
ATOM     16  C42 IMA d           6.882   5.126  17.157  0.00  0.00     0.011 A 
ATOM     17  C41 IMA d           7.200   3.775  16.907  0.00  0.00     0.038 A 
ATOM     18  C40 IMA d           8.111   3.084  17.732  0.00  0.00     0.135 A 
ATOM     19  C39 IMA d           8.673   3.767  18.834  0.00  0.00     0.038 A 
ATOM     20  C43 IMA d           8.368   5.119  19.086  0.00  0.00     0.011 A 
BRANCH  18  21
ATOM     21  N44 IMA d           8.435   1.711  17.401  0.00  0.00    -0.049 N 
ATOM     22  C45 IMA d           9.282   1.739  16.207  0.00  0.00     0.278 C 
ATOM     23  C49 IMA d           7.221   0.923  17.121  0.00  0.00     0.278 C 
ATOM     24  C53 IMA d           9.154   0.860  18.365  0.00  0.00     0.278 C 
ENDBRANCH  18  21
ENDBRANCH  14  15
ENDBRANCH  11  14
ENDBRANCH   9  10
BRANCH   8  25
ATOM     25  C20 IMA d           7.002   7.276  23.530  0.00  0.00     0.168 C 
BRANCH  25  26
ATOM     26  C28 IMA d           8.189   7.928  24.165  0.00  0.00    -0.039 A 
ATOM     27  C32 IMA d           8.630   7.311  25.336  0.00  0.00     0.024 A 
ATOM     28  C31 IMA d           9.813   7.778  25.959  0.00  0.00     0.007 A 
ATOM     29  C35 IMA d          10.510   8.892  25.406  0.00  0.00     0.015 A 
ATOM     30  C34 IMA d          10.037   9.537  24.249  0.00  0.00     0.002 A 
ATOM     31  C33 IMA d           8.871   9.046  23.624  0.00  0.00     0.009 A 
BRANCH  28  32
ATOM     32  C36 IMA d          10.244   7.054  27.173  0.00  0.00     0.102 C 
ATOM     33  N38 IMA d          11.527   7.046  27.555  0.00  0.00    -0.385 N 
ATOM     34  H16 IMA d          12.232   7.553  27.002  0.00  0.00     0.157 HD
ATOM     35  H17 IMA d          11.809   6.533  28.402  0.00  0.00     0.157 HD
BRANCH  32  36
ATOM     36  N37 IMA d           9.260   6.414  27.844  0.00  0.00    -0.385 N 
ATOM     37  H14 IMA d           8.290   6.457  27.500  0.00  0.00     0.157 HD
ATOM     38  H15 IMA d           9.480   5.883  28.699  0.00  0.00     0.157 HD
ENDBRANCH  32  36
ENDBRANCH  28  32
ENDBRANCH  25  26
ENDBRANCH   8  25
BRANCH   1  39
ATOM     39  O1  IMA d           1.749  11.123  24.703  0.00  0.00    -0.347 OA
BRANCH  39  40
ATOM     40  C1  IMA d           0.943  11.799  23.747  0.00  0.00     0.214 C 
BRANCH  40  41
ATOM     41  C2  IMA d          -0.012  12.576  24.599  0.00  0.00    -0.034 A 
ATOM     42  C3  IMA d          -1.142  13.132  23.989  0.00  0.00     0.009 A 
ATOM     43  C4  IMA d          -2.087  13.812  24.785  0.00  0.00     0.001 A 
ATOM     44  C5  IMA d          -1.873  13.925  26.175  0.00  0.00     0.000 A 
ATOM     45  C6  IMA d          -0.724  13.391  26.784  0.00  0.00     0.001 A 
ATOM     46  C7  IMA d           0.215  12.718  25.991  0.00  0.00     0.009 A 
ENDBRANCH  40  41
ENDBRANCH  39  40
ENDBRANCH   1  39
TORSDOF 11
