REMARK  12 active torsions:
REMARK  status: ('A' for Active; 'I' for Inactive)
REMARK    1  A    between atoms: C1_1  and  C7_7 
REMARK    2  A    between atoms: C7_7  and  N1_8 
REMARK    3  A    between atoms: C8_12  and  C1'_13 
REMARK    4  A    between atoms: C3'_15  and  C31'_16 
REMARK    5  A    between atoms: C31'_16  and  C32'_17 
REMARK    6  A    between atoms: C31'_16  and  C42'_20 
REMARK    7  A    between atoms: C42'_20  and  C43'_21 
REMARK    8  A    between atoms: C5'_25  and  C1''_28 
REMARK    9  A    between atoms: C6'_26  and  O6'_27 
REMARK   10  A    between atoms: C2''_29  and  O2''_39 
REMARK   11  A    between atoms: C5''_32  and  C51_33 
REMARK   12  A    between atoms: C51_33  and  N52_34 
REMARK       I    between atoms: N52_34  and  C53_35 
REMARK       I    between atoms: C53_35  and  N55_37 
ROOT
ATOM      1  C1' C1B d         -12.893   4.759  10.332  0.00  0.00     0.044 A 
ATOM      2  C2' C1B d         -13.742   5.853  10.434  0.00  0.00     0.026 A 
ATOM      3  C3' C1B d         -14.981   5.883   9.820  0.00  0.00    -0.041 A 
ATOM      4  C4' C1B d         -15.405   4.789   9.068  0.00  0.00     0.023 A 
ATOM      5  C5' C1B d         -14.605   3.649   8.918  0.00  0.00     0.011 A 
ATOM      6  C6' C1B d         -13.347   3.662   9.567  0.00  0.00     0.090 A 
ENDROOT
BRANCH   1   7
ATOM      7  C8  C1B d         -11.643   4.762  10.970  0.00  0.00     0.142 A 
ATOM      8  N3  C1B d         -10.813   3.768  10.919  0.00  0.00    -0.228 NA
ATOM      9  C4  C1B d          -9.785   4.134  11.608  0.00  0.00     0.086 A 
ATOM     10  C3  C1B d          -8.635   3.459  11.870  0.00  0.00     0.035 A 
ATOM     11  C5  C1B d         -10.040   5.359  12.058  0.00  0.00     0.063 A 
ATOM     12  C2  C1B d          -7.693   4.124  12.659  0.00  0.00     0.017 A 
ATOM     13  C1  C1B d          -7.923   5.437  13.165  0.00  0.00     0.009 A 
ATOM     14  C6  C1B d          -9.149   6.059  12.839  0.00  0.00     0.047 A 
ATOM     15  N4  C1B d         -11.226   5.805  11.673  0.00  0.00    -0.338 N 
ATOM     16  H8  C1B d         -11.691   6.704  11.865  0.00  0.00     0.167 HD
BRANCH  13  17
ATOM     17  C7  C1B d          -6.965   6.070  13.952  0.00  0.00     0.102 C 
ATOM     18  N2  C1B d          -6.037   5.342  14.551  0.00  0.00    -0.385 N 
ATOM     19  H6  C1B d          -6.031   4.319  14.435  0.00  0.00     0.157 HD
ATOM     20  H7  C1B d          -5.320   5.799  15.133  0.00  0.00     0.157 HD
BRANCH  17  21
ATOM     21  N1  C1B d          -7.021   7.376  14.064  0.00  0.00    -0.385 N 
ATOM     22  H4  C1B d          -6.327   7.874  14.639  0.00  0.00     0.157 HD
ATOM     23  H5  C1B d          -7.760   7.904  13.577  0.00  0.00     0.157 HD
ENDBRANCH  17  21
ENDBRANCH  13  17
ENDBRANCH   1   7
BRANCH   6  24
ATOM     24  O6' C1B d         -12.491   2.578   9.468  0.00  0.00    -0.359 OA
ATOM     25  H14 C1B d         -11.698   2.756   9.961  0.00  0.00     0.217 HD
ENDBRANCH   6  24
BRANCH   3  26
ATOM     26  C31 C1B d         -15.885   7.105  10.028  0.00  0.00     0.129 C 
BRANCH  26  27
ATOM     27  C32 C1B d         -17.294   6.571  10.452  0.00  0.00     0.182 C 
ATOM     28  O33 C1B d         -17.348   6.023  11.549  0.00  0.00    -0.647 OA
ATOM     29  O34 C1B d         -18.248   6.706   9.706  0.00  0.00    -0.647 OA
ENDBRANCH  26  27
BRANCH  26  30
ATOM     30  C42 C1B d         -15.819   8.066   8.785  0.00  0.00     0.133 C 
BRANCH  30  31
ATOM     31  C43 C1B d         -14.471   8.867   8.669  0.00  0.00     0.173 C 
ATOM     32  O44 C1B d         -13.832   9.220   9.656  0.00  0.00    -0.648 OA
ATOM     33  O45 C1B d         -14.105   9.120   7.537  0.00  0.00    -0.648 OA
ENDBRANCH  30  31
ENDBRANCH  26  30
ENDBRANCH   3  26
BRANCH   5  34
ATOM     34  C1' C1B d         -15.064   2.566   8.155  0.00  0.00     0.011 A 
ATOM     35  C2' C1B d         -14.225   1.865   7.294  0.00  0.00     0.076 A 
ATOM     36  C3' C1B d         -14.663   0.792   6.572  0.00  0.00     0.038 A 
ATOM     37  C4' C1B d         -15.961   0.373   6.668  0.00  0.00     0.011 A 
ATOM     38  C5' C1B d         -16.844   1.023   7.492  0.00  0.00    -0.039 A 
ATOM     39  C6' C1B d         -16.396   2.120   8.236  0.00  0.00     0.024 A 
BRANCH  35  40
ATOM     40  O2' C1B d         -12.910   2.233   7.100  0.00  0.00    -0.360 OA
ATOM     41  H23 C1B d         -12.709   2.984   7.646  0.00  0.00     0.217 HD
ENDBRANCH  35  40
BRANCH  38  42
ATOM     42  C51 C1B d         -18.280   0.508   7.553  0.00  0.00     0.162 C 
BRANCH  42  43
ATOM     43  N52 C1B d         -18.750   0.691   8.946  0.00  0.00    -0.339 N 
ATOM     44  C53 C1B d         -19.561   1.686   9.234  0.00  0.00     0.314 C 
ATOM     45  O54 C1B d         -19.947   2.459   8.379  0.00  0.00    -0.248 OA
ATOM     46  N55 C1B d         -20.008   1.907  10.447  0.00  0.00    -0.352 N 
ATOM     47  H20 C1B d         -20.623   2.676  10.621  0.00  0.00     0.160 HD
ATOM     48  H21 C1B d         -19.733   1.307  11.198  0.00  0.00     0.160 HD
ATOM     49  H19 C1B d         -18.452   0.061   9.664  0.00  0.00     0.164 HD
ENDBRANCH  42  43
ENDBRANCH  38  42
ENDBRANCH   5  34
TORSDOF 12
