REMARK  12 active torsions:
REMARK  status: ('A' for Active; 'I' for Inactive)
REMARK    1  A    between atoms: CBB_3  and  OAG_4 
REMARK    2  A    between atoms: CBE_7  and  CBG_8 
REMARK    3  A    between atoms: CBG_8  and  CAY_9 
REMARK    4  A    between atoms: CBG_8  and  NAW_12 
REMARK       I    between atoms: NAW_12  and  CAZ_13 
REMARK       I    between atoms: CAZ_13  and  N_15 
REMARK    5  A    between atoms: N_15  and  CA_16 
REMARK    6  A    between atoms: CA_16  and  C_17 
REMARK    7  A    between atoms: CA_16  and  CB_20 
REMARK    8  A    between atoms: CB_20  and  CAR_21 
REMARK    9  A    between atoms: CAR_21  and  CAQ_22 
REMARK   10  A    between atoms: CAQ_22  and  CAS_23 
REMARK   11  A    between atoms: CAS_23  and  NAU_24 
REMARK       I    between atoms: NAU_24  and  CBA_25 
REMARK   12  A    between atoms: CBA_25  and  CBD_27 
ROOT
ATOM      1  CA  MOL d          19.999  44.826  44.577  0.00  0.00     0.187 C 
ENDROOT
BRANCH   1   2
ATOM      2  N   MOL d          18.795  45.365  43.931  0.00  0.00    -0.329 N 
ATOM      3  CAZ MOL d          18.156  44.751  42.932  0.00  0.00     0.317 C 
ATOM      4  NAW MOL d          17.010  45.294  42.544  0.00  0.00    -0.324 N 
ATOM      5  OAC MOL d          18.505  43.661  42.473  0.00  0.00    -0.247 OA
ATOM      6  H   MOL d          16.597  46.025  43.087  0.00  0.00     0.165 HD
ATOM      7  H   MOL d          18.434  46.239  44.257  0.00  0.00     0.165 HD
BRANCH   4   8
ATOM      8  CBG MOL d          16.343  44.825  41.317  0.00  0.00     0.220 C 
BRANCH   8   9
ATOM      9  CBE MOL d          15.337  45.869  40.892  0.00  0.00    -0.025 A 
ATOM     10  CAO MOL d          14.015  45.615  41.239  0.00  0.00     0.012 A 
ATOM     11  CAI MOL d          13.040  46.517  40.873  0.00  0.00     0.037 A 
ATOM     12  CBB MOL d          13.356  47.637  40.111  0.00  0.00     0.065 A 
ATOM     13  CAJ MOL d          14.665  47.908  39.722  0.00  0.00     0.037 A 
ATOM     14  CAP MOL d          15.655  46.987  40.118  0.00  0.00     0.012 A 
BRANCH  12  15
ATOM     15  OAG MOL d          12.354  48.487  39.756  0.00  0.00    -0.361 OA
ATOM     16  H   MOL d          11.709  48.017  39.240  0.00  0.00     0.217 HD
ENDBRANCH  12  15
ENDBRANCH   8   9
BRANCH   8  17
ATOM     17  CAY MOL d          17.422  44.702  40.209  0.00  0.00     0.201 C 
ATOM     18  OAF MOL d          17.216  43.862  39.270  0.00  0.00    -0.646 OA
ATOM     19  OAB MOL d          18.403  45.500  40.255  0.00  0.00    -0.646 OA
ENDBRANCH   8  17
ENDBRANCH   4   8
ENDBRANCH   1   2
BRANCH   1  20
ATOM     20  C   MOL d          20.193  45.561  45.914  0.00  0.00     0.196 C 
ATOM     21  OXT MOL d          19.672  46.726  46.066  0.00  0.00    -0.646 OA
ATOM     22  O   MOL d          20.828  44.884  46.746  0.00  0.00    -0.646 OA
ENDBRANCH   1  20
BRANCH   1  23
ATOM     23  CB  MOL d          21.270  45.002  43.708  0.00  0.00     0.036 C 
BRANCH  23  24
ATOM     24  CAR MOL d          21.626  46.426  43.449  0.00  0.00     0.004 C 
BRANCH  24  25
ATOM     25  CAQ MOL d          22.962  46.500  42.647  0.00  0.00     0.020 C 
BRANCH  25  26
ATOM     26  CAS MOL d          23.521  47.902  42.775  0.00  0.00     0.123 C 
BRANCH  26  27
ATOM     27  NAU MOL d          23.729  48.211  44.194  0.00  0.00    -0.357 N 
ATOM     28  CBA MOL d          23.277  49.336  44.758  0.00  0.00     0.251 C 
ATOM     29  OAD MOL d          22.601  50.141  44.110  0.00  0.00    -0.268 OA
ATOM     30  H   MOL d          24.228  47.555  44.761  0.00  0.00     0.162 HD
BRANCH  28  31
ATOM     31  CBD MOL d          23.447  49.548  46.303  0.00  0.00     0.032 A 
ATOM     32  CAM MOL d          23.558  50.831  46.860  0.00  0.00     0.018 A 
ATOM     33  CAK MOL d          23.678  51.034  48.265  0.00  0.00     0.019 A 
ATOM     34  CBC MOL d          23.631  50.006  49.225  0.00  0.00     0.006 A 
ATOM     35  IAH MOL d          23.768  50.327  51.380  0.00  0.00    -0.045 I 
ATOM     36  CAL MOL d          23.473  48.726  48.638  0.00  0.00     0.019 A 
ATOM     37  CAN MOL d          23.391  48.503  47.229  0.00  0.00     0.018 A 
ENDBRANCH  28  31
ENDBRANCH  26  27
ENDBRANCH  25  26
ENDBRANCH  24  25
ENDBRANCH  23  24
ENDBRANCH   1  23
TORSDOF 12
