1i00_ligand

Created by X-TOOL on Fri Sep 26 17:34:18 2014
 52 54  0  0  0  0  0  0  0  0999 V2000
   38.3940   58.0230   47.2850  N 0  0  0  1  0  2
   38.5690   56.8360   47.9710  C 0  0  0  1  0  3
   39.8520   56.0670   47.8810  C 0  0  0  4  0  4
   37.5000   56.3680   48.7640  N 0  0  0  2  0  3
   36.2640   57.0580   48.8890  C 0  0  0  1  0  3
   35.3670   56.6160   49.5870  O 0  0  0  1  0  1
   36.1340   58.2770   48.1650  C 0  0  0  1  0  3
   34.9740   59.0690   48.1950  C 0  0  0  2  0  3
   34.8190   60.2930   47.4820  C 0  0  0  1  0  3
   35.9210   60.7260   46.6910  C 0  0  0  2  0  3
   37.1340   59.9730   46.6110  C 0  0  0  2  0  3
   37.2130   58.7550   47.3580  C 0  0  0  1  0  3
   33.5140   61.1320   47.5520  C 0  0  0  3  0  4
   32.3680   60.7160   48.5220  N 0  0  0  1  0  3
   33.1580   61.3090   52.3440  C 0  0  0  1  0  3
   33.8710   61.4920   50.7740  S 0  0  0  1  0  2
   32.4890   60.8590   49.9640  C 0  0  0  1  0  3
   31.5560   60.5310   50.9080  C 0  0  0  2  0  3
   31.9190   60.7790   52.2390  C 0  0  0  2  0  3
   34.0060   61.7590   53.5680  C 0  0  0  1  0  3
   35.1570   62.2250   53.3430  O 0  0  0  1  0  1
   33.4510   61.6230   54.8440  N 0  0  0  2  0  3
   34.2460   62.0290   56.0340  C 0  0  0  2  0  4
   34.3380   63.5200   56.2880  C 0  0  0  3  0  4
   33.2210   64.5000   56.0330  C 0  0  0  3  0  4
   33.0590   65.5730   57.0820  C 0  5  0  1  0  3
   33.5380   66.6960   56.7950  O 0  0  0  1  0  1
   32.4620   65.2440   58.1350  O 0  0  0  1  0  1
   33.7060   61.1800   57.1640  C 0  5  0  1  0  3
   34.5400   60.4310   57.7170  O 0  0  0  1  0  1
   32.4780   61.3010   57.4240  O 0  0  0  1  0  1
   31.1480   60.2040   47.8920  C 0  0  0  4  0  4
   40.5512   56.5968   47.2174  H 0  0  0  1  0  1
   39.6508   55.0642   47.4761  H 0  0  0  1  0  1
   40.2958   55.9755   48.8833  H 0  0  0  1  0  1
   37.6178   55.5090   49.2623  H 0  0  0  1  0  1
   34.1424   58.7265   48.8002  H 0  0  0  1  0  1
   35.8381   61.6522   46.1340  H 0  0  0  1  0  1
   37.9657   60.3134   46.0049  H 0  0  0  1  0  1
   33.0855   61.1368   46.5389  H 0  0  0  1  0  1
   33.8091   62.1545   47.8302  H 0  0  0  1  0  1
   30.5903   60.1034   50.6422  H 0  0  0  1  0  1
   31.2756   60.5685   53.0920  H 0  0  0  1  0  1
   32.5275   61.2559   54.9558  H 0  0  0  1  0  1
   35.2831   61.7077   55.8573  H 0  0  0  1  0  1
   35.1846   63.8719   55.6802  H 0  0  0  1  0  1
   34.5845   63.6236   57.3550  H 0  0  0  1  0  1
   32.2788   63.9353   55.9748  H 0  0  0  1  0  1
   33.4134   64.9927   55.0685  H 0  0  0  1  0  1
   30.4149   59.9444   48.6699  H 0  0  0  1  0  1
   31.3887   59.3078   47.3013  H 0  0  0  1  0  1
   30.7246   60.9754   47.2320  H 0  0  0  1  0  1
  1  2  2  0  0  1
 12  1  1  0  0  1
  2  3  1  0  0  2
  4  2  1  0  0  1
  5  4  1  0  0  1
  5  6  2  0  0  2
  7  5  1  0  0  1
  8  7  4  0  0  1
  7 12  4  0  0  1
  9  8  4  0  0  1
  9 10  4  0  0  1
 13  9  1  0  0  2
 10 11  4  0  0  1
 11 12  4  0  0  1
 14 13  1  0  0  2
 17 14  1  0  0  2
 14 32  1  0  0  2
 16 15  1  0  0  1
 15 19  2  0  0  1
 15 20  1  0  0  2
 16 17  1  0  0  1
 17 18  2  0  0  1
 18 19  1  0  0  1
 20 21  2  0  0  2
 20 22  1  0  0  2
 22 23  1  0  0  2
 23 24  1  0  0  2
 23 29  1  0  0  2
 24 25  1  0  0  2
 25 26  1  0  0  2
 26 27  2  0  0  2
 26 28  2  0  0  2
 29 30  2  0  0  2
 29 31  2  0  0  2
  3 33  1  0  0  2
  3 34  1  0  0  2
  3 35  1  0  0  2
  4 36  1  0  0  2
  8 37  1  0  0  2
 10 38  1  0  0  2
 11 39  1  0  0  2
 13 40  1  0  0  2
 13 41  1  0  0  2
 18 42  1  0  0  2
 19 43  1  0  0  2
 22 44  1  0  0  2
 23 45  1  0  0  2
 24 46  1  0  0  2
 24 47  1  0  0  2
 25 48  1  0  0  2
 25 49  1  0  0  2
 32 50  1  0  0  2
 32 51  1  0  0  2
 32 52  1  0  0  2
M  END
> <MOLECULAR_FORMULA>
C21H20N4O6S

> <MOLECULAR_WEIGHT>
456.3

> <NUM_HB_ATOMS>
9  

> <NUM_ROTOR>
5  

> <XLOGP2>
1.03 

$$$$
