REMARK  6 active torsions:
REMARK  status: ('A' for Active; 'I' for Inactive)
REMARK    1  A    between atoms: N1_1  and  C1'_21 
REMARK    2  A    between atoms: O3'_18  and  P_9 
REMARK    3  A    between atoms: C5'_14  and  O5'_13 
REMARK    4  A    between atoms: C4'_15  and  C5'_14 
REMARK    5  A    between atoms: C3'_17  and  O3'_18 
REMARK    6  A    between atoms: C2'_19  and  O2'_20 
ROOT
ATOM      1  C4' U3P d         -19.013  43.595  27.075  0.00  0.00     0.180 C 
ATOM      2  O4' U3P d         -18.956  42.255  27.655  0.00  0.00    -0.353 OA
ATOM      3  C3' U3P d         -17.648  43.780  26.407  0.00  0.00     0.199 C 
ATOM      4  C2' U3P d         -16.695  42.920  27.249  0.00  0.00     0.199 C 
ATOM      5  C1' U3P d         -17.608  41.807  27.731  0.00  0.00     0.264 C 
ENDROOT
BRANCH   5   6
ATOM      6  N1  U3P d         -17.478  40.551  26.994  0.00  0.00    -0.280 N 
ATOM      7  C6  U3P d         -18.440  40.246  26.059  0.00  0.00     0.104 A 
ATOM      8  C5  U3P d         -18.428  39.083  25.380  0.00  0.00     0.092 A 
ATOM      9  C4  U3P d         -17.388  38.109  25.633  0.00  0.00     0.250 A 
ATOM     10  N3  U3P d         -16.488  38.479  26.618  0.00  0.00    -0.275 N 
ATOM     11  O4  U3P d         -17.260  37.022  25.057  0.00  0.00    -0.268 OA
ATOM     12  C2  U3P d         -16.466  39.667  27.305  0.00  0.00     0.331 A 
ATOM     13  H1  U3P d         -15.781  37.812  26.853  0.00  0.00     0.173 HD
ATOM     14  O2  U3P d         -15.616  39.894  28.138  0.00  0.00    -0.246 OA
ENDBRANCH   5   6
BRANCH   4  15
ATOM     15  O2' U3P d         -16.211  43.596  28.406  0.00  0.00    -0.388 OA
ATOM     16  H10 U3P d         -15.739  44.376  28.141  0.00  0.00     0.210 HD
ENDBRANCH   4  15
BRANCH   3  17
ATOM     17  O3' U3P d         -17.288  45.161  26.459  0.00  0.00    -0.272 OA
BRANCH  17  18
ATOM     18  P   U3P d         -15.883  45.662  25.882  0.00  0.00     0.422 P 
ATOM     19  O3P U3P d         -16.066  47.129  25.742  0.00  0.00    -0.617 OA
ATOM     20  O2P U3P d         -14.821  45.280  26.837  0.00  0.00    -0.617 OA
ATOM     21  O1P U3P d         -15.657  44.948  24.601  0.00  0.00    -0.617 OA
ENDBRANCH  17  18
ENDBRANCH   3  17
BRANCH   1  22
ATOM     22  C5' U3P d         -20.182  43.731  26.089  0.00  0.00     0.198 C 
BRANCH  22  23
ATOM     23  O5' U3P d         -21.453  43.444  26.672  0.00  0.00    -0.398 OA
ATOM     24  H4  U3P d         -22.132  43.545  26.015  0.00  0.00     0.209 HD
ENDBRANCH  22  23
ENDBRANCH   1  22
TORSDOF 6
