REMARK  5 active torsions:
REMARK  status: ('A' for Active; 'I' for Inactive)
REMARK    1  A    between atoms: C6_6  and  S1_7 
REMARK    2  A    between atoms: S1_7  and  N1_10 
REMARK    3  A    between atoms: N1_10  and  C7_11 
REMARK    4  A    between atoms: C8_15  and  S3_16 
REMARK    5  A    between atoms: S3_16  and  N4_19 
ROOT
ATOM      1  C7  D8W d          -4.593   3.658  13.933  0.00  0.00     0.204 A 
ATOM      2  S2  D8W d          -5.854   3.434  15.068  0.00  0.00    -0.015 SA
ATOM      3  N2  D8W d          -3.641   2.699  14.026  0.00  0.00    -0.122 NA
ATOM      4  N3  D8W d          -3.923   1.750  15.050  0.00  0.00    -0.126 NA
ATOM      5  C8  D8W d          -5.086   2.019  15.682  0.00  0.00     0.237 A 
ENDROOT
BRANCH   1   6
ATOM      6  N1  D8W d          -4.582   4.673  13.035  0.00  0.00    -0.257 N 
ATOM      7  H6  D8W d          -4.124   4.479  12.168  0.00  0.00     0.181 HD
BRANCH   6   8
ATOM      8  S1  D8W d          -5.167   6.053  13.169  0.00  0.00     0.264 S 
ATOM      9  O1  D8W d          -6.158   6.266  14.232  0.00  0.00    -0.200 OA
ATOM     10  O2  D8W d          -5.708   6.488  11.861  0.00  0.00    -0.200 OA
BRANCH   8  11
ATOM     11  C6  D8W d          -3.941   7.025  13.556  0.00  0.00     0.079 A 
ATOM     12  C1  D8W d          -3.742   7.307  14.898  0.00  0.00     0.025 A 
ATOM     13  C2  D8W d          -2.692   8.151  15.259  0.00  0.00     0.002 A 
ATOM     14  C3  D8W d          -1.884   8.690  14.266  0.00  0.00     0.000 A 
ATOM     15  C4  D8W d          -2.103   8.421  12.920  0.00  0.00     0.002 A 
ATOM     16  C5  D8W d          -3.146   7.568  12.560  0.00  0.00     0.025 A 
ENDBRANCH   8  11
ENDBRANCH   6   8
ENDBRANCH   1   6
BRANCH   5  17
ATOM     17  S3  D8W d          -5.855   0.983  16.727  0.00  0.00     0.282 S 
ATOM     18  O3  D8W d          -5.290   1.221  18.021  0.00  0.00    -0.199 OA
ATOM     19  O4  D8W d          -7.246   1.208  16.685  0.00  0.00    -0.199 OA
BRANCH  17  20
ATOM     20  N4  D8W d          -5.503  -0.517  16.288  0.00  0.00    -0.323 N 
ATOM     21  H7  D8W d          -5.877  -1.289  16.802  0.00  0.00     0.169 HD
ATOM     22  H8  D8W d          -4.909  -0.681  15.500  0.00  0.00     0.169 HD
ENDBRANCH  17  20
ENDBRANCH   5  17
TORSDOF 5
