REMARK  1 active torsions:
REMARK  status: ('A' for Active; 'I' for Inactive)
REMARK    1  A    between atoms: C9_7  and  C10_8 
ROOT
ATOM      1  C6  AKH d         -15.513  20.268 -10.757  0.00  0.00     0.014 A 
ATOM      2  C5  AKH d         -16.535  19.979 -11.669  0.00  0.00     0.001 A 
ATOM      3  C1  AKH d         -17.447  20.966 -12.354  0.00  0.00     0.039 A 
ATOM      4  C2  AKH d         -18.289  20.001 -13.175  0.00  0.00     0.143 A 
ATOM      5  C7  AKH d         -14.774  19.229 -10.240  0.00  0.00     0.002 A 
ATOM      6  C8  AKH d         -15.058  17.931 -10.655  0.00  0.00     0.021 A 
ATOM      7  C9  AKH d         -16.066  17.614 -11.569  0.00  0.00     0.075 A 
ATOM      8  C4  AKH d         -16.820  18.679 -12.061  0.00  0.00     0.102 A 
ATOM      9  O3  AKH d         -17.876  18.615 -12.973  0.00  0.00    -0.321 OA
ENDROOT
BRANCH   7  10
ATOM     10  C10 AKH d         -16.324  16.175 -11.928  0.00  0.00     0.212 C 
ATOM     11  O11 AKH d         -17.072  15.914 -12.933  0.00  0.00    -0.644 OA
ATOM     12  O12 AKH d         -15.802  15.298 -11.161  0.00  0.00    -0.644 OA
ENDBRANCH   7  10
TORSDOF 1
