REMARK  8 active torsions:
REMARK  status: ('A' for Active; 'I' for Inactive)
REMARK    1  A    between atoms: C22_2  and  O5_3 
REMARK    2  A    between atoms: C22_2  and  C1_5 
REMARK    3  A    between atoms: C1_5  and  O4_6 
REMARK    4  A    between atoms: C2_7  and  N1_10 
REMARK    5  A    between atoms: C3_11  and  C4_12 
REMARK    6  A    between atoms: N2_13  and  C24_14 
REMARK    7  A    between atoms: C5_22  and  C6_23 
REMARK    8  A    between atoms: C7_26  and  C8_29 
ROOT
ATOM      1  C1  KSA d          13.605  11.233 137.785  0.00  0.00     0.199 C 
ATOM      2  C2  KSA d          14.559  10.540 136.932  0.00  0.00     0.181 C 
ATOM      3  O1  KSA d          15.019   9.326 137.560  0.00  0.00    -0.332 OA
ATOM      4  C25 KSA d          14.180  10.026 135.532  0.00  0.00     0.075 C 
ATOM      5  C24 KSA d          14.780   9.361 138.942  0.00  0.00     0.235 C 
ATOM      6  C27 KSA d          13.925  10.642 139.158  0.00  0.00     0.108 C 
ENDROOT
BRANCH   1   7
ATOM      7  C22 KSA d          12.277  10.577 137.359  0.00  0.00     0.298 C 
ATOM      8  O3  KSA d          11.483  11.041 136.534  0.00  0.00    -0.262 OA
BRANCH   7   9
ATOM      9  O5  KSA d          11.918   9.278 137.898  0.00  0.00    -0.324 OA
ATOM     10  C26 KSA d          10.686   8.606 137.606  0.00  0.00     0.213 C 
ENDBRANCH   7   9
ENDBRANCH   1   7
BRANCH   1  11
ATOM     11  O4  KSA d          13.528  12.618 137.513  0.00  0.00    -0.375 OA
ATOM     12  H4  KSA d          14.341  13.036 137.771  0.00  0.00     0.211 HD
ENDBRANCH   1  11
BRANCH   2  13
ATOM     13  N1  KSA d          15.886  11.247 136.808  0.00  0.00    -0.307 N 
ATOM     14  C3  KSA d          16.923  10.996 137.619  0.00  0.00     0.077 A 
ATOM     15  C8  KSA d          18.000  11.723 137.161  0.00  0.00     0.015 A 
ATOM     16  C9  KSA d          17.581  12.400 136.031  0.00  0.00     0.004 A 
ATOM     17  C10 KSA d          16.245  12.106 135.835  0.00  0.00     0.049 A 
ATOM     18  C14 KSA d          18.320  13.300 135.186  0.00  0.00     0.014 A 
ATOM     19  C11 KSA d          15.587  12.733 134.723  0.00  0.00     0.030 A 
ATOM     20  C12 KSA d          16.293  13.583 133.893  0.00  0.00     0.002 A 
ATOM     21  C13 KSA d          17.649  13.861 134.101  0.00  0.00     0.001 A 
BRANCH  14  22
ATOM     22  C4  KSA d          17.128  10.187 138.836  0.00  0.00     0.077 A 
ATOM     23  N2  KSA d          16.146   9.455 139.470  0.00  0.00    -0.316 N 
ATOM     24  C17 KSA d          16.776   8.844 140.556  0.00  0.00     0.048 A 
ATOM     25  C18 KSA d          16.243   7.978 141.506  0.00  0.00     0.030 A 
ATOM     26  C16 KSA d          18.104   9.238 140.592  0.00  0.00     0.004 A 
ATOM     27  C19 KSA d          17.085   7.524 142.525  0.00  0.00     0.002 A 
ATOM     28  C20 KSA d          18.431   7.927 142.565  0.00  0.00     0.001 A 
ATOM     29  C21 KSA d          18.959   8.784 141.596  0.00  0.00     0.014 A 
ATOM     30  C5  KSA d          18.331  10.062 139.495  0.00  0.00     0.022 A 
BRANCH  30  31
ATOM     31  C6  KSA d          19.467  10.835 138.953  0.00  0.00     0.054 A 
ATOM     32  C15 KSA d          20.868  10.960 139.390  0.00  0.00     0.253 A 
ATOM     33  O2  KSA d          21.382  10.318 140.307  0.00  0.00    -0.268 OA
ATOM     34  N3  KSA d          21.443  11.797 138.546  0.00  0.00    -0.353 N 
ATOM     35  C23 KSA d          20.593  12.330 137.484  0.00  0.00     0.163 A 
ATOM     36  H17 KSA d          22.406  12.052 138.629  0.00  0.00     0.163 HD
ATOM     37  C7  KSA d          19.308  11.635 137.836  0.00  0.00    -0.010 A 
ENDBRANCH  30  31
ENDBRANCH  14  22
ENDBRANCH   2  13
TORSDOF 8
