REMARK  8 active torsions:
REMARK  status: ('A' for Active; 'I' for Inactive)
REMARK    1  A    between atoms: C24_9  and  C23_10 
REMARK    2  A    between atoms: C23_10  and  O22_11 
REMARK    3  A    between atoms: O22_11  and  C20_12 
REMARK    4  A    between atoms: C12_21  and  S11_22 
REMARK    5  A    between atoms: S11_22  and  N_25 
REMARK    6  A    between atoms: N_25  and  C1_26 
REMARK    7  A    between atoms: C4_29  and  C8_30 
REMARK    8  A    between atoms: C2_34  and  C7_35 
ROOT
ATOM      1  N30 MOL d          21.662  34.452  46.659  0.00  0.00    -0.191 NA
ATOM      2  C30 MOL d          20.570  34.434  47.045  0.00  0.00     0.099 C 
ATOM      3  C27 MOL d          19.377  34.390  47.545  0.00  0.00     0.047 A 
ATOM      4  C26 MOL d          18.294  34.857  46.804  0.00  0.00     0.065 A 
ATOM      5  C25 MOL d          17.019  34.821  47.346  0.00  0.00     0.126 A 
ATOM      6  F25 MOL d          15.953  35.262  46.642  0.00  0.00    -0.205 F 
ATOM      7  C28 MOL d          19.184  33.897  48.830  0.00  0.00     0.023 A 
ATOM      8  C29 MOL d          17.906  33.868  49.377  0.00  0.00     0.014 A 
ATOM      9  C24 MOL d          16.838  34.338  48.627  0.00  0.00     0.005 A 
ENDROOT
BRANCH   9  10
ATOM     10  C23 MOL d          15.491  34.348  49.236  0.00  0.00     0.217 C 
BRANCH  10  11
ATOM     11  O22 MOL d          15.296  33.741  50.543  0.00  0.00    -0.347 OA
BRANCH  11  12
ATOM     12  C20 MOL d          14.559  32.601  50.246  0.00  0.00     0.070 A 
ATOM     13  C21 MOL d          13.996  32.454  48.967  0.00  0.00     0.049 A 
ATOM     14  C15 MOL d          13.154  31.364  48.668  0.00  0.00    -0.023 A 
ATOM     15  C14 MOL d          12.600  31.217  47.391  0.00  0.00     0.014 A 
ATOM     16  C16 MOL d          12.892  30.391  49.664  0.00  0.00    -0.024 A 
ATOM     17  C13 MOL d          11.745  30.140  47.111  0.00  0.00     0.026 A 
ATOM     18  C12 MOL d          11.491  29.156  48.077  0.00  0.00     0.080 A 
ATOM     19  C17 MOL d          12.087  29.285  49.345  0.00  0.00     0.037 A 
ATOM     20  C18 MOL d          13.482  30.535  50.910  0.00  0.00     0.015 A 
ATOM     21  C19 MOL d          14.312  31.630  51.217  0.00  0.00     0.037 A 
BRANCH  18  22
ATOM     22  S11 MOL d          10.433  27.973  47.660  0.00  0.00     0.259 S 
ATOM     23  O32 MOL d          10.527  27.551  46.255  0.00  0.00    -0.201 OA
ATOM     24  O33 MOL d          10.478  26.876  48.656  0.00  0.00    -0.201 OA
BRANCH  22  25
ATOM     25  N   MOL d           9.053  28.686  47.760  0.00  0.00    -0.310 N 
ATOM     26  H12 MOL d           8.595  28.956  46.913  0.00  0.00     0.172 HD
BRANCH  25  27
ATOM     27  C1  MOL d           8.388  28.983  49.040  0.00  0.00     0.107 C 
ATOM     28  C3  MOL d           8.676  30.344  49.683  0.00  0.00     0.028 C 
ATOM     29  C6  MOL d           7.824  31.370  48.923  0.00  0.00     0.017 C 
ATOM     30  C4  MOL d           6.361  30.951  49.142  0.00  0.00     0.088 C 
ATOM     31  C5  MOL d           6.034  29.555  48.577  0.00  0.00     0.033 C 
ATOM     32  C2  MOL d           6.994  28.543  49.202  0.00  0.00     0.111 C 
BRANCH  30  33
ATOM     33  C8  MOL d           5.435  31.990  48.596  0.00  0.00     0.177 C 
ATOM     34  O4  MOL d           5.282  33.019  49.307  0.00  0.00    -0.648 OA
ATOM     35  O3  MOL d           4.872  31.769  47.496  0.00  0.00    -0.648 OA
ENDBRANCH  30  33
BRANCH  32  36
ATOM     36  C7  MOL d           6.795  27.252  48.822  0.00  0.00     0.179 C 
ATOM     37  O1  MOL d           7.087  26.314  49.611  0.00  0.00    -0.648 OA
ATOM     38  O2  MOL d           6.351  27.052  47.688  0.00  0.00    -0.648 OA
ENDBRANCH  32  36
ENDBRANCH  25  27
ENDBRANCH  22  25
ENDBRANCH  18  22
ENDBRANCH  11  12
ENDBRANCH  10  11
ENDBRANCH   9  10
TORSDOF 8
