REMARK  4 active torsions:
REMARK  status: ('A' for Active; 'I' for Inactive)
REMARK    1  A    between atoms: N1_1  and  C1'_9 
REMARK    2  A    between atoms: C3'_11  and  O3'_13 
REMARK    3  A    between atoms: C4'_12  and  C5'_15 
REMARK    4  A    between atoms: C5'_15  and  O5'_16 
ROOT
ATOM      1  C1' DUR d         -17.806  35.336  -8.985  0.00  0.00     0.235 C 
ATOM      2  C2' DUR d         -18.948  36.309  -8.759  0.00  0.00     0.088 C 
ATOM      3  C3' DUR d         -19.118  36.983 -10.104  0.00  0.00     0.153 C 
ATOM      4  C4' DUR d         -17.806  36.754 -10.822  0.00  0.00     0.176 C 
ATOM      5  O4' DUR d         -16.992  35.975  -9.957  0.00  0.00    -0.356 OA
ENDROOT
BRANCH   1   6
ATOM      6  N1  DUR d         -17.176  35.059  -7.703  0.00  0.00    -0.282 N 
ATOM      7  C2  DUR d         -17.838  34.248  -6.750  0.00  0.00     0.331 A 
ATOM      8  N3  DUR d         -17.303  34.045  -5.552  0.00  0.00    -0.275 N 
ATOM      9  O2  DUR d         -18.937  33.727  -6.992  0.00  0.00    -0.246 OA
ATOM     10  C4  DUR d         -16.111  34.564  -5.250  0.00  0.00     0.250 A 
ATOM     11  H1  DUR d         -17.795  33.501  -4.873  0.00  0.00     0.173 HD
ATOM     12  C5  DUR d         -15.446  35.358  -6.161  0.00  0.00     0.092 A 
ATOM     13  O4  DUR d         -15.595  34.358  -4.134  0.00  0.00    -0.268 OA
ATOM     14  C6  DUR d         -16.000  35.601  -7.402  0.00  0.00     0.104 A 
ENDBRANCH   1   6
BRANCH   3  15
ATOM     15  O3' DUR d         -20.166  36.394 -10.881  0.00  0.00    -0.393 OA
ATOM     16  H9  DUR d         -20.998  36.529 -10.443  0.00  0.00     0.210 HD
ENDBRANCH   3  15
BRANCH   4  17
ATOM     17  C5' DUR d         -17.115  38.063 -11.207  0.00  0.00     0.198 C 
BRANCH  17  18
ATOM     18  O5' DUR d         -18.032  39.005 -11.806  0.00  0.00    -0.398 OA
ATOM     19  H12 DUR d         -17.565  39.801 -12.030  0.00  0.00     0.209 HD
ENDBRANCH  17  18
ENDBRANCH   4  17
TORSDOF 4
