REMARK  2 active torsions:
REMARK  status: ('A' for Active; 'I' for Inactive)
REMARK    1  A    between atoms: CAP_17  and  CAK_18 
REMARK    2  A    between atoms: CAK_18  and  CAM_19 
ROOT
ATOM      1  OAD MOL d         162.991  49.038   5.565  0.00  0.00    -0.286 OA
ATOM      2  CAQ MOL d         163.951  49.693   5.137  0.00  0.00     0.198 A 
ATOM      3  CAS MOL d         165.012  50.082   5.948  0.00  0.00     0.049 A 
ATOM      4  CAJ MOL d         165.024  49.798   7.306  0.00  0.00     0.019 A 
ATOM      5  CAH MOL d         166.130  50.171   8.071  0.00  0.00     0.008 A 
ATOM      6  CAN MOL d         167.237  50.842   7.499  0.00  0.00    -0.053 A 
ATOM      7  CAA MOL d         168.386  51.246   8.285  0.00  0.00     0.049 C 
ATOM      8  CAO MOL d         167.200  51.163   6.135  0.00  0.00    -0.021 A 
ATOM      9  CAB MOL d         168.248  51.869   5.487  0.00  0.00     0.052 C 
ATOM     10  CAT MOL d         166.056  50.821   5.426  0.00  0.00     0.096 A 
ATOM     11  OAL MOL d         166.098  51.093   4.116  0.00  0.00    -0.308 OA
ATOM     12  CAU MOL d         165.125  50.661   3.280  0.00  0.00     0.097 A 
ATOM     13  CAR MOL d         164.030  49.989   3.787  0.00  0.00     0.049 A 
ATOM     14  CAI MOL d         163.050  49.542   2.893  0.00  0.00     0.018 A 
ATOM     15  CAF MOL d         163.148  49.831   1.533  0.00  0.00     0.002 A 
ATOM     16  CAG MOL d         164.257  50.533   1.042  0.00  0.00     0.010 A 
ATOM     17  CAP MOL d         165.250  50.993   1.925  0.00  0.00    -0.013 A 
ENDROOT
BRANCH  17  18
ATOM     18  CAK MOL d         166.386  51.724   1.462  0.00  0.00     0.154 C 
BRANCH  18  19
ATOM     19  CAM MOL d         167.789  51.131   1.752  0.00  0.00     0.177 C 
ATOM     20  OAE MOL d         167.893  49.935   2.148  0.00  0.00    -0.648 OA
ATOM     21  OAC MOL d         168.731  51.931   1.552  0.00  0.00    -0.648 OA
ENDBRANCH  18  19
ENDBRANCH  17  18
TORSDOF 2
