1l6m_ligand

Created by X-TOOL on Fri Sep 26 17:34:24 2014
 16 16  0  0  0  0  0  0  0  0999 V2000
   31.1090   76.4080   66.2180  O 0  0  0  1  0  1
   32.0030   75.6200   65.5910  C 0  5  0  1  0  3
   33.0180   75.2480   66.1960  O 0  0  0  1  0  1
   31.6450   75.1920   64.1430  C 0  0  0  1  0  3
   32.4820   74.2040   63.4330  C 0  0  0  2  0  3
   32.1960   73.7700   62.1370  C 0  0  0  2  0  3
   30.5140   75.6890   63.4150  C 0  0  0  1  0  3
   29.6370   76.5890   63.8880  O 0  0  0  2  0  2
   30.2330   75.2120   62.0490  C 0  0  0  1  0  3
   31.0810   74.2540   61.4240  C 0  0  0  2  0  3
   29.1390   75.7420   61.4610  O 0  0  0  2  0  2
   33.3522   73.8000   63.9375  H 0  0  0  1  0  1
   32.8481   73.0424   61.6675  H 0  0  0  1  0  1
   28.9763   76.7629   63.2279  H 0  0  0  1  0  1
   30.8730   73.9039   60.4194  H 0  0  0  1  0  1
   28.7265   76.3559   62.0572  H 0  0  0  1  0  1
  1  2  2  0  0  2
  2  3  2  0  0  2
  2  4  1  0  0  2
  4  5  4  0  0  1
  4  7  4  0  0  1
  5  6  4  0  0  1
  6 10  4  0  0  1
  7  8  1  0  0  2
  7  9  4  0  0  1
  9 10  4  0  0  1
  9 11  1  0  0  2
  5 12  1  0  0  2
  6 13  1  0  0  2
  8 14  1  0  0  2
 10 15  1  0  0  2
 11 16  1  0  0  2
M  END
> <MOLECULAR_FORMULA>
C7H5O4

> <MOLECULAR_WEIGHT>
153.1

> <NUM_HB_ATOMS>
4  

> <NUM_ROTOR>
0  

> <XLOGP2>
1.65 

$$$$
