REMARK  4 active torsions:
REMARK  status: ('A' for Active; 'I' for Inactive)
REMARK    1  A    between atoms: O4_1  and  C4_2 
REMARK    2  A    between atoms: C3_3  and  O3_4 
REMARK    3  A    between atoms: C5_8  and  C6_9 
REMARK    4  A    between atoms: C6_9  and  O6_10 
ROOT
ATOM      1  C4  IFL d          27.866  48.560  -0.665  0.00  0.00     0.163 C 
ATOM      2  C3  IFL d          28.082  47.349   0.277  0.00  0.00     0.239 C 
ATOM      3  C2  IFL d          27.850  45.950  -0.365  0.00  0.00     0.249 C 
ATOM      4  N   IFL d          27.461  45.906  -1.655  0.00  0.00    -0.358 N 
ATOM      5  C7  IFL d          27.143  47.050  -2.523  0.00  0.00     0.132 C 
ATOM      6  C5  IFL d          26.746  48.278  -1.672  0.00  0.00     0.059 C 
ATOM      7  O2  IFL d          28.035  44.903   0.269  0.00  0.00    -0.271 OA
ATOM      8  H5  IFL d          27.380  44.998  -2.066  0.00  0.00     0.162 HD
ENDROOT
BRANCH   6   9
ATOM      9  C6  IFL d          26.393  49.535  -2.510  0.00  0.00     0.173 C 
BRANCH   9  10
ATOM     10  O6  IFL d          27.455  49.862  -3.399  0.00  0.00    -0.400 OA
ATOM     11  H11 IFL d          27.220  50.633  -3.902  0.00  0.00     0.209 HD
ENDBRANCH   9  10
ENDBRANCH   6   9
BRANCH   1  12
ATOM     12  O4  IFL d          27.499  49.676   0.160  0.00  0.00    -0.392 OA
ATOM     13  H1  IFL d          27.358  50.440  -0.387  0.00  0.00     0.210 HD
ENDBRANCH   1  12
BRANCH   2  14
ATOM     14  O3  IFL d          29.437  47.389   0.707  0.00  0.00    -0.384 OA
ATOM     15  H4  IFL d          29.605  46.657   1.289  0.00  0.00     0.210 HD
ENDBRANCH   2  14
TORSDOF 4
