REMARK  8 active torsions:
REMARK  status: ('A' for Active; 'I' for Inactive)
REMARK    1  A    between atoms: O2_1  and  C2_2 
REMARK    2  A    between atoms: C3_3  and  O3_4 
REMARK    3  A    between atoms: C4_5  and  O4_6 
REMARK    4  A    between atoms: C5_7  and  C6_8 
REMARK    5  A    between atoms: C6_8  and  O6_9 
REMARK    6  A    between atoms: C1_11  and  N1_12 
REMARK    7  A    between atoms: C8_16  and  C9_17 
REMARK    8  A    between atoms: C9_17  and  O9_18 
ROOT
ATOM      1  C2  RUG d          33.529  23.025  26.203  0.00  0.00     0.200 C 
ATOM      2  C3  RUG d          32.405  22.427  25.334  0.00  0.00     0.182 C 
ATOM      3  C4  RUG d          32.173  20.963  25.718  0.00  0.00     0.180 C 
ATOM      4  C5  RUG d          31.977  20.811  27.238  0.00  0.00     0.179 C 
ATOM      5  O5  RUG d          33.126  21.371  27.909  0.00  0.00    -0.352 OA
ATOM      6  C1  RUG d          33.203  22.810  27.697  0.00  0.00     0.278 C 
ENDROOT
BRANCH   6   7
ATOM      7  N1  RUG d          34.247  23.315  28.608  0.00  0.00    -0.229 N 
ATOM      8  C7  RUG d          35.570  23.216  28.475  0.00  0.00     0.148 A 
ATOM      9  C8  RUG d          36.062  23.800  29.555  0.00  0.00     0.099 A 
ATOM     10  N3  RUG d          35.010  24.202  30.269  0.00  0.00    -0.133 NA
ATOM     11  N2  RUG d          33.972  23.885  29.671  0.00  0.00    -0.064 NA
BRANCH   9  12
ATOM     12  C9  RUG d          37.538  23.979  29.905  0.00  0.00     0.226 C 
BRANCH  12  13
ATOM     13  O9  RUG d          37.689  24.103  31.321  0.00  0.00    -0.395 OA
ATOM     14  H15 RUG d          38.609  24.214  31.532  0.00  0.00     0.209 HD
ENDBRANCH  12  13
ENDBRANCH   9  12
ENDBRANCH   6   7
BRANCH   1  15
ATOM     15  O2  RUG d          33.725  24.413  25.916  0.00  0.00    -0.388 OA
ATOM     16  H1  RUG d          33.962  24.516  25.002  0.00  0.00     0.210 HD
ENDBRANCH   1  15
BRANCH   2  17
ATOM     17  O3  RUG d          32.748  22.490  23.951  0.00  0.00    -0.390 OA
ATOM     18  H4  RUG d          32.044  22.117  23.434  0.00  0.00     0.210 HD
ENDBRANCH   2  17
BRANCH   4  19
ATOM     19  C6  RUG d          31.823  19.354  27.670  0.00  0.00     0.198 C 
BRANCH  19  20
ATOM     20  O6  RUG d          32.884  18.575  27.112  0.00  0.00    -0.398 OA
ATOM     21  H10 RUG d          33.718  18.910  27.421  0.00  0.00     0.209 HD
ENDBRANCH  19  20
ENDBRANCH   4  19
BRANCH   3  22
ATOM     22  O4  RUG d          31.018  20.499  25.041  0.00  0.00    -0.390 OA
ATOM     23  H6  RUG d          31.151  20.572  24.103  0.00  0.00     0.210 HD
ENDBRANCH   3  22
TORSDOF 8
