REMARK  14 active torsions:
REMARK  status: ('A' for Active; 'I' for Inactive)
REMARK    1  A    between atoms: C1_1  and  C2_4 
REMARK    2  A    between atoms: C14_20  and  C1_1 
REMARK       I    between atoms: C2_4  and  N1_2 
REMARK    3  A    between atoms: N1_2  and  C3_7 
REMARK       I    between atoms: C9_15  and  N2_5 
REMARK    4  A    between atoms: N2_5  and  C10_16 
REMARK    5  A    between atoms: C3_7  and  C4_9 
REMARK    6  A    between atoms: C3_7  and  C9_15 
REMARK       I    between atoms: C13_19  and  N3_8 
REMARK    7  A    between atoms: C4_9  and  C5_10 
REMARK    8  A    between atoms: C5_10  and  C8_14 
REMARK    9  A    between atoms: C10_16  and  C11_17 
REMARK   10  A    between atoms: C10_16  and  C13_19 
REMARK   11  A    between atoms: C11_17  and  C12_18 
REMARK   12  A    between atoms: C12_18  and  C32_33 
REMARK   13  A    between atoms: C18_24  and  C14_20 
REMARK   14  A    between atoms: C17_23  and  C19_25 
ROOT
ATOM      1  C3  EEF d           8.721  28.473   5.146  0.00  0.00     0.177 C 
ENDROOT
BRANCH   1   2
ATOM      2  N1  EEF d           8.055  27.419   4.365  0.00  0.00    -0.348 N 
ATOM      3  C2  EEF d           8.729  26.139   4.180  0.00  0.00     0.218 C 
ATOM      4  O2  EEF d           9.818  25.897   4.639  0.00  0.00    -0.274 OA
ATOM      5  H3  EEF d           7.152  27.578   3.966  0.00  0.00     0.163 HD
BRANCH   3   6
ATOM      6  C1  EEF d           7.942  25.043   3.433  0.00  0.00     0.107 C 
BRANCH   6   7
ATOM      7  C14 EEF d           7.782  23.761   4.261  0.00  0.00     0.047 C 
BRANCH   7   8
ATOM      8  C18 EEF d           6.419  23.530   4.952  0.00  0.00    -0.058 A 
ATOM      9  C15 EEF d           6.337  22.560   5.930  0.00  0.00     0.008 A 
ATOM     10  C16 EEF d           5.075  22.253   6.575  0.00  0.00     0.013 A 
ATOM     11  C17 EEF d           3.894  23.005   6.167  0.00  0.00    -0.026 A 
ATOM     12  C30 EEF d           3.964  24.016   5.159  0.00  0.00     0.013 A 
ATOM     13  C31 EEF d           5.197  24.312   4.529  0.00  0.00     0.008 A 
BRANCH  11  14
ATOM     14  C19 EEF d           2.564  22.682   6.846  0.00  0.00    -0.026 A 
ATOM     15  C20 EEF d           2.569  22.244   8.272  0.00  0.00     0.012 A 
ATOM     16  C21 EEF d           1.378  21.931   8.908  0.00  0.00     0.001 A 
ATOM     17  C27 EEF d           0.170  22.030   8.186  0.00  0.00     0.000 A 
ATOM     18  C22 EEF d           0.182  22.462   6.824  0.00  0.00     0.001 A 
ATOM     19  C23 EEF d           1.421  22.786   6.160  0.00  0.00     0.012 A 
ENDBRANCH  11  14
ENDBRANCH   7   8
ENDBRANCH   6   7
ENDBRANCH   3   6
ENDBRANCH   1   2
BRANCH   1  20
ATOM     20  C4  EEF d           8.628  29.844   4.442  0.00  0.00     0.045 C 
BRANCH  20  21
ATOM     21  C5  EEF d           9.440  30.059   3.168  0.00  0.00     0.116 C 
BRANCH  21  22
ATOM     22  C8  EEF d           9.168  31.368   2.432  0.00  0.00     0.172 C 
ATOM     23  O6  EEF d          10.157  32.348   2.446  0.00  0.00    -0.648 OA
ATOM     24  O7  EEF d           8.366  31.406   1.566  0.00  0.00    -0.648 OA
ENDBRANCH  21  22
ENDBRANCH  20  21
ENDBRANCH   1  20
BRANCH   1  25
ATOM     25  C9  EEF d           8.029  28.575   6.502  0.00  0.00     0.241 C 
ATOM     26  O1  EEF d           6.845  28.412   6.576  0.00  0.00    -0.271 OA
ATOM     27  N2  EEF d           8.760  29.175   7.597  0.00  0.00    -0.346 N 
ATOM     28  H4  EEF d           9.730  29.402   7.517  0.00  0.00     0.163 HD
BRANCH  27  29
ATOM     29  C10 EEF d           8.018  29.430   8.814  0.00  0.00     0.176 C 
BRANCH  29  30
ATOM     30  C11 EEF d           8.872  29.771  10.040  0.00  0.00     0.045 C 
BRANCH  30  31
ATOM     31  C12 EEF d           8.742  28.835  11.263  0.00  0.00     0.116 C 
BRANCH  31  32
ATOM     32  C32 EEF d           7.519  28.934  12.193  0.00  0.00     0.172 C 
ATOM     33  O33 EEF d           7.407  28.067  13.302  0.00  0.00    -0.648 OA
ATOM     34  O34 EEF d           6.799  29.872  12.125  0.00  0.00    -0.648 OA
ENDBRANCH  31  32
ENDBRANCH  30  31
ENDBRANCH  29  30
BRANCH  29  35
ATOM     35  C13 EEF d           6.946  30.478   8.579  0.00  0.00     0.238 C 
ATOM     36  N3  EEF d           5.697  30.308   9.292  0.00  0.00    -0.368 N 
ATOM     37  H6  EEF d           5.558  29.506   9.872  0.00  0.00     0.159 HD
ATOM     38  H7  EEF d           4.974  30.993   9.204  0.00  0.00     0.159 HD
ATOM     39  O5  EEF d           7.158  31.413   7.879  0.00  0.00    -0.271 OA
ENDBRANCH  29  35
ENDBRANCH  27  29
ENDBRANCH   1  25
TORSDOF 14
