REMARK  5 active torsions:
REMARK  status: ('A' for Active; 'I' for Inactive)
REMARK       I    between atoms: C12_2  and  N1_4 
REMARK    1  A    between atoms: N1_4  and  C11_5 
REMARK    2  A    between atoms: C5_12  and  O3_19 
REMARK    3  A    between atoms: C3_13  and  O2_17 
REMARK    4  A    between atoms: C1_14  and  O1_15 
REMARK    5  A    between atoms: C17_25  and  O6_28 
ROOT
ATOM      1  C11 LOC d          17.915  67.600  44.442  0.00  0.00     0.119 C 
ATOM      2  C14 LOC d          17.723  66.149  44.778  0.00  0.00    -0.020 C 
ATOM      3  C15 LOC d          18.040  65.760  46.024  0.00  0.00     0.068 C 
ATOM      4  C10 LOC d          19.267  67.793  43.755  0.00  0.00     0.034 C 
ATOM      5  C9  LOC d          19.520  66.794  42.624  0.00  0.00     0.042 C 
ATOM      6  C8  LOC d          18.275  66.660  41.777  0.00  0.00    -0.041 A 
ATOM      7  C7  LOC d          18.210  67.228  40.502  0.00  0.00     0.047 A 
ATOM      8  C5  LOC d          17.073  67.123  39.697  0.00  0.00     0.104 A 
ATOM      9  C3  LOC d          15.872  66.397  40.181  0.00  0.00     0.136 A 
ATOM     10  C1  LOC d          15.893  65.774  41.522  0.00  0.00     0.116 A 
ATOM     11  C22 LOC d          17.122  65.915  42.337  0.00  0.00     0.017 A 
ATOM     12  C21 LOC d          17.225  65.302  43.701  0.00  0.00    -0.014 C 
ATOM     13  C20 LOC d          16.870  64.009  43.775  0.00  0.00     0.016 C 
ATOM     14  C19 LOC d          16.837  63.084  44.900  0.00  0.00     0.042 C 
ATOM     15  C17 LOC d          17.308  63.245  46.140  0.00  0.00     0.118 C 
ATOM     16  C16 LOC d          17.976  64.432  46.664  0.00  0.00     0.205 C 
ATOM     17  O5  LOC d          18.519  64.315  47.750  0.00  0.00    -0.285 OA
ENDROOT
BRANCH   1  18
ATOM     18  N1  LOC d          17.834  68.444  45.623  0.00  0.00    -0.353 N 
ATOM     19  C12 LOC d          16.676  68.736  46.213  0.00  0.00     0.214 C 
ATOM     20  O4  LOC d          15.609  68.336  45.780  0.00  0.00    -0.274 OA
ATOM     21  C13 LOC d          16.766  69.587  47.447  0.00  0.00     0.117 C 
ATOM     22  H   LOC d          18.678  68.819  46.006  0.00  0.00     0.163 HD
ENDBRANCH   1  18
BRANCH  15  23
ATOM     23  O6  LOC d          17.130  62.131  47.056  0.00  0.00    -0.352 OA
ATOM     24  C18 LOC d          16.602  60.897  46.581  0.00  0.00     0.210 C 
ENDBRANCH  15  23
BRANCH  10  25
ATOM     25  O1  LOC d          14.799  65.100  41.989  0.00  0.00    -0.352 OA
ATOM     26  C2  LOC d          13.841  65.801  42.780  0.00  0.00     0.210 C 
ENDBRANCH  10  25
BRANCH   9  27
ATOM     27  O2  LOC d          14.761  66.285  39.393  0.00  0.00    -0.351 OA
ATOM     28  C4  LOC d          14.611  65.100  38.616  0.00  0.00     0.210 C 
ENDBRANCH   9  27
BRANCH   8  29
ATOM     29  O3  LOC d          17.041  67.692  38.448  0.00  0.00    -0.353 OA
ATOM     30  C6  LOC d          18.242  68.133  37.819  0.00  0.00     0.210 C 
ENDBRANCH   8  29
TORSDOF 5
