REMARK  10 active torsions:
REMARK  status: ('A' for Active; 'I' for Inactive)
REMARK    1  A    between atoms: P_2  and  C19_4 
REMARK    2  A    between atoms: P_2  and  C17_14 
REMARK    3  A    between atoms: C19_4  and  C18_5 
REMARK    4  A    between atoms: C19_4  and  N_13 
REMARK    5  A    between atoms: C18_5  and  C15_6 
REMARK    6  A    between atoms: C15_6  and  C16_7 
REMARK    7  A    between atoms: C17_14  and  C8_15 
REMARK    8  A    between atoms: C8_15  and  C9_16 
REMARK    9  A    between atoms: C8_15  and  C7_19 
REMARK   10  A    between atoms: C7_19  and  C1_20 
ROOT
ATOM      1  O3  BEY d          12.926  10.571  10.566  0.00  0.00    -0.666 OA
ATOM      2  P   BEY d          13.617  11.692  11.297  0.00  0.00     0.138 P 
ATOM      3  O4  BEY d          13.875  12.862  10.384  0.00  0.00    -0.666 OA
ENDROOT
BRANCH   2   4
ATOM      4  C19 BEY d          12.331  11.972  12.589  0.00  0.00     0.274 C 
BRANCH   4   5
ATOM      5  C18 BEY d          12.802  11.665  14.046  0.00  0.00     0.048 C 
BRANCH   5   6
ATOM      6  C15 BEY d          12.856  12.863  14.998  0.00  0.00     0.041 C 
BRANCH   6   7
ATOM      7  C16 BEY d          12.845  12.472  16.473  0.00  0.00    -0.058 A 
ATOM      8  C10 BEY d          13.902  12.863  17.300  0.00  0.00     0.007 A 
ATOM      9  C11 BEY d          13.910  12.518  18.657  0.00  0.00     0.001 A 
ATOM     10  C12 BEY d          12.849  11.786  19.196  0.00  0.00     0.000 A 
ATOM     11  C14 BEY d          11.788  11.393  18.384  0.00  0.00     0.001 A 
ATOM     12  C13 BEY d          11.788  11.746  17.028  0.00  0.00     0.007 A 
ENDBRANCH   6   7
ENDBRANCH   5   6
ENDBRANCH   4   5
BRANCH   4  13
ATOM     13  N   BEY d          11.597  13.203  12.394  0.00  0.00    -0.066 N 
ATOM     14  H11 BEY d          10.911  13.304  13.125  0.00  0.00     0.275 HD
ATOM     15  H12 BEY d          11.133  13.180  11.499  0.00  0.00     0.275 HD
ATOM     16  H13 BEY d          12.235  13.983  12.422  0.00  0.00     0.275 HD
ENDBRANCH   4  13
ENDBRANCH   2   4
BRANCH   2  17
ATOM     17  C17 BEY d          15.169  11.132  12.059  0.00  0.00     0.121 C 
BRANCH  17  18
ATOM     18  C8  BEY d          15.931  10.083  11.243  0.00  0.00     0.101 C 
BRANCH  18  19
ATOM     19  C9  BEY d          16.480   9.058  12.194  0.00  0.00     0.177 C 
ATOM     20  O2  BEY d          15.823   8.017  12.401  0.00  0.00    -0.648 OA
ATOM     21  O1  BEY d          17.579   9.275  12.746  0.00  0.00    -0.648 OA
ENDBRANCH  18  19
BRANCH  18  22
ATOM     22  C7  BEY d          17.104  10.714  10.485  0.00  0.00     0.054 C 
BRANCH  22  23
ATOM     23  C1  BEY d          17.634   9.771   9.419  0.00  0.00    -0.057 A 
ATOM     24  C2  BEY d          17.048   9.749   8.156  0.00  0.00     0.007 A 
ATOM     25  C3  BEY d          17.526   8.885   7.167  0.00  0.00     0.001 A 
ATOM     26  C4  BEY d          18.594   8.032   7.436  0.00  0.00     0.000 A 
ATOM     27  C6  BEY d          19.180   8.055   8.699  0.00  0.00     0.001 A 
ATOM     28  C5  BEY d          18.711   8.924   9.686  0.00  0.00     0.007 A 
ENDBRANCH  22  23
ENDBRANCH  18  22
ENDBRANCH  17  18
ENDBRANCH   2  17
TORSDOF 10
