REMARK  1 active torsions:
REMARK  status: ('A' for Active; 'I' for Inactive)
REMARK    1  A    between atoms: C7_7  and  N1_12 
ROOT
ATOM      1  O   MOL d          28.993  29.258  -5.509  0.00  0.00    -0.267 OA
ATOM      2  C8  MOL d          28.821  28.808  -4.382  0.00  0.00     0.257 A 
ATOM      3  C3  MOL d          28.611  27.376  -4.090  0.00  0.00     0.039 A 
ATOM      4  C2  MOL d          28.687  26.428  -5.113  0.00  0.00     0.017 A 
ATOM      5  C1  MOL d          28.516  25.080  -4.834  0.00  0.00     0.001 A 
ATOM      6  N   MOL d          28.782  29.642  -3.289  0.00  0.00    -0.311 N 
ATOM      7  C7  MOL d          28.558  29.268  -1.999  0.00  0.00     0.102 A 
ATOM      8  C6  MOL d          28.342  27.934  -1.702  0.00  0.00     0.117 A 
ATOM      9  C4  MOL d          28.364  26.950  -2.761  0.00  0.00    -0.035 A 
ATOM     10  C5  MOL d          28.177  25.582  -2.514  0.00  0.00     0.008 A 
ATOM     11  C   MOL d          28.255  24.661  -3.546  0.00  0.00     0.001 A 
ATOM     12  H   MOL d          28.933  30.616  -3.458  0.00  0.00     0.170 HD
ENDROOT
BRANCH   7  13
ATOM     13  N1  MOL d          28.550  30.242  -1.073  0.00  0.00    -0.287 NA
ATOM     14  H   MOL d          28.388  30.015  -0.104  0.00  0.00     0.188 HD
ENDBRANCH   7  13
TORSDOF 1
