REMARK  2 active torsions:
REMARK  status: ('A' for Active; 'I' for Inactive)
REMARK    1  A    between atoms: C3_3  and  O3_31 
REMARK    2  A    between atoms: C21_21  and  C33_29 
ROOT
ATOM      1  C1  CBW d          15.762   3.017  23.527  0.00  0.00     0.013 C 
ATOM      2  C2  CBW d          16.730   2.654  24.652  0.00  0.00     0.033 C 
ATOM      3  C3  CBW d          16.725   1.164  24.915  0.00  0.00     0.126 C 
ATOM      4  C4  CBW d          15.350   0.626  25.353  0.00  0.00    -0.017 C 
ATOM      5  C5  CBW d          14.289   1.755  25.129  0.00  0.00     0.005 C 
ATOM      6  C6  CBW d          12.860   1.374  25.518  0.00  0.00     0.007 C 
ATOM      7  C7  CBW d          12.069   2.647  25.819  0.00  0.00     0.011 C 
ATOM      8  C8  CBW d          11.986   3.601  24.617  0.00  0.00    -0.021 C 
ATOM      9  C9  CBW d          13.406   3.808  23.990  0.00  0.00     0.077 C 
ATOM     10  C10 CBW d          14.319   2.537  23.772  0.00  0.00    -0.028 C 
ATOM     11  C11 CBW d          13.310   4.761  22.802  0.00  0.00     0.155 C 
ATOM     12  C12 CBW d          12.286   5.809  22.874  0.00  0.00     0.054 C 
ATOM     13  C13 CBW d          11.399   5.950  23.866  0.00  0.00    -0.062 C 
ATOM     14  C14 CBW d          11.457   5.019  25.082  0.00  0.00    -0.012 C 
ATOM     15  C15 CBW d          10.082   4.850  25.760  0.00  0.00     0.015 C 
ATOM     16  C16 CBW d           9.236   6.108  25.774  0.00  0.00     0.011 C 
ATOM     17  C17 CBW d           8.989   6.667  24.369  0.00  0.00    -0.036 C 
ATOM     18  C18 CBW d          10.351   7.058  23.740  0.00  0.00     0.025 C 
ATOM     19  C19 CBW d          13.894   1.689  22.559  0.00  0.00     0.016 C 
ATOM     20  C20 CBW d          10.882   8.420  24.226  0.00  0.00     0.030 C 
ATOM     21  C21 CBW d           9.910   9.600  24.011  0.00  0.00     0.045 C 
ATOM     22  C22 CBW d           8.523   9.074  23.615  0.00  0.00     0.021 C 
ATOM     23  C23 CBW d           8.082   7.902  24.471  0.00  0.00     0.011 C 
ATOM     24  C24 CBW d          15.067  -0.689  24.629  0.00  0.00     0.018 C 
ATOM     25  C25 CBW d          15.405   0.315  26.848  0.00  0.00     0.018 C 
ATOM     26  C26 CBW d          11.006   2.982  23.602  0.00  0.00     0.017 C 
ATOM     27  C27 CBW d          12.389   5.679  26.095  0.00  0.00     0.021 C 
ATOM     28  C28 CBW d           8.288   5.609  23.507  0.00  0.00     0.016 C 
ATOM     29  C34 CBW d           9.811  10.423  25.302  0.00  0.00     0.027 C 
ATOM     30  O11 CBW d          14.026   4.676  21.816  0.00  0.00    -0.293 OA
ENDROOT
BRANCH  21  31
ATOM     31  C33 CBW d          10.298  10.524  22.863  0.00  0.00     0.181 C 
ATOM     32  O34 CBW d          11.400  10.212  22.220  0.00  0.00    -0.647 OA
ATOM     33  O35 CBW d           9.582  11.465  22.563  0.00  0.00    -0.647 OA
ENDBRANCH  21  31
BRANCH   3  34
ATOM     34  O3  CBW d          17.210   0.473  23.758  0.00  0.00    -0.395 OA
ATOM     35  H45 CBW d          18.057   0.826  23.512  0.00  0.00     0.210 HD
ENDBRANCH   3  34
TORSDOF 2
