REMARK  6 active torsions:
REMARK  status: ('A' for Active; 'I' for Inactive)
REMARK    1  A    between atoms: C3_4  and  O3_5 
REMARK    2  A    between atoms: C4_6  and  C4A_7 
REMARK    3  A    between atoms: C4A_7  and  N4A_8 
REMARK    4  A    between atoms: C5_9  and  C5A_11 
REMARK    5  A    between atoms: C5A_11  and  O4P_12 
REMARK    6  A    between atoms: O4P_12  and  P_13 
ROOT
ATOM      1  N1  PMP d          17.124  52.918  13.780  0.00  0.00    -0.262 NA
ATOM      2  C2  PMP d          16.001  53.189  14.547  0.00  0.00     0.064 A 
ATOM      3  C2A PMP d          14.927  54.131  13.973  0.00  0.00     0.073 C 
ATOM      4  C3  PMP d          15.956  52.558  15.833  0.00  0.00     0.098 A 
ATOM      5  C4  PMP d          16.993  51.719  16.285  0.00  0.00     0.012 A 
ATOM      6  C5  PMP d          18.110  51.505  15.398  0.00  0.00    -0.006 A 
ATOM      7  C6  PMP d          18.177  52.093  14.157  0.00  0.00     0.127 A 
ENDROOT
BRANCH   6   8
ATOM      8  C5A PMP d          19.313  50.577  15.799  0.00  0.00     0.223 C 
BRANCH   8   9
ATOM      9  O4P PMP d          19.022  49.206  15.634  0.00  0.00    -0.278 OA
BRANCH   9  10
ATOM     10  P   PMP d          19.946  48.154  16.400  0.00  0.00     0.422 P 
ATOM     11  O1P PMP d          19.397  46.846  16.015  0.00  0.00    -0.617 OA
ATOM     12  O2P PMP d          21.384  48.249  15.930  0.00  0.00    -0.617 OA
ATOM     13  O3P PMP d          19.824  48.407  17.806  0.00  0.00    -0.617 OA
ENDBRANCH   9  10
ENDBRANCH   8   9
ENDBRANCH   6   8
BRANCH   5  14
ATOM     14  C4A PMP d          16.892  51.113  17.613  0.00  0.00     0.271 C 
BRANCH  14  15
ATOM     15  N4A PMP d          15.901  50.249  17.733  0.00  0.00    -0.075 N 
ATOM     16  H7  PMP d          15.893  49.874  18.669  0.00  0.00     0.274 HD
ATOM     17  H8  PMP d          16.027  49.499  17.072  0.00  0.00     0.274 HD
ATOM     18  H9  PMP d          15.026  50.714  17.550  0.00  0.00     0.274 HD
ENDBRANCH  14  15
ENDBRANCH   5  14
BRANCH   4  19
ATOM     19  O3  PMP d          14.871  52.817  16.589  0.00  0.00    -0.358 OA
ATOM     20  H4  PMP d          14.943  52.352  17.414  0.00  0.00     0.217 HD
ENDBRANCH   4  19
TORSDOF 6
