REMARK  5 active torsions:
REMARK  status: ('A' for Active; 'I' for Inactive)
REMARK    1  A    between atoms: C13_1  and  C17_2 
REMARK       I    between atoms: C17_2  and  N19_14 
REMARK    2  A    between atoms: C06_6  and  C47_27 
REMARK    3  A    between atoms: C27_17  and  C36_21 
REMARK    4  A    between atoms: C29_18  and  C31_19 
REMARK    5  A    between atoms: C31_19  and  O34_20 
ROOT
ATOM      1  C47 MOL d         -11.087 -16.132  29.172  0.00  0.00     0.038 A 
ATOM      2  C48 MOL d         -10.395 -17.209  29.672  0.00  0.00     0.104 A 
ATOM      3  N50 MOL d         -10.762 -18.352  29.013  0.00  0.00    -0.364 N 
ATOM      4  C52 MOL d         -11.609 -18.026  27.980  0.00  0.00     0.044 A 
ATOM      5  C53 MOL d         -12.189 -18.829  27.001  0.00  0.00     0.053 A 
ATOM      6  C55 MOL d         -13.077 -18.243  26.100  0.00  0.00     0.046 A 
ATOM      7  C56 MOL d         -13.381 -16.882  26.181  0.00  0.00     0.024 A 
ATOM      8  C58 MOL d         -12.805 -16.091  27.175  0.00  0.00     0.016 A 
ATOM      9  C60 MOL d         -11.905 -16.647  28.086  0.00  0.00     0.006 A 
ATOM     10  C61 MOL d         -13.626 -19.035  25.032  0.00  0.00     0.099 C 
ATOM     11  N62 MOL d         -14.053 -19.636  24.170  0.00  0.00    -0.191 NA
ATOM     12  H22 MOL d         -10.453 -19.305  29.253  0.00  0.00     0.165 HD
ENDROOT
BRANCH   1  13
ATOM     13  C06 MOL d         -10.984 -14.740  29.624  0.00  0.00     0.143 C 
ATOM     14  N05 MOL d         -10.791 -13.666  28.795  0.00  0.00    -0.333 N 
ATOM     15  C01 MOL d         -10.837 -13.593  27.329  0.00  0.00     0.158 C 
ATOM     16  C16 MOL d         -10.588 -12.568  29.625  0.00  0.00     0.065 A 
ATOM     17  C08 MOL d         -10.552 -13.078  30.917  0.00  0.00     0.086 A 
ATOM     18  C14 MOL d         -10.448 -11.212  29.364  0.00  0.00     0.049 A 
ATOM     19  N07 MOL d         -10.766 -14.457  30.896  0.00  0.00    -0.228 NA
ATOM     20  C09 MOL d         -10.357 -12.210  31.993  0.00  0.00     0.035 A 
ATOM     21  C11 MOL d         -10.172 -10.858  31.742  0.00  0.00     0.019 A 
ATOM     22  C13 MOL d         -10.246 -10.346  30.442  0.00  0.00     0.034 A 
BRANCH  22  23
ATOM     23  C17 MOL d         -10.061  -8.889  30.144  0.00  0.00     0.254 C 
ATOM     24  O18 MOL d          -8.953  -8.462  29.881  0.00  0.00    -0.267 OA
ATOM     25  N19 MOL d         -11.153  -8.080  30.160  0.00  0.00    -0.336 N 
ATOM     26  C20 MOL d         -12.498  -8.612  30.426  0.00  0.00     0.153 C 
ATOM     27  C29 MOL d         -11.150  -6.649  29.781  0.00  0.00     0.144 C 
ATOM     28  C23 MOL d         -13.187  -7.761  31.466  0.00  0.00     0.188 C 
ATOM     29  O26 MOL d         -13.251  -6.386  31.035  0.00  0.00    -0.377 OA
ATOM     30  C27 MOL d         -11.956  -5.819  30.790  0.00  0.00     0.179 C 
BRANCH  30  31
ATOM     31  C36 MOL d         -11.266  -5.503  32.113  0.00  0.00    -0.027 A 
ATOM     32  C37 MOL d         -11.912  -4.714  33.058  0.00  0.00     0.010 A 
ATOM     33  C39 MOL d         -11.284  -4.371  34.249  0.00  0.00     0.001 A 
ATOM     34  C41 MOL d         -10.007  -4.822  34.518  0.00  0.00     0.000 A 
ATOM     35  C43 MOL d          -9.340  -5.590  33.581  0.00  0.00     0.001 A 
ATOM     36  C45 MOL d          -9.969  -5.941  32.389  0.00  0.00     0.010 A 
ENDBRANCH  30  31
BRANCH  27  37
ATOM     37  C31 MOL d         -11.635  -6.444  28.345  0.00  0.00     0.192 C 
BRANCH  37  38
ATOM     38  O34 MOL d         -11.033  -7.373  27.452  0.00  0.00    -0.399 OA
ATOM     39  H15 MOL d         -11.355  -7.218  26.572  0.00  0.00     0.209 HD
ENDBRANCH  37  38
ENDBRANCH  27  37
ENDBRANCH  22  23
ENDBRANCH   1  13
TORSDOF 5
