REMARK  14 active torsions:
REMARK  status: ('A' for Active; 'I' for Inactive)
REMARK    1  A    between atoms: C13_13  and  C8_9 
REMARK    2  A    between atoms: NV_15  and  C12_12 
REMARK    3  A    between atoms: C13_13  and  C14_14 
REMARK    4  A    between atoms: C14_14  and  NL_22 
REMARK    5  A    between atoms: C14_14  and  P_23 
REMARK    6  A    between atoms: CAV_16  and  NV_15 
REMARK    7  A    between atoms: CV_17  and  CAV_16 
REMARK    8  A    between atoms: CAV_16  and  CBV_19 
REMARK       I    between atoms: NL_22  and  CV_17 
REMARK    9  A    between atoms: P_23  and  OP_36 
REMARK   10  A    between atoms: CA_26  and  CB_27 
REMARK   11  A    between atoms: CA_26  and  C_34 
REMARK   12  A    between atoms: OP_36  and  CA_26 
REMARK   13  A    between atoms: CB_27  and  CG_28 
REMARK   14  A    between atoms: C_34  and  OS_37 
ROOT
ATOM      1  C14 MOL d          23.318   9.948  21.143  0.00  0.00     0.209 C 
ENDROOT
BRANCH   1   2
ATOM      2  C13 MOL d          24.131   9.452  19.938  0.00  0.00     0.077 C 
BRANCH   2   3
ATOM      3  C8  MOL d          24.078   7.968  19.684  0.00  0.00    -0.055 A 
ATOM      4  C7  MOL d          23.975   7.495  18.391  0.00  0.00     0.019 A 
ATOM      5  C6  MOL d          24.017   6.106  18.091  0.00  0.00    -0.025 A 
ATOM      6  C1  MOL d          23.911   5.637  16.720  0.00  0.00     0.012 A 
ATOM      7  C5  MOL d          24.078   5.175  19.169  0.00  0.00    -0.026 A 
ATOM      8  C2  MOL d          23.916   4.266  16.503  0.00  0.00     0.001 A 
ATOM      9  C3  MOL d          23.952   3.342  17.573  0.00  0.00     0.001 A 
ATOM     10  C4  MOL d          24.019   3.749  18.889  0.00  0.00     0.012 A 
ATOM     11  C10 MOL d          24.143   5.696  20.493  0.00  0.00     0.013 A 
ATOM     12  C9  MOL d          24.139   7.052  20.760  0.00  0.00     0.008 A 
ENDBRANCH   2   3
ENDBRANCH   1   2
BRANCH   1  13
ATOM     13  NL  MOL d          21.933   9.489  21.087  0.00  0.00    -0.343 N 
ATOM     14  CV  MOL d          21.412   8.717  22.039  0.00  0.00     0.241 C 
ATOM     15  OV  MOL d          21.994   8.371  23.064  0.00  0.00    -0.271 OA
ATOM     16  H21 MOL d          21.361   9.761  20.314  0.00  0.00     0.163 HD
BRANCH  14  17
ATOM     17  CAV MOL d          19.999   8.117  22.024  0.00  0.00     0.179 C 
BRANCH  17  18
ATOM     18  NV  MOL d          20.012   7.090  20.968  0.00  0.00    -0.355 N 
ATOM     19  H12 MOL d          20.670   6.338  21.015  0.00  0.00     0.162 HD
BRANCH  18  20
ATOM     20  C12 MOL d          19.154   7.155  19.950  0.00  0.00     0.349 C 
ATOM     21  OI  MOL d          18.201   7.827  19.505  0.00  0.00    -0.284 OA
ENDBRANCH  18  20
ENDBRANCH  17  18
BRANCH  17  22
ATOM     22  CBV MOL d          19.291   7.915  23.382  0.00  0.00     0.009 C 
ATOM     23  CV1 MOL d          18.763   9.245  23.898  0.00  0.00     0.012 C 
ATOM     24  CV2 MOL d          17.867   7.580  22.892  0.00  0.00     0.012 C 
ENDBRANCH  17  22
ENDBRANCH  14  17
ENDBRANCH   1  13
BRANCH   1  25
ATOM     25  P   MOL d          23.394  11.767  21.236  0.00  0.00     0.274 P 
ATOM     26  O   MOL d          24.778  12.198  21.185  0.00  0.00    -0.645 OA
ATOM     27  OH  MOL d          22.524  12.370  20.239  0.00  0.00    -0.645 OA
BRANCH  25  28
ATOM     28  OP  MOL d          22.956  12.028  22.699  0.00  0.00    -0.295 OA
BRANCH  28  29
ATOM     29  CA  MOL d          23.556  13.006  23.494  0.00  0.00     0.236 C 
BRANCH  29  30
ATOM     30  CB  MOL d          22.491  13.930  24.069  0.00  0.00     0.081 C 
BRANCH  30  31
ATOM     31  CG  MOL d          21.505  13.230  24.947  0.00  0.00    -0.055 A 
ATOM     32  CD1 MOL d          20.495  12.460  24.398  0.00  0.00     0.007 A 
ATOM     33  CE1 MOL d          19.575  11.820  25.212  0.00  0.00     0.001 A 
ATOM     34  CZ  MOL d          19.681  11.929  26.595  0.00  0.00     0.000 A 
ATOM     35  CE2 MOL d          20.704  12.668  27.150  0.00  0.00     0.001 A 
ATOM     36  CD2 MOL d          21.613  13.305  26.325  0.00  0.00     0.007 A 
ENDBRANCH  30  31
ENDBRANCH  29  30
BRANCH  29  37
ATOM     37  C   MOL d          24.328  12.320  24.610  0.00  0.00     0.288 C 
ATOM     38  OE  MOL d          24.580  11.149  24.634  0.00  0.00    -0.262 OA
BRANCH  37  39
ATOM     39  OS  MOL d          24.723  13.157  25.566  0.00  0.00    -0.324 OA
ATOM     40  CS  MOL d          25.828  12.691  26.418  0.00  0.00     0.213 C 
ENDBRANCH  37  39
ENDBRANCH  29  37
ENDBRANCH  28  29
ENDBRANCH  25  28
ENDBRANCH   1  25
TORSDOF 14
