REMARK  16 active torsions:
REMARK  status: ('A' for Active; 'I' for Inactive)
REMARK    1  A    between atoms: C14_1  and  C15_3 
REMARK    2  A    between atoms: C14_1  and  C13_6 
REMARK    3  A    between atoms: C15_3  and  O8_4 
REMARK    4  A    between atoms: C13_6  and  C12_7 
REMARK    5  A    between atoms: C12_7  and  C11_8 
REMARK    6  A    between atoms: C11_8  and  C10_9 
REMARK    7  A    between atoms: C10_9  and  C9_10 
REMARK    8  A    between atoms: C9_10  and  C8_11 
REMARK    9  A    between atoms: C8_11  and  C7_12 
REMARK   10  A    between atoms: C7_12  and  O1_13 
REMARK   11  A    between atoms: O1_13  and  C1_14 
REMARK   12  A    between atoms: C2_15  and  O2_16 
REMARK   13  A    between atoms: C3_17  and  O3_18 
REMARK   14  A    between atoms: C4_19  and  O4_20 
REMARK   15  A    between atoms: C5_21  and  C6_23 
REMARK   16  A    between atoms: C6_23  and  O6_24 
ROOT
ATOM      1  C1  XNS d          13.698 -62.598  22.593  0.00  0.00     0.291 C 
ATOM      2  C2  XNS d          12.379 -62.317  21.905  0.00  0.00     0.204 C 
ATOM      3  C3  XNS d          12.579 -62.381  20.395  0.00  0.00     0.183 C 
ATOM      4  C4  XNS d          13.606 -61.315  20.055  0.00  0.00     0.180 C 
ATOM      5  C5  XNS d          14.892 -61.575  20.766  0.00  0.00     0.179 C 
ATOM      6  O5  XNS d          14.670 -61.564  22.190  0.00  0.00    -0.348 OA
ENDROOT
BRANCH   1   7
ATOM      7  O1  XNS d          14.062 -63.980  22.266  0.00  0.00    -0.359 OA
BRANCH   7   8
ATOM      8  C7  XNS d          15.281 -64.575  22.727  0.00  0.00     0.171 C 
BRANCH   8   9
ATOM      9  C8  XNS d          15.320 -66.050  22.222  0.00  0.00     0.026 C 
BRANCH   9  10
ATOM     10  C9  XNS d          16.602 -66.754  22.696  0.00  0.00     0.002 C 
BRANCH  10  11
ATOM     11  C10 XNS d          17.906 -66.157  22.136  0.00  0.00     0.000 C 
BRANCH  11  12
ATOM     12  C11 XNS d          19.081 -66.875  22.837  0.00  0.00     0.000 C 
BRANCH  12  13
ATOM     13  C12 XNS d          20.452 -66.386  22.353  0.00  0.00     0.000 C 
BRANCH  13  14
ATOM     14  C13 XNS d          20.756 -66.728  20.882  0.00  0.00     0.010 C 
BRANCH  14  15
ATOM     15  C14 XNS d          20.777 -68.268  20.767  0.00  0.00     0.111 C 
BRANCH  15  16
ATOM     16  C15 XNS d          21.156 -68.792  19.358  0.00  0.00     0.258 C 
ATOM     17  O7  XNS d          20.903 -68.154  18.335  0.00  0.00    -0.265 OA
BRANCH  16  18
ATOM     18  O8  XNS d          21.815 -69.993  19.354  0.00  0.00    -0.326 OA
ATOM     19  C16 XNS d          22.147 -70.398  18.020  0.00  0.00     0.213 C 
ENDBRANCH  16  18
ENDBRANCH  15  16
ENDBRANCH  14  15
ENDBRANCH  13  14
ENDBRANCH  12  13
ENDBRANCH  11  12
ENDBRANCH  10  11
ENDBRANCH   9  10
ENDBRANCH   8   9
ENDBRANCH   7   8
ENDBRANCH   1   7
BRANCH   2  20
ATOM     20  O2  XNS d          11.926 -60.999  22.163  0.00  0.00    -0.388 OA
ATOM     21  H22 XNS d          11.099 -60.857  21.718  0.00  0.00     0.210 HD
ENDBRANCH   2  20
BRANCH   3  22
ATOM     22  O3  XNS d          11.351 -62.051  19.720  0.00  0.00    -0.390 OA
ATOM     23  H24 XNS d          11.084 -61.172  19.963  0.00  0.00     0.210 HD
ENDBRANCH   3  22
BRANCH   5  24
ATOM     24  C6  XNS d          15.929 -60.527  20.369  0.00  0.00     0.198 C 
BRANCH  24  25
ATOM     25  O6  XNS d          15.486 -59.232  20.758  0.00  0.00    -0.398 OA
ATOM     26  H30 XNS d          15.364 -59.210  21.700  0.00  0.00     0.209 HD
ENDBRANCH  24  25
ENDBRANCH   5  24
BRANCH   4  27
ATOM     27  O4  XNS d          13.867 -61.412  18.649  0.00  0.00    -0.390 OA
ATOM     28  H26 XNS d          13.061 -61.266  18.168  0.00  0.00     0.210 HD
ENDBRANCH   4  27
TORSDOF 16
