REMARK  6 active torsions:
REMARK  status: ('A' for Active; 'I' for Inactive)
REMARK    1  A    between atoms: C9_5  and  C10_20 
REMARK    2  A    between atoms: C6_7  and  N1_8 
REMARK    3  A    between atoms: N1_8  and  C1_9 
REMARK    4  A    between atoms: C1_9  and  C3_11 
REMARK       I    between atoms: C3_11  and  N_12 
REMARK    5  A    between atoms: N_12  and  C4_13 
REMARK    6  A    between atoms: C4_13  and  C5_14 
ROOT
ATOM      1  F3  MOL d          12.263  17.424   4.486  0.00  0.00    -0.201 F 
ATOM      2  C7  MOL d          12.215  16.173   3.975  0.00  0.00     0.179 A 
ATOM      3  C8  MOL d          11.247  15.804   3.016  0.00  0.00     0.165 A 
ATOM      4  N2  MOL d          11.195  14.521   2.501  0.00  0.00    -0.237 NA
ATOM      5  C9  MOL d          12.140  13.585   2.972  0.00  0.00     0.164 A 
ATOM      6  N3  MOL d          13.111  13.873   3.884  0.00  0.00    -0.208 NA
ATOM      7  C6  MOL d          13.167  15.159   4.400  0.00  0.00     0.167 A 
ENDROOT
BRANCH   7   8
ATOM      8  N1  MOL d          14.142  15.482   5.358  0.00  0.00    -0.355 N 
ATOM      9  H2  MOL d          14.098  16.436   5.745  0.00  0.00     0.162 HD
BRANCH   8  10
ATOM     10  C1  MOL d          15.245  14.602   5.888  0.00  0.00     0.105 C 
ATOM     11  C2  MOL d          16.197  15.493   6.693  0.00  0.00     0.048 C 
ATOM     12  C   MOL d          14.654  13.529   6.808  0.00  0.00     0.048 C 
BRANCH  10  13
ATOM     13  C3  MOL d          16.033  14.003   4.688  0.00  0.00     0.245 C 
ATOM     14  N   MOL d          16.236  14.861   3.629  0.00  0.00    -0.350 N 
ATOM     15  H6  MOL d          15.888  15.796   3.703  0.00  0.00     0.162 HD
ATOM     16  O   MOL d          16.416  12.842   4.640  0.00  0.00    -0.271 OA
BRANCH  14  17
ATOM     17  C4  MOL d          16.927  14.480   2.415  0.00  0.00     0.240 C 
BRANCH  17  18
ATOM     18  C5  MOL d          16.000  14.538   1.240  0.00  0.00     0.403 C 
ATOM     19  F2  MOL d          15.540  15.752   1.017  0.00  0.00    -0.169 F 
ATOM     20  F1  MOL d          14.916  13.775   1.407  0.00  0.00    -0.169 F 
ATOM     21  F   MOL d          16.599  14.145   0.131  0.00  0.00    -0.169 F 
ENDBRANCH  17  18
ENDBRANCH  14  17
ENDBRANCH  10  13
ENDBRANCH   8  10
ENDBRANCH   7   8
BRANCH   5  22
ATOM     22  C10 MOL d          12.053  12.209   2.517  0.00  0.00     0.041 A 
ATOM     23  C13 MOL d          12.922  11.091   2.821  0.00  0.00     0.027 A 
ATOM     24  C14 MOL d          14.152  10.870   3.545  0.00  0.00     0.041 A 
ATOM     25  C12 MOL d          12.370   9.951   2.142  0.00  0.00     0.138 A 
ATOM     26  C15 MOL d          14.681   9.590   3.529  0.00  0.00     0.052 A 
ATOM     27 CL   MOL d          16.107   9.248   4.388  0.00  0.00    -0.083 Cl
ATOM     28  C16 MOL d          14.055   8.497   2.838  0.00  0.00     0.142 A 
ATOM     29  N5  MOL d          12.899   8.667   2.150  0.00  0.00    -0.241 NA
ATOM     30  N4  MOL d          11.230  10.370   1.421  0.00  0.00    -0.349 N 
ATOM     31  C11 MOL d          11.045  11.736   1.664  0.00  0.00     0.106 A 
ATOM     32  H14 MOL d          10.639   9.775   0.822  0.00  0.00     0.167 HD
ENDBRANCH   5  22
TORSDOF 6
