REMARK  2 active torsions:
REMARK  status: ('A' for Active; 'I' for Inactive)
REMARK    1  A    between atoms: CAN_6  and  NAJ_9 
REMARK    2  A    between atoms: NAJ_9  and  CAK_10 
ROOT
ATOM      1  NAJ CLU d          35.198 -11.217  43.265  0.00  0.00    -0.189 N 
ATOM      2  H4  CLU d          34.953 -11.258  44.265  0.00  0.00     0.184 HD
ENDROOT
BRANCH   1   3
ATOM      3  CAN CLU d          34.666 -10.193  42.600  0.00  0.00     0.092 A 
ATOM      4  CAM CLU d          33.370 -10.268  42.117  0.00  0.00     0.063 A 
ATOM      5  CAE CLU d          32.812  -9.189  41.438  0.00  0.00     0.026 A 
ATOM      6 CL2  CLU d          32.405 -11.761  42.360  0.00  0.00    -0.082 Cl
ATOM      7  CAC CLU d          33.555  -8.030  41.245  0.00  0.00     0.003 A 
ATOM      8  CAD CLU d          34.851  -7.954  41.737  0.00  0.00     0.026 A 
ATOM      9  CAL CLU d          35.404  -9.035  42.414  0.00  0.00     0.063 A 
ATOM     10 CL1  CLU d          37.079  -8.924  43.046  0.00  0.00    -0.082 Cl
ENDBRANCH   1   3
BRANCH   1  11
ATOM     11  CAK CLU d          36.032 -12.240  42.824  0.00  0.00     0.674 C 
ATOM     12  NAI CLU d          36.435 -12.330  41.558  0.00  0.00    -0.225 N 
ATOM     13  CAG CLU d          37.242 -13.525  41.325  0.00  0.00     0.158 C 
ATOM     14  H5  CLU d          36.205 -11.639  40.830  0.00  0.00     0.177 HD
ATOM     15  CAF CLU d          37.712 -13.853  42.754  0.00  0.00     0.158 C 
ATOM     16  NAH CLU d          36.595 -13.306  43.513  0.00  0.00    -0.225 N 
ATOM     17  H10 CLU d          36.271 -13.658  44.425  0.00  0.00     0.177 HD
ENDBRANCH   1  11
TORSDOF 2
