REMARK  5 active torsions:
REMARK  status: ('A' for Active; 'I' for Inactive)
REMARK    1  A    between atoms: C4_7  and  S_1 
REMARK    2  A    between atoms: S_1  and  N3S_18 
REMARK       I    between atoms: N'_2  and  C7_10 
REMARK    3  A    between atoms: C1'_14  and  N'_2 
REMARK    4  A    between atoms: C7_10  and  C1_4 
REMARK    5  A    between atoms: C1'_14  and  C2'_16 
ROOT
ATOM      1  C1  RYJ d          16.822   3.913  14.759  0.00  0.00     0.032 A 
ATOM      2  C2  RYJ d          17.192   1.828  15.860  0.00  0.00     0.026 A 
ATOM      3  C3  RYJ d          17.696   2.948  15.122  0.00  0.00     0.018 A 
ATOM      4  C4  RYJ d          15.799   1.626  16.095  0.00  0.00     0.079 A 
ATOM      5  C5  RYJ d          15.482   3.772  15.036  0.00  0.00     0.018 A 
ATOM      6  C6  RYJ d          14.953   2.669  15.692  0.00  0.00     0.026 A 
ENDROOT
BRANCH   1   7
ATOM      7  C7  RYJ d          17.332   5.105  14.001  0.00  0.00     0.251 C 
ATOM      8  N'  RYJ d          18.614   5.224  13.711  0.00  0.00    -0.348 N 
ATOM      9  H1  RYJ d          19.262   4.539  14.043  0.00  0.00     0.163 HD
ATOM     10  O'  RYJ d          16.525   6.024  13.689  0.00  0.00    -0.268 OA
BRANCH   8  11
ATOM     11  C1' RYJ d          19.100   6.355  12.904  0.00  0.00     0.240 C 
BRANCH  11  12
ATOM     12  C2' RYJ d          19.631   7.434  13.855  0.00  0.00     0.403 C 
ATOM     13  F2' RYJ d          20.647   7.017  14.637  0.00  0.00    -0.169 F 
ATOM     14  F2' RYJ d          18.796   7.836  14.774  0.00  0.00    -0.169 F 
ATOM     15  F2' RYJ d          20.048   8.464  13.121  0.00  0.00    -0.169 F 
ENDBRANCH  11  12
ENDBRANCH   8  11
ENDBRANCH   1   7
BRANCH   4  16
ATOM     16  S   RYJ d          15.246   0.258  16.920  0.00  0.00     0.256 S 
ATOM     17  O1S RYJ d          15.754   0.343  18.273  0.00  0.00    -0.201 OA
ATOM     18  O2S RYJ d          15.823  -1.024  16.206  0.00  0.00    -0.201 OA
BRANCH  16  19
ATOM     19  N3S RYJ d          13.780   0.326  16.762  0.00  0.00    -0.324 N 
ATOM     20  H8  RYJ d          13.200  -0.382  17.166  0.00  0.00     0.169 HD
ATOM     21  H9  RYJ d          13.367   1.080  16.251  0.00  0.00     0.169 HD
ENDBRANCH  16  19
ENDBRANCH   4  16
TORSDOF 5
