REMARK  30 active torsions:
REMARK  status: ('A' for Active; 'I' for Inactive)
REMARK    1  A    between atoms: O2E_1  and  C2E_2 
REMARK    2  A    between atoms: C3E_3  and  O3E_4 
REMARK    3  A    between atoms: C4E_5  and  O4E_6 
REMARK    4  A    between atoms: C5E_7  and  C6E_8 
REMARK    5  A    between atoms: C6E_8  and  O6E_9 
REMARK    6  A    between atoms: C1E_11  and  O4D_12 
REMARK    7  A    between atoms: O4D_12  and  C4D_13 
REMARK    8  A    between atoms: C5D_14  and  C6D_16 
REMARK    9  A    between atoms: C6D_16  and  O6D_17 
REMARK   10  A    between atoms: C3D_18  and  O3D_19 
REMARK   11  A    between atoms: C2D_20  and  O2D_21 
REMARK   12  A    between atoms: C1D_22  and  O4C_23 
REMARK   13  A    between atoms: O4C_23  and  C4C_24 
REMARK   14  A    between atoms: C5C_25  and  C6C_27 
REMARK   15  A    between atoms: C6C_27  and  O6C_28 
REMARK   16  A    between atoms: C3C_29  and  O3C_30 
REMARK   17  A    between atoms: C2C_31  and  O2C_32 
REMARK   18  A    between atoms: C1C_33  and  O4B_34 
REMARK   19  A    between atoms: O4B_34  and  C4B_35 
REMARK   20  A    between atoms: C5B_36  and  C6B_38 
REMARK   21  A    between atoms: C6B_38  and  O6B_39 
REMARK   22  A    between atoms: C3B_40  and  O3B_41 
REMARK   23  A    between atoms: C2B_42  and  O2B_43 
REMARK   24  A    between atoms: C1B_44  and  O4A_45 
REMARK   25  A    between atoms: O4A_45  and  C4A_46 
REMARK   26  A    between atoms: C3A_47  and  O3A_48 
REMARK   27  A    between atoms: C2A_49  and  O2A_50 
REMARK   28  A    between atoms: C1A_51  and  O1A_52 
REMARK   29  A    between atoms: C5A_54  and  C6A_55 
REMARK   30  A    between atoms: C6A_55  and  O6A_56 
ROOT
ATOM      1  C4C CE5 d           2.005   0.333  43.891  0.00  0.00     0.187 C 
ATOM      2  C5C CE5 d           0.793  -0.306  44.553  0.00  0.00     0.180 C 
ATOM      3  O5C CE5 d           1.010  -0.515  45.943  0.00  0.00    -0.348 OA
ATOM      4  C3C CE5 d           2.341   1.635  44.626  0.00  0.00     0.183 C 
ATOM      5  C2C CE5 d           2.487   1.392  46.123  0.00  0.00     0.204 C 
ATOM      6  C1C CE5 d           1.242   0.693  46.661  0.00  0.00     0.292 C 
ENDROOT
BRANCH   1   7
ATOM      7  O4C CE5 d           1.601   0.696  42.581  0.00  0.00    -0.348 OA
BRANCH   7   8
ATOM      8  C1D CE5 d           2.490   0.341  41.522  0.00  0.00     0.292 C 
ATOM      9  O5D CE5 d           3.441   1.376  41.340  0.00  0.00    -0.348 OA
ATOM     10  C5D CE5 d           4.475   0.982  40.432  0.00  0.00     0.180 C 
ATOM     11  C4D CE5 d           3.875   0.957  39.029  0.00  0.00     0.187 C 
ATOM     12  C3D CE5 d           2.659   0.024  39.041  0.00  0.00     0.183 C 
ATOM     13  C2D CE5 d           1.703   0.243  40.217  0.00  0.00     0.204 C 
BRANCH  10  14
ATOM     14  C6D CE5 d           5.661   1.904  40.638  0.00  0.00     0.198 C 
BRANCH  14  15
ATOM     15  O6D CE5 d           5.926   1.954  42.059  0.00  0.00    -0.398 OA
ATOM     16  H16 CE5 d           5.160   2.289  42.511  0.00  0.00     0.209 HD
ENDBRANCH  14  15
ENDBRANCH  10  14
BRANCH  11  17
ATOM     17  O4D CE5 d           4.780   0.391  38.085  0.00  0.00    -0.348 OA
BRANCH  17  18
ATOM     18  C1E CE5 d           5.478   1.214  37.091  0.00  0.00     0.292 C 
ATOM     19  C2E CE5 d           5.837   0.366  35.819  0.00  0.00     0.204 C 
ATOM     20  C3E CE5 d           5.138   0.838  34.549  0.00  0.00     0.183 C 
ATOM     21  C4E CE5 d           3.765   1.408  34.951  0.00  0.00     0.180 C 
ATOM     22  C5E CE5 d           4.064   2.731  35.661  0.00  0.00     0.179 C 
ATOM     23  O5E CE5 d           4.817   2.499  36.872  0.00  0.00    -0.348 OA
BRANCH  19  24
ATOM     24  O2E CE5 d           7.256   0.280  35.523  0.00  0.00    -0.388 OA
ATOM     25  H1  CE5 d           7.723  -0.013  36.297  0.00  0.00     0.210 HD
ENDBRANCH  19  24
BRANCH  20  26
ATOM     26  O3E CE5 d           5.062  -0.261  33.628  0.00  0.00    -0.390 OA
ATOM     27  H4  CE5 d           4.628   0.023  32.833  0.00  0.00     0.210 HD
ENDBRANCH  20  26
BRANCH  21  28
ATOM     28  O4E CE5 d           3.009   1.699  33.784  0.00  0.00    -0.390 OA
ATOM     29  H6  CE5 d           2.886   0.902  33.281  0.00  0.00     0.210 HD
ENDBRANCH  21  28
BRANCH  22  30
ATOM     30  C6E CE5 d           2.860   3.602  36.046  0.00  0.00     0.198 C 
BRANCH  30  31
ATOM     31  O6E CE5 d           1.943   2.855  36.895  0.00  0.00    -0.398 OA
ATOM     32  H10 CE5 d           1.633   2.088  36.427  0.00  0.00     0.209 HD
ENDBRANCH  30  31
ENDBRANCH  22  30
ENDBRANCH  17  18
ENDBRANCH  11  17
BRANCH  12  33
ATOM     33  O3D CE5 d           1.988   0.142  37.777  0.00  0.00    -0.390 OA
ATOM     34  H18 CE5 d           1.708   1.041  37.651  0.00  0.00     0.210 HD
ENDBRANCH  12  33
BRANCH  13  35
ATOM     35  O2D CE5 d           0.772  -0.838  40.361  0.00  0.00    -0.388 OA
ATOM     36  H20 CE5 d           0.199  -0.665  41.099  0.00  0.00     0.210 HD
ENDBRANCH  13  35
ENDBRANCH   7   8
ENDBRANCH   1   7
BRANCH   2  37
ATOM     37  C6C CE5 d           0.420  -1.651  43.958  0.00  0.00     0.198 C 
BRANCH  37  38
ATOM     38  O6C CE5 d          -0.908  -1.851  44.437  0.00  0.00    -0.398 OA
ATOM     39  H26 CE5 d          -0.903  -1.859  45.387  0.00  0.00     0.209 HD
ENDBRANCH  37  38
ENDBRANCH   2  37
BRANCH   4  40
ATOM     40  O3C CE5 d           3.546   2.240  44.106  0.00  0.00    -0.390 OA
ATOM     41  H28 CE5 d           3.428   2.436  43.184  0.00  0.00     0.210 HD
ENDBRANCH   4  40
BRANCH   5  42
ATOM     42  O2C CE5 d           2.644   2.615  46.837  0.00  0.00    -0.388 OA
ATOM     43  H30 CE5 d           2.732   2.430  47.765  0.00  0.00     0.210 HD
ENDBRANCH   5  42
BRANCH   6  44
ATOM     44  O4B CE5 d           1.377   0.443  48.069  0.00  0.00    -0.348 OA
BRANCH  44  45
ATOM     45  C4B CE5 d           0.167  -0.044  48.645  0.00  0.00     0.187 C 
ATOM     46  C5B CE5 d          -0.548   1.087  49.417  0.00  0.00     0.180 C 
ATOM     47  O5B CE5 d          -1.523   0.585  50.344  0.00  0.00    -0.348 OA
ATOM     48  C1B CE5 d          -1.241  -0.598  51.100  0.00  0.00     0.292 C 
ATOM     49  C2B CE5 d          -0.724  -1.738  50.234  0.00  0.00     0.204 C 
ATOM     50  C3B CE5 d           0.499  -1.298  49.457  0.00  0.00     0.183 C 
BRANCH  46  51
ATOM     51  C6B CE5 d          -1.300   1.959  48.408  0.00  0.00     0.198 C 
BRANCH  51  52
ATOM     52  O6B CE5 d          -1.472   3.301  48.866  0.00  0.00    -0.398 OA
ATOM     53  H36 CE5 d          -1.942   3.801  48.209  0.00  0.00     0.209 HD
ENDBRANCH  51  52
ENDBRANCH  46  51
BRANCH  48  54
ATOM     54  O4A CE5 d          -2.483  -1.068  51.626  0.00  0.00    -0.348 OA
BRANCH  54  55
ATOM     55  C4A CE5 d          -2.800  -0.597  52.923  0.00  0.00     0.187 C 
ATOM     56  C3A CE5 d          -3.969   0.382  52.813  0.00  0.00     0.183 C 
ATOM     57  C2A CE5 d          -4.501   0.711  54.202  0.00  0.00     0.204 C 
ATOM     58  C1A CE5 d          -4.855  -0.590  54.918  0.00  0.00     0.288 C 
ATOM     59  O5A CE5 d          -3.683  -1.408  55.036  0.00  0.00    -0.349 OA
ATOM     60  C5A CE5 d          -3.142  -1.820  53.774  0.00  0.00     0.180 C 
BRANCH  56  61
ATOM     61  O3A CE5 d          -3.557   1.583  52.143  0.00  0.00    -0.390 OA
ATOM     62  H44 CE5 d          -3.250   1.368  51.270  0.00  0.00     0.210 HD
ENDBRANCH  56  61
BRANCH  57  63
ATOM     63  O2A CE5 d          -5.648   1.564  54.110  0.00  0.00    -0.388 OA
ATOM     64  H46 CE5 d          -5.967   1.759  54.983  0.00  0.00     0.210 HD
ENDBRANCH  57  63
BRANCH  58  65
ATOM     65  O1A CE5 d          -5.397  -0.292  56.214  0.00  0.00    -0.369 OA
ATOM     66  H48 CE5 d          -6.171   0.250  56.115  0.00  0.00     0.212 HD
ENDBRANCH  58  65
BRANCH  60  67
ATOM     67  C6A CE5 d          -1.883  -2.698  53.908  0.00  0.00     0.198 C 
BRANCH  67  68
ATOM     68  O6A CE5 d          -1.406  -2.759  55.313  0.00  0.00    -0.398 OA
ATOM     69  H52 CE5 d          -2.088  -3.127  55.862  0.00  0.00     0.209 HD
ENDBRANCH  67  68
ENDBRANCH  60  67
ENDBRANCH  54  55
ENDBRANCH  48  54
BRANCH  49  70
ATOM     70  O2B CE5 d          -0.382  -2.855  51.055  0.00  0.00    -0.388 OA
ATOM     71  H40 CE5 d          -0.078  -3.569  50.506  0.00  0.00     0.210 HD
ENDBRANCH  49  70
BRANCH  50  72
ATOM     72  O3B CE5 d           0.852  -2.378  48.586  0.00  0.00    -0.390 OA
ATOM     73  H38 CE5 d           1.055  -3.148  49.104  0.00  0.00     0.210 HD
ENDBRANCH  50  72
ENDBRANCH  44  45
ENDBRANCH   6  44
TORSDOF 30
