REMARK  13 active torsions:
REMARK  status: ('A' for Active; 'I' for Inactive)
REMARK    1  A    between atoms: PBA_2  and  O6_5 
REMARK    2  A    between atoms: O6_5  and  C6_6 
REMARK    3  A    between atoms: C6_6  and  C5_7 
REMARK    4  A    between atoms: C4_9  and  O4_10 
REMARK    5  A    between atoms: C3_11  and  O3_12 
REMARK    6  A    between atoms: C2_13  and  O2_14 
REMARK    7  A    between atoms: C1_15  and  SAP_16 
REMARK    8  A    between atoms: SAP_16  and  CAZ_17 
REMARK    9  A    between atoms: CAX_18  and  OAG_19 
REMARK   10  A    between atoms: CAT_20  and  OAC_21 
REMARK   11  A    between atoms: CAQ_22  and  OAB_23 
REMARK   12  A    between atoms: CAR_25  and  CAK_26 
REMARK   13  A    between atoms: CAK_26  and  OAA_27 
ROOT
ATOM      1  C5  1FT d          27.323  -1.153  17.689  0.00  0.00     0.178 C 
ATOM      2  O5  1FT d          26.120  -1.855  17.817  0.00  0.00    -0.363 OA
ATOM      3  C4  1FT d          28.172  -1.006  18.959  0.00  0.00     0.180 C 
ATOM      4  C3  1FT d          27.490  -1.042  20.200  0.00  0.00     0.181 C 
ATOM      5  C2  1FT d          26.356  -1.898  20.219  0.00  0.00     0.188 C 
ATOM      6  C1  1FT d          25.438  -1.663  19.029  0.00  0.00     0.215 C 
ENDROOT
BRANCH   6   7
ATOM      7  SAP 1FT d          23.950  -2.686  19.105  0.00  0.00    -0.124 SA
BRANCH   7   8
ATOM      8  CAZ 1FT d          23.904  -3.924  17.756  0.00  0.00     0.112 C 
ATOM      9  CAX 1FT d          23.268  -5.158  18.277  0.00  0.00     0.168 C 
ATOM     10  CAT 1FT d          23.044  -6.133  17.293  0.00  0.00     0.203 C 
ATOM     11  CAQ 1FT d          22.306  -5.585  16.101  0.00  0.00     0.288 C 
ATOM     12  OAN 1FT d          22.932  -4.363  15.567  0.00  0.00    -0.350 OA
ATOM     13  CAR 1FT d          23.214  -3.381  16.527  0.00  0.00     0.164 C 
BRANCH   9  14
ATOM     14  OAG 1FT d          24.121  -5.713  19.313  0.00  0.00    -0.392 OA
ATOM     15  H13 1FT d          23.725  -6.505  19.657  0.00  0.00     0.210 HD
ENDBRANCH   9  14
BRANCH  10  16
ATOM     16  OAC 1FT d          22.288  -7.250  17.851  0.00  0.00    -0.388 OA
ATOM     17  H15 1FT d          22.143  -7.902  17.175  0.00  0.00     0.210 HD
ENDBRANCH  10  16
BRANCH  11  18
ATOM     18  OAB 1FT d          22.269  -6.526  15.144  0.00  0.00    -0.369 OA
ATOM     19  H17 1FT d          21.865  -7.313  15.491  0.00  0.00     0.212 HD
ENDBRANCH  11  18
BRANCH  13  20
ATOM     20  CAK 1FT d          24.088  -2.321  15.870  0.00  0.00     0.197 C 
BRANCH  20  21
ATOM     21  OAA 1FT d          23.478  -1.229  15.270  0.00  0.00    -0.398 OA
ATOM     22  H21 1FT d          24.143  -0.657  14.905  0.00  0.00     0.209 HD
ENDBRANCH  20  21
ENDBRANCH  13  20
ENDBRANCH   7   8
ENDBRANCH   6   7
BRANCH   5  23
ATOM     23  O2  1FT d          25.592  -1.753  21.431  0.00  0.00    -0.389 OA
ATOM     24  H9  1FT d          24.845  -2.340  21.405  0.00  0.00     0.210 HD
ENDBRANCH   5  23
BRANCH   1  25
ATOM     25  C6  1FT d          27.073   0.199  17.063  0.00  0.00     0.217 C 
BRANCH  25  26
ATOM     26  O6  1FT d          27.290   0.271  15.707  0.00  0.00    -0.280 OA
BRANCH  26  27
ATOM     27  PBA 1FT d          28.684  -0.192  15.129  0.00  0.00     0.422 P 
ATOM     28  OAH 1FT d          28.811  -1.698  15.176  0.00  0.00    -0.617 OA
ATOM     29  OAI 1FT d          28.786   0.265  13.687  0.00  0.00    -0.617 OA
ATOM     30  OAJ 1FT d          29.791   0.414  15.958  0.00  0.00    -0.617 OA
ENDBRANCH  26  27
ENDBRANCH  25  26
ENDBRANCH   1  25
BRANCH   4  31
ATOM     31  O3  1FT d          28.484  -1.487  21.235  0.00  0.00    -0.390 OA
ATOM     32  H7  1FT d          28.060  -1.523  22.084  0.00  0.00     0.210 HD
ENDBRANCH   4  31
BRANCH   3  33
ATOM     33  O4  1FT d          28.938   0.194  18.841  0.00  0.00    -0.390 OA
ATOM     34  H5  1FT d          29.498   0.137  18.076  0.00  0.00     0.210 HD
ENDBRANCH   3  33
TORSDOF 13
