REMARK  3 active torsions:
REMARK  status: ('A' for Active; 'I' for Inactive)
REMARK    1  A    between atoms: C6_8  and  O3_9 
REMARK    2  A    between atoms: C10_13  and  C14_17 
REMARK    3  A    between atoms: C19_22  and  C20_23 
ROOT
ATOM      1  C1  FLU d           6.595  75.023  53.201  0.00  0.00     0.174 A 
ATOM      2  O1  FLU d           6.258  74.237  54.123  0.00  0.00    -0.288 OA
ATOM      3  C2  FLU d           6.423  74.623  51.873  0.00  0.00     0.092 A 
ATOM      4  C3  FLU d           6.773  75.475  50.873  0.00  0.00     0.091 A 
ATOM      5  O2  FLU d           6.559  74.987  49.589  0.00  0.00    -0.309 OA
ATOM      6  C4  FLU d           6.801  75.785  48.505  0.00  0.00     0.089 A 
ATOM      7  C5  FLU d           6.547  75.199  47.280  0.00  0.00     0.074 A 
ATOM      8  C6  FLU d           6.750  75.942  46.121  0.00  0.00     0.068 A 
ATOM      9  C7  FLU d           7.250  77.267  46.269  0.00  0.00     0.037 A 
ATOM     10  C8  FLU d           7.487  77.842  47.502  0.00  0.00     0.018 A 
ATOM     11  C9  FLU d           7.263  77.101  48.697  0.00  0.00     0.010 A 
ATOM     12  C10 FLU d           7.540  77.586  50.016  0.00  0.00     0.001 A 
ATOM     13  C11 FLU d           7.248  76.781  51.099  0.00  0.00     0.010 A 
ATOM     14  C12 FLU d           7.419  77.174  52.481  0.00  0.00     0.019 A 
ATOM     15  C13 FLU d           7.081  76.345  53.488  0.00  0.00     0.056 A 
ENDROOT
BRANCH  12  16
ATOM     16  C14 FLU d           7.955  79.025  50.183  0.00  0.00    -0.007 A 
ATOM     17  C15 FLU d           6.980  79.918  50.588  0.00  0.00     0.013 A 
ATOM     18  C16 FLU d           7.278  81.262  50.738  0.00  0.00     0.001 A 
ATOM     19  C17 FLU d           8.512  81.769  50.413  0.00  0.00     0.001 A 
ATOM     20  C18 FLU d           9.479  80.885  49.972  0.00  0.00     0.019 A 
ATOM     21  C19 FLU d           9.209  79.526  49.847  0.00  0.00     0.051 A 
BRANCH  21  22
ATOM     22  C20 FLU d          10.271  78.614  49.353  0.00  0.00     0.210 C 
ATOM     23  O4  FLU d          11.003  79.042  48.468  0.00  0.00    -0.644 OA
ATOM     24  O5  FLU d          10.322  77.487  49.849  0.00  0.00    -0.644 OA
ENDBRANCH  21  22
ENDBRANCH  12  16
BRANCH   8  25
ATOM     25  O3  FLU d           6.500  75.400  44.942  0.00  0.00    -0.361 OA
ATOM     26  H3  FLU d           6.688  76.032  44.258  0.00  0.00     0.217 HD
ENDBRANCH   8  25
TORSDOF 3
