REMARK  3 active torsions:
REMARK  status: ('A' for Active; 'I' for Inactive)
REMARK    1  A    between atoms: C6_8  and  C11_14 
REMARK    2  A    between atoms: C7_9  and  C10_13 
REMARK    3  A    between atoms: C10_13  and  C12_16 
ROOT
ATOM      1  C1  IKM d          -5.760  28.384  -1.655  0.00  0.00     0.260 C 
ATOM      2  C2  IKM d          -4.356  28.307   0.420  0.00  0.00     0.004 C 
ATOM      3  C3  IKM d          -4.623  27.870  -0.824  0.00  0.00    -0.001 C 
ATOM      4  C4  IKM d          -6.142  30.109   0.119  0.00  0.00     0.234 C 
ATOM      5  C5  IKM d          -5.178  29.377   1.076  0.00  0.00     0.177 C 
ATOM      6  O1  IKM d          -6.017  28.778   2.073  0.00  0.00    -0.365 OA
ATOM      7  N2  IKM d          -6.409  32.016   2.787  0.00  0.00    -0.343 N 
ATOM      8  C6  IKM d          -6.493  30.711   3.437  0.00  0.00     0.221 A 
ATOM      9  C7  IKM d          -7.054  29.751   2.346  0.00  0.00     0.115 A 
ATOM     10  C8  IKM d          -7.210  30.623   1.075  0.00  0.00     0.149 A 
ATOM     11  C9  IKM d          -6.795  32.019   1.476  0.00  0.00     0.227 A 
ATOM     12  O2  IKM d          -6.804  33.014   0.747  0.00  0.00    -0.273 OA
ATOM     13  N1  IKM d          -6.738  29.150  -0.859  0.00  0.00    -0.064 N 
ATOM     14  H7  IKM d          -6.095  32.839   3.261  0.00  0.00     0.163 HD
ATOM     15  H12 IKM d          -7.307  28.494  -0.347  0.00  0.00     0.278 HD
ATOM     16  H13 IKM d          -7.319  29.673  -1.496  0.00  0.00     0.278 HD
ENDROOT
BRANCH   9  17
ATOM     17  C10 IKM d          -8.282  28.948   2.775  0.00  0.00     0.154 C 
BRANCH  17  18
ATOM     18  C12 IKM d          -8.894  28.006   1.758  0.00  0.00     0.175 C 
ATOM     19  O4  IKM d          -9.924  27.378   2.115  0.00  0.00    -0.648 OA
ATOM     20  O5  IKM d          -8.324  27.937   0.639  0.00  0.00    -0.648 OA
ENDBRANCH  17  18
ENDBRANCH   9  17
BRANCH   8  21
ATOM     21  C11 IKM d          -7.344  30.775   4.736  0.00  0.00     0.199 C 
ATOM     22  O3  IKM d          -7.193  29.833   5.566  0.00  0.00    -0.646 OA
ATOM     23  O6  IKM d          -8.120  31.759   4.829  0.00  0.00    -0.646 OA
ENDBRANCH   8  21
TORSDOF 3
