REMARK  8 active torsions:
REMARK  status: ('A' for Active; 'I' for Inactive)
REMARK    1  A    between atoms: C1_1  and  N1_10 
REMARK    2  A    between atoms: C4_4  and  C7_7 
REMARK    3  A    between atoms: C7_7  and  NA_8 
REMARK    4  A    between atoms: N1_10  and  N_11 
REMARK    5  A    between atoms: N_11  and  N1'_12 
REMARK    6  A    between atoms: N1'_12  and  C1'_13 
REMARK    7  A    between atoms: C4'_16  and  C7'_19 
REMARK    8  A    between atoms: C7'_19  and  NA'_20 
ROOT
ATOM      1  N   BRN d          -0.106  16.744  19.467  0.00  0.00    -0.068 NA
ENDROOT
BRANCH   1   2
ATOM      2  N1  BRN d          -1.124  15.953  19.314  0.00  0.00    -0.133 NA
BRANCH   2   3
ATOM      3  C1  BRN d          -1.359  15.307  18.173  0.00  0.00     0.080 A 
ATOM      4  C2  BRN d          -1.467  13.926  18.220  0.00  0.00     0.034 A 
ATOM      5  C3  BRN d          -1.729  13.244  17.046  0.00  0.00     0.017 A 
ATOM      6  C4  BRN d          -1.885  13.948  15.852  0.00  0.00     0.007 A 
ATOM      7  C5  BRN d          -1.785  15.340  15.808  0.00  0.00     0.017 A 
ATOM      8  C6  BRN d          -1.508  16.021  16.989  0.00  0.00     0.034 A 
BRANCH   6   9
ATOM      9  C7  BRN d          -2.185  13.185  14.609  0.00  0.00     0.102 C 
ATOM     10  NB  BRN d          -1.817  11.908  14.529  0.00  0.00    -0.385 N 
ATOM     11  H7  BRN d          -1.312  11.467  15.311  0.00  0.00     0.157 HD
ATOM     12  H8  BRN d          -2.037  11.361  13.685  0.00  0.00     0.157 HD
BRANCH   9  13
ATOM     13  NA  BRN d          -2.806  13.742  13.657  0.00  0.00    -0.385 N 
ATOM     14  H5  BRN d          -3.013  13.213  12.798  0.00  0.00     0.157 HD
ATOM     15  H6  BRN d          -3.104  14.724  13.742  0.00  0.00     0.157 HD
ENDBRANCH   9  13
ENDBRANCH   6   9
ENDBRANCH   2   3
ENDBRANCH   1   2
BRANCH   1  16
ATOM     16  N1' BRN d          -0.269  17.632  20.305  0.00  0.00    -0.260 N 
ATOM     17  H9  BRN d          -1.174  17.732  20.787  0.00  0.00     0.191 HD
BRANCH  16  18
ATOM     18  C1' BRN d           0.774  18.494  20.594  0.00  0.00     0.051 A 
ATOM     19  C2' BRN d           1.999  18.364  19.935  0.00  0.00     0.032 A 
ATOM     20  C3' BRN d           3.034  19.229  20.260  0.00  0.00     0.017 A 
ATOM     21  C4' BRN d           2.819  20.183  21.255  0.00  0.00     0.007 A 
ATOM     22  C5' BRN d           1.599  20.302  21.910  0.00  0.00     0.017 A 
ATOM     23  C6' BRN d           0.564  19.446  21.584  0.00  0.00     0.032 A 
BRANCH  21  24
ATOM     24  C7' BRN d           3.922  21.113  21.624  0.00  0.00     0.102 C 
ATOM     25  NB' BRN d           4.024  21.583  22.869  0.00  0.00    -0.385 N 
ATOM     26  H16 BRN d           3.329  21.313  23.580  0.00  0.00     0.157 HD
ATOM     27  H17 BRN d           4.798  22.215  23.119  0.00  0.00     0.157 HD
BRANCH  24  28
ATOM     28  NA' BRN d           4.755  21.426  20.739  0.00  0.00    -0.385 N 
ATOM     29  H14 BRN d           5.529  22.067  20.964  0.00  0.00     0.157 HD
ATOM     30  H15 BRN d           4.665  21.042  19.788  0.00  0.00     0.157 HD
ENDBRANCH  24  28
ENDBRANCH  21  24
ENDBRANCH  16  18
ENDBRANCH   1  16
TORSDOF 8
