REMARK  13 active torsions:
REMARK  status: ('A' for Active; 'I' for Inactive)
REMARK       I    between atoms: C10_20  and  N1_1 
REMARK    1  A    between atoms: N1_1  and  C2_2 
REMARK    2  A    between atoms: C1_3  and  O1_4 
REMARK    3  A    between atoms: C10_20  and  C11_12 
REMARK    4  A    between atoms: C11_12  and  C19_22 
REMARK    5  A    between atoms: C11_12  and  C12_13 
REMARK    6  A    between atoms: C12_13  and  C13_14 
REMARK    7  A    between atoms: C19_22  and  C20_24 
REMARK    8  A    between atoms: C20_24  and  O3_23 
REMARK    9  A    between atoms: C20_24  and  C21_25 
REMARK   10  A    between atoms: C21_25  and  N2_26 
REMARK   11  A    between atoms: N2_26  and  C22_27 
REMARK   12  A    between atoms: C31_39  and  C32_40 
REMARK   13  A    between atoms: C32_40  and  C34_42 
ROOT
ATOM      1  N2  PI8 d           3.915  -2.148  16.170  0.00  0.00    -0.060 N 
ATOM      2  H25 PI8 d           3.108  -2.141  15.566  0.00  0.00     0.278 HD
ATOM      3  H26 PI8 d           3.788  -1.472  16.907  0.00  0.00     0.278 HD
ENDROOT
BRANCH   1   4
ATOM      4  C21 PI8 d           5.096  -1.790  15.393  0.00  0.00     0.264 C 
BRANCH   4   5
ATOM      5  C20 PI8 d           5.187  -0.292  15.223  0.00  0.00     0.144 C 
BRANCH   5   6
ATOM      6  C19 PI8 d           6.445  -0.018  14.421  0.00  0.00     0.047 C 
BRANCH   6   7
ATOM      7  C11 PI8 d           6.391   1.167  13.471  0.00  0.00     0.084 C 
BRANCH   7   8
ATOM      8  C10 PI8 d           5.285   0.946  12.429  0.00  0.00     0.222 C 
ATOM      9  N1  PI8 d           4.601   2.026  12.062  0.00  0.00    -0.350 N 
ATOM     10  H1  PI8 d           4.816   2.909  12.480  0.00  0.00     0.163 HD
ATOM     11  O2  PI8 d           5.057  -0.181  11.977  0.00  0.00    -0.273 OA
BRANCH   9  12
ATOM     12  C2  PI8 d           3.532   1.946  11.050  0.00  0.00     0.147 C 
ATOM     13  C3  PI8 d           2.140   1.692  11.535  0.00  0.00    -0.027 A 
ATOM     14  C8  PI8 d           1.275   2.587  10.931  0.00  0.00    -0.047 A 
ATOM     15  C4  PI8 d           1.665   0.748  12.432  0.00  0.00     0.010 A 
ATOM     16  C9  PI8 d           2.044   3.496  10.013  0.00  0.00     0.073 C 
ATOM     17  C7  PI8 d          -0.080   2.552  11.214  0.00  0.00     0.008 A 
ATOM     18  C1  PI8 d           3.453   3.326  10.442  0.00  0.00     0.149 C 
ATOM     19  C6  PI8 d          -0.572   1.607  12.116  0.00  0.00     0.001 A 
ATOM     20  C5  PI8 d           0.306   0.699  12.728  0.00  0.00     0.001 A 
BRANCH  18  21
ATOM     21  O1  PI8 d           3.769   4.311  11.431  0.00  0.00    -0.393 OA
ATOM     22  H4  PI8 d           4.672   4.203  11.707  0.00  0.00     0.210 HD
ENDBRANCH  18  21
ENDBRANCH   9  12
ENDBRANCH   7   8
BRANCH   7  23
ATOM     23  C12 PI8 d           7.743   1.292  12.774  0.00  0.00     0.052 C 
BRANCH  23  24
ATOM     24  C13 PI8 d           7.738   2.240  11.618  0.00  0.00    -0.057 A 
ATOM     25  C14 PI8 d           7.728   3.613  11.833  0.00  0.00     0.007 A 
ATOM     26  C15 PI8 d           7.701   4.499  10.767  0.00  0.00     0.001 A 
ATOM     27  C16 PI8 d           7.684   4.014   9.467  0.00  0.00     0.000 A 
ATOM     28  C17 PI8 d           7.696   2.640   9.239  0.00  0.00     0.001 A 
ATOM     29  C18 PI8 d           7.723   1.762  10.313  0.00  0.00     0.007 A 
ENDBRANCH  23  24
ENDBRANCH   7  23
ENDBRANCH   6   7
ENDBRANCH   5   6
BRANCH   5  30
ATOM     30  O3  PI8 d           5.281   0.339  16.506  0.00  0.00    -0.394 OA
ATOM     31  H21 PI8 d           4.490   0.164  17.003  0.00  0.00     0.210 HD
ENDBRANCH   5  30
ENDBRANCH   4   5
ENDBRANCH   1   4
BRANCH   1  32
ATOM     32  C22 PI8 d           4.058  -3.482  16.762  0.00  0.00     0.281 C 
ATOM     33  C30 PI8 d           5.173  -4.383  16.200  0.00  0.00     0.249 C 
ATOM     34  N3  PI8 d           6.083  -4.800  17.079  0.00  0.00    -0.346 N 
ATOM     35  O4  PI8 d           5.248  -4.621  14.994  0.00  0.00    -0.271 OA
ATOM     36  C31 PI8 d           7.166  -5.745  16.733  0.00  0.00     0.180 C 
ATOM     37  H34 PI8 d           6.031  -4.458  18.017  0.00  0.00     0.163 HD
ATOM     38  C36 PI8 d           7.430  -6.595  17.978  0.00  0.00     0.240 C 
ATOM     39  N4  PI8 d           7.645  -7.894  17.779  0.00  0.00    -0.359 N 
ATOM     40  O5  PI8 d           7.400  -6.084  19.104  0.00  0.00    -0.271 OA
ATOM     41  C37 PI8 d           7.915  -8.864  18.856  0.00  0.00     0.122 C 
ATOM     42  H45 PI8 d           7.622  -8.233  16.839  0.00  0.00     0.162 HD
ATOM     43  C38 PI8 d           7.609 -10.301  18.446  0.00  0.00     0.020 C 
ATOM     44  C39 PI8 d           6.134 -10.503  18.127  0.00  0.00     0.004 C 
ATOM     45  C40 PI8 d           5.248 -10.006  19.257  0.00  0.00     0.027 C 
ATOM     46  C41 PI8 d           3.778 -10.307  18.995  0.00  0.00     0.175 C 
ATOM     47  O6  PI8 d           3.352  -9.770  17.750  0.00  0.00    -0.351 OA
ATOM     48  C27 PI8 d           3.164  -8.418  17.524  0.00  0.00     0.068 A 
ATOM     49  C26 PI8 d           3.065  -7.515  18.575  0.00  0.00     0.037 A 
ATOM     50  C28 PI8 d           3.093  -7.970  16.212  0.00  0.00     0.037 A 
ATOM     51  C25 PI8 d           2.898  -6.160  18.305  0.00  0.00     0.010 A 
ATOM     52  C24 PI8 d           2.830  -5.692  16.995  0.00  0.00    -0.056 A 
ATOM     53  C23 PI8 d           2.716  -4.219  16.707  0.00  0.00     0.081 C 
ATOM     54  C29 PI8 d           2.924  -6.616  15.955  0.00  0.00     0.010 A 
BRANCH  36  55
ATOM     55  C32 PI8 d           8.486  -5.029  16.337  0.00  0.00     0.013 C 
ATOM     56  C33 PI8 d           9.181  -5.810  15.217  0.00  0.00     0.012 C 
BRANCH  55  57
ATOM     57  C34 PI8 d           8.217  -3.599  15.865  0.00  0.00     0.002 C 
ATOM     58  C35 PI8 d           9.394  -2.939  15.229  0.00  0.00     0.005 C 
ENDBRANCH  55  57
ENDBRANCH  36  55
ENDBRANCH   1  32
TORSDOF 13
