3g2i_ligand

Created by X-TOOL on Fri Sep 26 17:34:47 2014
 33 34  0  0  0  0  0  0  0  0999 V2000
   33.7250   24.4130   25.9160  O 0  0  0  2  0  2
   33.5290   23.0250   26.2030  C 0  0  0  2  0  4
   32.4050   22.4270   25.3340  C 0  0  0  2  0  4
   32.7480   22.4900   23.9510  O 0  0  0  2  0  2
   32.1730   20.9630   25.7180  C 0  0  0  2  0  4
   31.0180   20.4990   25.0410  O 0  0  0  2  0  2
   31.9770   20.8110   27.2380  C 0  0  0  2  0  4
   31.8230   19.3540   27.6700  C 0  0  0  3  0  4
   32.8840   18.5750   27.1120  O 0  0  0  2  0  2
   33.1260   21.3710   27.9090  O 0  0  0  1  0  2
   33.2030   22.8100   27.6970  C 0  0  0  2  0  4
   34.2470   23.3150   28.6080  N 0  0  0  1  0  3
   35.5700   23.2160   28.4750  C 0  0  0  2  0  3
   33.9720   23.8850   29.6710  N 0  0  0  1  0  2
   35.0100   24.2020   30.2690  N 0  0  0  1  0  2
   36.0620   23.8000   29.5550  C 0  0  0  1  0  3
   37.5380   23.9790   29.9050  C 0  0  0  3  0  4
   37.6890   24.1030   31.3210  O 0  0  0  2  0  2
   33.9618   24.5158   25.0018  H 0  0  0  1  0  1
   34.4641   22.4936   25.9723  H 0  0  0  1  0  1
   31.4805   22.9986   25.5031  H 0  0  0  1  0  1
   32.0436   22.1172   23.4339  H 0  0  0  1  0  1
   33.0438   20.3663   25.4090  H 0  0  0  1  0  1
   31.1513   20.5718   24.1032  H 0  0  0  1  0  1
   31.0732   21.3638   27.5338  H 0  0  0  1  0  1
   30.8573   18.9663   27.3135  H 0  0  0  1  0  1
   31.8607   19.2914   28.7676  H 0  0  0  1  0  1
   33.7176   18.9103   27.4205  H 0  0  0  1  0  1
   32.2438   23.2928   27.9353  H 0  0  0  1  0  1
   36.1233   22.7559   27.6576  H 0  0  0  1  0  1
   37.9216   24.8867   29.4162  H 0  0  0  1  0  1
   38.1054   23.1050   29.5526  H 0  0  0  1  0  1
   38.6087   24.2140   31.5318  H 0  0  0  1  0  1
  1  2  1  0  0  2
  2  3  1  0  0  1
  2 11  1  0  0  1
  3  4  1  0  0  2
  3  5  1  0  0  1
  5  6  1  0  0  2
  5  7  1  0  0  1
  7  8  1  0  0  2
  7 10  1  0  0  1
  8  9  1  0  0  2
 10 11  1  0  0  1
 11 12  1  0  0  2
 12 13  1  0  0  1
 12 14  1  0  0  1
 13 16  2  0  0  1
 14 15  2  0  0  1
 15 16  1  0  0  1
 16 17  1  0  0  2
 17 18  1  0  0  2
  1 19  1  0  0  2
  2 20  1  0  0  2
  3 21  1  0  0  2
  4 22  1  0  0  2
  5 23  1  0  0  2
  6 24  1  0  0  2
  7 25  1  0  0  2
  8 26  1  0  0  2
  8 27  1  0  0  2
  9 28  1  0  0  2
 11 29  1  0  0  2
 13 30  1  0  0  2
 17 31  1  0  0  2
 17 32  1  0  0  2
 18 33  1  0  0  2
M  END
> <MOLECULAR_FORMULA>
C9H15N3O6

> <MOLECULAR_WEIGHT>
261.1

> <NUM_HB_ATOMS>
9  

> <NUM_ROTOR>
3  

> <XLOGP2>
-3.13

$$$$
