REMARK  5 active torsions:
REMARK  status: ('A' for Active; 'I' for Inactive)
REMARK    1  A    between atoms: C9_5  and  O14_34 
REMARK    2  A    between atoms: C13_6  and  O17_12 
REMARK    3  A    between atoms: C2_28  and  N5_9 
REMARK    4  A    between atoms: C19_13  and  S22_15 
REMARK    5  A    between atoms: S22_15  and  N25_17 
ROOT
ATOM      1  C20 MOL d          11.361  23.723  43.599  0.00  0.00    -0.047 A 
ATOM      2  N5  MOL d          10.566  20.942  43.553  0.00  0.00    -0.360 N 
ATOM      3  C16 MOL d          10.632  23.124  44.771  0.00  0.00     0.059 C 
ATOM      4  C19 MOL d          12.208  23.610  41.349  0.00  0.00     0.083 A 
ATOM      5  C23 MOL d          12.704  24.918  41.480  0.00  0.00     0.025 A 
ATOM      6  C28 MOL d          12.533  25.606  42.685  0.00  0.00     0.002 A 
ATOM      7  C15 MOL d          11.532  23.010  42.403  0.00  0.00    -0.011 A 
ATOM      8  C10 MOL d          10.992  21.598  42.285  0.00  0.00     0.165 C 
ATOM      9  C24 MOL d          11.865  25.005  43.731  0.00  0.00     0.008 A 
ATOM     10  C11 MOL d           9.783  21.911  44.329  0.00  0.00     0.129 C 
ENDROOT
BRANCH   2  11
ATOM     11  C2  MOL d          11.404  19.957  44.184  0.00  0.00     0.140 C 
ATOM     12  C1  MOL d          11.999  18.829  43.544  0.00  0.00     0.041 A 
ATOM     13  C4  MOL d          11.774  18.497  42.200  0.00  0.00     0.057 A 
ATOM     14  C3  MOL d          12.838  17.965  44.298  0.00  0.00     0.075 A 
ATOM     15  C9  MOL d          12.359  17.389  41.630  0.00  0.00     0.102 A 
ATOM     16  C13 MOL d          13.216  16.553  42.388  0.00  0.00     0.103 A 
ATOM     17  C7  MOL d          13.450  16.853  43.739  0.00  0.00     0.072 A 
ATOM     18  N8  MOL d          13.048  18.231  45.578  0.00  0.00    -0.241 NA
ATOM     19  C12 MOL d          12.334  19.190  46.184  0.00  0.00     0.236 C 
ATOM     20  N6  MOL d          11.670  20.139  45.493  0.00  0.00    -0.224 NA
BRANCH  15  21
ATOM     21  O14 MOL d          12.155  17.118  40.311  0.00  0.00    -0.353 OA
ATOM     22  C18 MOL d          11.225  17.868  39.486  0.00  0.00     0.210 C 
ENDBRANCH  15  21
BRANCH  16  23
ATOM     23  O17 MOL d          13.785  15.480  41.760  0.00  0.00    -0.353 OA
ATOM     24  C21 MOL d          14.884  14.758  42.320  0.00  0.00     0.210 C 
ENDBRANCH  16  23
ENDBRANCH   2  11
BRANCH   4  25
ATOM     25  S22 MOL d          12.484  22.852  39.682  0.00  0.00     0.244 S 
ATOM     26  O26 MOL d          12.492  21.435  39.610  0.00  0.00    -0.206 OA
ATOM     27  O27 MOL d          13.733  23.348  39.335  0.00  0.00    -0.206 OA
BRANCH  25  28
ATOM     28  N25 MOL d          11.198  23.394  38.664  0.00  0.00    -0.203 NA
ATOM     29  C30 MOL d          11.046  24.861  38.741  0.00  0.00     0.135 C 
ATOM     30  C32 MOL d          10.070  25.234  37.623  0.00  0.00     0.249 C 
ATOM     31  N33 MOL d           8.795  24.529  37.788  0.00  0.00    -0.073 N 
ATOM     32  C34 MOL d           7.937  24.817  36.622  0.00  0.00     0.269 C 
ATOM     33  C31 MOL d           8.906  23.066  37.922  0.00  0.00     0.249 C 
ATOM     34  H18 MOL d           8.352  24.884  38.621  0.00  0.00     0.279 HD
ATOM     35  C29 MOL d           9.946  22.698  38.968  0.00  0.00     0.135 C 
ENDBRANCH  25  28
ENDBRANCH   4  25
TORSDOF 5
