REMARK  5 active torsions:
REMARK  status: ('A' for Active; 'I' for Inactive)
REMARK       I    between atoms: C28_10  and  N30_1 
REMARK    1  A    between atoms: C24_17  and  C28_10 
REMARK    2  A    between atoms: C21_20  and  C17_14 
REMARK    3  A    between atoms: C18_15  and  O19_30 
REMARK    4  A    between atoms: C22_25  and  C21_20 
REMARK    5  A    between atoms: C3_24  and  O4_28 
ROOT
ATOM      1  C9  E2B d          10.918   8.782 -11.523  0.00  0.00    -0.001 C 
ATOM      2  C10 E2B d          10.945  10.220 -11.059  0.00  0.00     0.023 C 
ATOM      3  C15 E2B d          11.670   7.929 -10.480  0.00  0.00     0.001 C 
ATOM      4  C8  E2B d          11.379   8.636 -12.992  0.00  0.00     0.010 C 
ATOM      5  C14 E2B d          11.257   8.094  -8.995  0.00  0.00    -0.014 C 
ATOM      6  C11 E2B d          10.227  11.083 -12.044  0.00  0.00    -0.047 A 
ATOM      7  C13 E2B d          11.375   9.569  -8.580  0.00  0.00     0.013 C 
ATOM      8  C16 E2B d          11.562   6.427 -10.642  0.00  0.00     0.013 C 
ATOM      9  C6  E2B d           9.928  10.621 -13.448  0.00  0.00    -0.049 A 
ATOM     10  C12 E2B d          10.537  10.432  -9.548  0.00  0.00     0.010 C 
ATOM     11  C17 E2B d          12.304   5.916  -9.415  0.00  0.00     0.020 C 
ATOM     12  C18 E2B d          12.251   7.098  -8.418  0.00  0.00     0.131 C 
ATOM     13  C20 E2B d           9.797   7.570  -8.741  0.00  0.00     0.018 C 
ATOM     14  C1  E2B d           9.843  12.375 -11.652  0.00  0.00     0.011 A 
ATOM     15  C7  E2B d          10.321   9.208 -13.949  0.00  0.00     0.039 C 
ATOM     16  C3  E2B d           8.920  12.846 -13.866  0.00  0.00     0.066 A 
ATOM     17  C5  E2B d           9.270  11.544 -14.306  0.00  0.00     0.044 A 
ATOM     18  C2  E2B d           9.224  13.246 -12.547  0.00  0.00     0.037 A 
ENDROOT
BRANCH  11  19
ATOM     19  C21 E2B d          11.631   4.662  -8.884  0.00  0.00     0.045 C 
BRANCH  19  20
ATOM     20  C22 E2B d          11.710   3.188  -9.329  0.00  0.00    -0.057 A 
ATOM     21  C23 E2B d          12.569   2.360  -8.565  0.00  0.00     0.024 A 
ATOM     22  C24 E2B d          12.687   0.969  -8.742  0.00  0.00     0.032 A 
ATOM     23  C25 E2B d          11.840   0.436  -9.771  0.00  0.00     0.017 A 
ATOM     24  C26 E2B d          10.913   1.208 -10.532  0.00  0.00     0.002 A 
ATOM     25  C27 E2B d          10.856   2.586 -10.278  0.00  0.00     0.007 A 
BRANCH  22  26
ATOM     26  C28 E2B d          13.686   0.175  -7.830  0.00  0.00     0.249 C 
ATOM     27  N30 E2B d          14.517  -0.784  -8.290  0.00  0.00    -0.366 N 
ATOM     28  H1  E2B d          15.133  -1.257  -7.660  0.00  0.00     0.159 HD
ATOM     29  H2  E2B d          14.517  -1.022  -9.261  0.00  0.00     0.159 HD
ATOM     30  O29 E2B d          13.708   0.405  -6.596  0.00  0.00    -0.268 OA
ENDBRANCH  22  26
ENDBRANCH  19  20
ENDBRANCH  11  19
BRANCH  12  31
ATOM     31  O19 E2B d          11.955   6.689  -7.076  0.00  0.00    -0.394 OA
ATOM     32  H31 E2B d          11.935   7.452  -6.511  0.00  0.00     0.210 HD
ENDBRANCH  12  31
BRANCH  16  33
ATOM     33  O4  E2B d           8.271  13.747 -14.718  0.00  0.00    -0.361 OA
ATOM     34  H30 E2B d           8.135  13.338 -15.565  0.00  0.00     0.217 HD
ENDBRANCH  16  33
TORSDOF 5
