REMARK  6 active torsions:
REMARK  status: ('A' for Active; 'I' for Inactive)
REMARK    1  A    between atoms: C5'_2  and  O5'_1 
REMARK    2  A    between atoms: C5'_2  and  C4'_3 
REMARK    3  A    between atoms: C3'_5  and  O3'_6 
REMARK    4  A    between atoms: C2'_7  and  O2'_8 
REMARK    5  A    between atoms: C1'_9  and  N9_10 
REMARK    6  A    between atoms: C6_14  and  N6_15 
ROOT
ATOM      1  C4' MOL d           8.393  19.039  37.313  0.00  0.00     0.179 C 
ATOM      2  O4' MOL d           7.228  19.713  37.809  0.00  0.00    -0.353 OA
ATOM      3  C3' MOL d           7.863  17.888  36.454  0.00  0.00     0.182 C 
ATOM      4  C2' MOL d           6.554  17.523  37.131  0.00  0.00     0.198 C 
ATOM      5  C1' MOL d           6.142  18.785  37.889  0.00  0.00     0.262 C 
ENDROOT
BRANCH   5   6
ATOM      6  N9  MOL d           4.920  19.274  37.394  0.00  0.00    -0.294 N 
ATOM      7  C8  MOL d           4.543  19.389  36.108  0.00  0.00     0.214 A 
ATOM      8  N7  MOL d           3.280  19.829  36.006  0.00  0.00    -0.238 NA
ATOM      9  C5  MOL d           2.834  19.904  37.288  0.00  0.00     0.130 A 
ATOM     10  C6  MOL d           1.620  20.246  37.816  0.00  0.00     0.060 A 
ATOM     11  C4  MOL d           3.857  19.626  38.129  0.00  0.00     0.164 A 
ATOM     12  C1  MOL d           1.502  20.295  39.187  0.00  0.00     0.051 A 
ATOM     13  C2  MOL d           2.586  20.004  40.005  0.00  0.00     0.121 A 
ATOM     14  N3  MOL d           3.749  19.675  39.465  0.00  0.00    -0.241 NA
BRANCH  10  15
ATOM     15  N6  MOL d           0.568  20.523  37.041  0.00  0.00    -0.397 N 
ATOM     16  H11 MOL d          -0.334  20.778  37.469  0.00  0.00     0.156 HD
ATOM     17  H12 MOL d           0.659  20.482  36.016  0.00  0.00     0.156 HD
ENDBRANCH  10  15
ENDBRANCH   5   6
BRANCH   4  18
ATOM     18  O2' MOL d           6.929  16.611  38.151  0.00  0.00    -0.388 OA
ATOM     19  H8  MOL d           7.350  15.855  37.759  0.00  0.00     0.210 HD
ENDBRANCH   4  18
BRANCH   1  20
ATOM     20  C5' MOL d           9.276  20.015  36.543  0.00  0.00     0.198 C 
BRANCH  20  21
ATOM     21  O5' MOL d           8.622  20.519  35.375  0.00  0.00    -0.398 OA
ATOM     22  H1  MOL d           7.827  20.973  35.630  0.00  0.00     0.209 HD
ENDBRANCH  20  21
ENDBRANCH   1  20
BRANCH   3  23
ATOM     23  O3' MOL d           8.756  16.771  36.372  0.00  0.00    -0.390 OA
ATOM     24  H6  MOL d           8.911  16.426  37.243  0.00  0.00     0.210 HD
ENDBRANCH   3  23
TORSDOF 6
