REMARK  6 active torsions:
REMARK  status: ('A' for Active; 'I' for Inactive)
REMARK    1  A    between atoms: C16_2  and  C15_4 
REMARK    2  A    between atoms: C11_9  and  C10_10 
REMARK       I    between atoms: C10_10  and  N_12 
REMARK    3  A    between atoms: N_12  and  C9_13 
REMARK    4  A    between atoms: C5_15  and  C6_16 
REMARK    5  A    between atoms: C2_21  and  O_22 
REMARK    6  A    between atoms: O_22  and  C1_23 
ROOT
ATOM      1  C10 UL4 d         -15.453  -3.444  -3.236  0.00  0.00     0.256 C 
ATOM      2  O2  UL4 d         -14.761  -4.420  -3.043  0.00  0.00    -0.267 OA
ATOM      3  N   UL4 d         -15.250  -2.265  -2.636  0.00  0.00    -0.320 N 
ATOM      4  H5  UL4 d         -15.871  -1.508  -2.839  0.00  0.00     0.169 HD
ENDROOT
BRANCH   3   5
ATOM      5  C9  UL4 d         -14.230  -2.060  -1.760  0.00  0.00     0.069 A 
ATOM      6  C8  UL4 d         -13.202  -1.173  -2.047  0.00  0.00     0.047 A 
ATOM      7  C5  UL4 d         -12.179  -0.970  -1.122  0.00  0.00     0.012 A 
ATOM      8  C4  UL4 d         -12.169  -1.632   0.098  0.00  0.00     0.018 A 
ATOM      9  C3  UL4 d         -13.210  -2.512   0.384  0.00  0.00     0.040 A 
ATOM     10  C2  UL4 d         -14.226  -2.706  -0.538  0.00  0.00     0.095 A 
BRANCH   7  11
ATOM     11  C6  UL4 d         -11.070  -0.040  -1.445  0.00  0.00     0.155 C 
ATOM     12  O1  UL4 d         -10.206   0.149  -0.601  0.00  0.00    -0.293 OA
ATOM     13  C7  UL4 d         -11.031   0.588  -2.803  0.00  0.00     0.096 C 
ENDBRANCH   7  11
BRANCH  10  14
ATOM     14  O   UL4 d         -15.242  -3.570  -0.266  0.00  0.00    -0.349 OA
BRANCH  14  15
ATOM     15  C1  UL4 d         -15.158  -4.461   0.843  0.00  0.00     0.171 C 
ATOM     16  C   UL4 d         -16.407  -5.307   0.798  0.00  0.00     0.034 C 
ENDBRANCH  14  15
ENDBRANCH  10  14
ENDBRANCH   3   5
BRANCH   1  17
ATOM     17  C11 UL4 d         -16.576  -3.596  -4.213  0.00  0.00     0.033 A 
ATOM     18  C12 UL4 d         -17.600  -2.662  -4.288  0.00  0.00     0.017 A 
ATOM     19  C13 UL4 d         -18.625  -2.851  -5.210  0.00  0.00     0.002 A 
ATOM     20  C14 UL4 d         -18.634  -3.956  -6.053  0.00  0.00     0.018 A 
ATOM     21  C15 UL4 d         -17.603  -4.885  -5.963  0.00  0.00     0.041 A 
ATOM     22  C17 UL4 d         -16.571  -4.705  -5.049  0.00  0.00     0.035 A 
BRANCH  21  23
ATOM     23  C16 UL4 d         -17.595  -6.083  -6.862  0.00  0.00     0.209 C 
ATOM     24  O4  UL4 d         -16.623  -6.818  -6.904  0.00  0.00    -0.644 OA
ATOM     25  O3  UL4 d         -18.647  -6.337  -7.631  0.00  0.00    -0.644 OA
ENDBRANCH  21  23
ENDBRANCH   1  17
TORSDOF 6
