REMARK  3 active torsions:
REMARK  status: ('A' for Active; 'I' for Inactive)
REMARK       I    between atoms: C1_1  and  N9_10 
REMARK       I    between atoms: C1_1  and  N2_3 
REMARK    1  A    between atoms: N2_3  and  C3_4 
REMARK    2  A    between atoms: N9_10  and  C10_11 
REMARK    3  A    between atoms: C13_13  and  C16_20 
ROOT
ATOM      1  C1  BMU d          33.335  33.731  14.743  0.00  0.00     0.326 C 
ATOM      2  O1  BMU d          32.601  34.546  15.333  0.00  0.00    -0.247 OA
ATOM      3  N2  BMU d          34.571  33.506  15.183  0.00  0.00    -0.309 N 
ATOM      4  N9  BMU d          32.913  33.039  13.681  0.00  0.00    -0.293 N 
ATOM      5  H1  BMU d          35.110  32.813  14.704  0.00  0.00     0.170 HD
ATOM      6  H6  BMU d          33.546  32.375  13.282  0.00  0.00     0.172 HD
ENDROOT
BRANCH   4   7
ATOM      7  C10 BMU d          31.714  33.164  13.111  0.00  0.00     0.129 A 
ATOM      8  N11 BMU d          31.016  32.148  12.635  0.00  0.00    -0.258 N 
ATOM      9  N12 BMU d          29.845  32.630  12.043  0.00  0.00    -0.175 NA
ATOM     10  C15 BMU d          31.402  30.733  12.723  0.00  0.00     0.182 C 
ATOM     11  C13 BMU d          29.877  33.953  12.198  0.00  0.00     0.066 A 
ATOM     12  C14 BMU d          31.035  34.317  12.860  0.00  0.00     0.080 A 
BRANCH  11  13
ATOM     13  C16 BMU d          28.878  34.807  11.778  0.00  0.00    -0.005 C 
ATOM     14  C17 BMU d          28.336  35.629  12.967  0.00  0.00     0.021 C 
ATOM     15  C18 BMU d          27.711  33.985  11.174  0.00  0.00     0.021 C 
ATOM     16  C19 BMU d          29.405  35.760  10.690  0.00  0.00     0.021 C 
ENDBRANCH  11  13
ENDBRANCH   4   7
BRANCH   3  17
ATOM     17  C3  BMU d          35.148  34.129  16.209  0.00  0.00     0.036 A 
ATOM     18  C8  BMU d          34.490  34.392  17.361  0.00  0.00     0.031 A 
ATOM     19  C7  BMU d          35.170  35.023  18.404  0.00  0.00     0.026 A 
ATOM     20  C6  BMU d          36.476  35.363  18.245  0.00  0.00     0.034 A 
ATOM     21  C5  BMU d          37.114  35.104  17.108  0.00  0.00     0.026 A 
ATOM     22 CL6  BMU d          37.357  36.133  19.534  0.00  0.00    -0.084 Cl
ATOM     23  C4  BMU d          36.448  34.479  16.074  0.00  0.00     0.031 A 
ENDBRANCH   3  17
TORSDOF 3
