REMARK  9 active torsions:
REMARK  status: ('A' for Active; 'I' for Inactive)
REMARK    1  A    between atoms: C3_7  and  O1_3 
REMARK    2  A    between atoms: C4_10  and  C7_16 
REMARK    3  A    between atoms: C19_28  and  N4_11 
REMARK       I    between atoms: C21_30  and  N5_14 
REMARK    4  A    between atoms: N5_14  and  C22_31 
REMARK    5  A    between atoms: C17_26  and  C8_17 
REMARK    6  A    between atoms: C9_18  and  C11_20 
REMARK    7  A    between atoms: C20_29  and  C19_28 
REMARK    8  A    between atoms: C20_29  and  C21_30 
REMARK    9  A    between atoms: C25_34  and  C28_37 
ROOT
ATOM      1  N2  JZG d          31.702   2.969  -2.117  0.00  0.00    -0.130 NA
ATOM      2  N3  JZG d          32.338   3.319  -3.266  0.00  0.00    -0.066 NA
ATOM      3  N4  JZG d          31.853   4.373  -3.957  0.00  0.00    -0.260 N 
ATOM      4  C17 JZG d          30.726   3.884  -2.075  0.00  0.00     0.111 A 
ATOM      5  C18 JZG d          30.821   4.730  -3.188  0.00  0.00     0.148 A 
ENDROOT
BRANCH   4   6
ATOM      6  C8  JZG d          29.777   4.007  -1.115  0.00  0.00     0.036 A 
ATOM      7  C6  JZG d          28.430   3.551  -1.227  0.00  0.00     0.007 A 
ATOM      8  C1  JZG d          27.769   3.887  -0.011  0.00  0.00     0.048 A 
ATOM      9  C5  JZG d          27.687   2.879  -2.263  0.00  0.00     0.036 A 
ATOM     10  N1  JZG d          28.699   4.512   0.808  0.00  0.00    -0.349 N 
ATOM     11  C2  JZG d          26.393   3.586   0.217  0.00  0.00     0.068 A 
ATOM     12  C9  JZG d          29.930   4.596   0.153  0.00  0.00     0.058 A 
ATOM     13  C10 JZG d          28.405   5.016   2.180  0.00  0.00     0.156 C 
ATOM     14  C3  JZG d          25.665   2.924  -0.819  0.00  0.00     0.085 A 
ATOM     15  C4  JZG d          26.306   2.560  -2.061  0.00  0.00     0.074 A 
BRANCH  12  16
ATOM     16  C11 JZG d          31.064   5.156   0.661  0.00  0.00    -0.008 A 
ATOM     17  C12 JZG d          31.384   6.521   0.376  0.00  0.00     0.014 A 
ATOM     18  C13 JZG d          32.568   7.101   0.908  0.00  0.00     0.001 A 
ATOM     19  C14 JZG d          33.435   6.323   1.728  0.00  0.00     0.000 A 
ATOM     20  C15 JZG d          33.119   4.964   2.015  0.00  0.00     0.001 A 
ATOM     21  C16 JZG d          31.939   4.381   1.483  0.00  0.00     0.014 A 
ENDBRANCH  12  16
BRANCH  14  22
ATOM     22  O1  JZG d          24.359   2.643  -0.597  0.00  0.00    -0.360 OA
ATOM     23  H1  JZG d          23.996   2.206  -1.359  0.00  0.00     0.217 HD
ENDBRANCH  14  22
BRANCH  15  24
ATOM     24  C7  JZG d          25.626   1.908  -3.062  0.00  0.00     0.212 C 
ATOM     25  O2  JZG d          24.649   2.384  -3.575  0.00  0.00    -0.644 OA
ATOM     26  O3  JZG d          26.057   0.718  -3.481  0.00  0.00    -0.644 OA
ENDBRANCH  15  24
ENDBRANCH   4   6
BRANCH   3  27
ATOM     27  C19 JZG d          32.323   4.981  -5.218  0.00  0.00     0.161 C 
BRANCH  27  28
ATOM     28  C20 JZG d          32.652   6.455  -4.972  0.00  0.00     0.125 C 
BRANCH  28  29
ATOM     29  C21 JZG d          34.145   6.691  -5.070  0.00  0.00     0.223 C 
ATOM     30  O4  JZG d          34.640   6.873  -6.151  0.00  0.00    -0.273 OA
ATOM     31  N5  JZG d          34.945   6.720  -3.934  0.00  0.00    -0.327 N 
ATOM     32  H4  JZG d          35.342   7.591  -3.645  0.00  0.00     0.169 HD
BRANCH  31  33
ATOM     33  C22 JZG d          35.207   5.598  -3.199  0.00  0.00     0.034 A 
ATOM     34  C23 JZG d          34.684   5.485  -1.880  0.00  0.00     0.030 A 
ATOM     35  C24 JZG d          34.945   4.323  -1.104  0.00  0.00     0.014 A 
ATOM     36  C25 JZG d          35.733   3.263  -1.642  0.00  0.00    -0.026 A 
ATOM     37  C26 JZG d          36.262   3.376  -2.967  0.00  0.00     0.014 A 
ATOM     38  C27 JZG d          36.001   4.537  -3.741  0.00  0.00     0.030 A 
BRANCH  36  39
ATOM     39  C28 JZG d          35.973   2.160  -0.901  0.00  0.00    -0.026 A 
ATOM     40  C29 JZG d          36.956   2.184   0.137  0.00  0.00     0.012 A 
ATOM     41  C30 JZG d          37.198   1.014   0.911  0.00  0.00     0.001 A 
ATOM     42  C31 JZG d          36.462  -0.179   0.653  0.00  0.00     0.000 A 
ATOM     43  C32 JZG d          35.484  -0.204  -0.377  0.00  0.00     0.001 A 
ATOM     44  C33 JZG d          35.236   0.957  -1.154  0.00  0.00     0.012 A 
ENDBRANCH  36  39
ENDBRANCH  31  33
ENDBRANCH  28  29
ENDBRANCH  27  28
ENDBRANCH   3  27
TORSDOF 9
