REMARK  1 active torsions:
REMARK  status: ('A' for Active; 'I' for Inactive)
REMARK    1  A    between atoms: S2_2  and  C3_3 
ROOT
ATOM      1  O1  VSO d          84.830  -7.410   8.216  0.00  0.00    -0.592 OA
ATOM      2  S2  VSO d          85.746  -6.303   8.272  0.00  0.00     0.126 S 
ATOM      3  O8  VSO d          86.795  -6.456   9.219  0.00  0.00    -0.592 OA
ATOM      4  O9  VSO d          85.087  -5.009   8.310  0.00  0.00    -0.592 OA
ENDROOT
BRANCH   2   5
ATOM      5  C3  VSO d          86.570  -6.372   6.751  0.00  0.00     0.123 C 
ATOM      6  C4  VSO d          87.530  -5.488   6.442  0.00  0.00     0.026 C 
ENDBRANCH   2   5
TORSDOF 1
