REMARK  13 active torsions:
REMARK  status: ('A' for Active; 'I' for Inactive)
REMARK    1  A    between atoms: C_2  and  C2_4 
REMARK       I    between atoms: N_13  and  C_2 
REMARK    2  A    between atoms: CA_14  and  N_13 
REMARK    3  A    between atoms: C_15  and  CA_14 
REMARK    4  A    between atoms: CA_14  and  CB_17 
REMARK       I    between atoms: N_24  and  C_15 
REMARK    5  A    between atoms: CB_17  and  CG_18 
REMARK       I    between atoms: CG_18  and  ND2_20 
REMARK    6  A    between atoms: C_21  and  O_22 
REMARK    7  A    between atoms: CA_23  and  C_21 
REMARK    8  A    between atoms: CA_23  and  N_24 
REMARK    9  A    between atoms: CA_23  and  CB_25 
REMARK   10  A    between atoms: CB_25  and  CG_26 
REMARK   11  A    between atoms: CM_33  and  N1_32 
REMARK   12  A    between atoms: C2_34  and  C_35 
REMARK       I    between atoms: C_35  and  N_45 
REMARK   13  A    between atoms: N_45  and  C_46 
ROOT
ATOM      1  CA  MOL d          20.183  -1.679  15.203  0.00  0.00     0.119 C 
ENDROOT
BRANCH   1   2
ATOM      2  C   MOL d          19.796  -0.262  14.882  0.00  0.00     0.167 C 
ATOM      3  CM  MOL d          20.066   0.671  15.819  0.00  0.00     0.269 C 
BRANCH   2   4
ATOM      4  O   MOL d          19.975   0.113  13.610  0.00  0.00    -0.392 OA
ATOM      5  H14 MOL d          19.704   1.018  13.507  0.00  0.00     0.210 HD
ENDBRANCH   2   4
BRANCH   3   6
ATOM      6  N1  MOL d          19.301   0.758  17.012  0.00  0.00    -0.055 N 
ATOM      7  C2  MOL d          20.068   1.442  18.062  0.00  0.00     0.279 C 
ATOM      8  C3  MOL d          19.285   1.531  19.371  0.00  0.00     0.048 C 
ATOM      9  C3A MOL d          17.975   2.290  19.209  0.00  0.00    -0.006 C 
ATOM     10  C4  MOL d          17.159   2.274  20.501  0.00  0.00     0.005 C 
ATOM     11  C7A MOL d          17.221   1.714  18.018  0.00  0.00     0.016 C 
ATOM     12  C5  MOL d          16.476   0.942  20.785  0.00  0.00     0.000 C 
ATOM     13  C6  MOL d          15.661   0.500  19.578  0.00  0.00     0.000 C 
ATOM     14  C7  MOL d          16.584   0.368  18.372  0.00  0.00     0.007 C 
ATOM     15  C8  MOL d          18.079   1.541  16.769  0.00  0.00     0.241 C 
ATOM     16  H24 MOL d          19.056  -0.170  17.319  0.00  0.00     0.281 HD
BRANCH   7  17
ATOM     17  C   MOL d          21.369   0.755  18.377  0.00  0.00     0.249 C 
ATOM     18  O   MOL d          21.412  -0.462  18.507  0.00  0.00    -0.271 OA
ATOM     19  N   MOL d          22.405   1.587  18.542  0.00  0.00    -0.351 N 
ATOM     20  H42 MOL d          22.227   2.560  18.396  0.00  0.00     0.163 HD
BRANCH  19  21
ATOM     21  C   MOL d          23.760   1.222  18.911  0.00  0.00     0.022 C 
ATOM     22  C1  MOL d          24.614   2.491  19.012  0.00  0.00     0.037 C 
ATOM     23  C2  MOL d          23.756   0.516  20.262  0.00  0.00     0.037 C 
ATOM     24  C3  MOL d          24.310   0.313  17.810  0.00  0.00     0.037 C 
ENDBRANCH  19  21
ENDBRANCH   7  17
ENDBRANCH   3   6
ENDBRANCH   1   2
BRANCH   1  25
ATOM     25  N   MOL d          19.330  -2.665  14.561  0.00  0.00    -0.352 N 
ATOM     26  C   MOL d          18.610  -3.583  15.221  0.00  0.00     0.241 C 
ATOM     27  O   MOL d          18.582  -3.706  16.427  0.00  0.00    -0.271 OA
ATOM     28  H16 MOL d          19.277  -2.658  13.562  0.00  0.00     0.163 HD
BRANCH  26  29
ATOM     29  CA  MOL d          17.770  -4.479  14.354  0.00  0.00     0.185 C 
BRANCH  29  30
ATOM     30  N   MOL d          18.541  -5.575  13.843  0.00  0.00    -0.342 N 
ATOM     31  C   MOL d          19.111  -6.271  12.863  0.00  0.00     0.271 C 
ATOM     32  O   MOL d          18.870  -5.758  11.780  0.00  0.00    -0.266 OA
ATOM     33  H7  MOL d          18.776  -6.095  14.664  0.00  0.00     0.163 HD
BRANCH  31  34
ATOM     34  C2  MOL d          19.934  -7.515  12.970  0.00  0.00     0.125 A 
ATOM     35  N1  MOL d          20.167  -8.098  14.168  0.00  0.00    -0.243 NA
ATOM     36  C8A MOL d          20.914  -9.224  14.256  0.00  0.00     0.068 A 
ATOM     37  C4A MOL d          21.446  -9.806  13.113  0.00  0.00    -0.007 A 
ATOM     38  C8  MOL d          21.166  -9.834  15.480  0.00  0.00     0.032 A 
ATOM     39  C4  MOL d          21.208  -9.221  11.883  0.00  0.00     0.016 A 
ATOM     40  C5  MOL d          22.211 -10.966  13.175  0.00  0.00     0.014 A 
ATOM     41  C3  MOL d          20.448  -8.064  11.805  0.00  0.00     0.038 A 
ATOM     42  C6  MOL d          22.458 -11.570  14.398  0.00  0.00     0.001 A 
ATOM     43  C7  MOL d          21.933 -10.994  15.547  0.00  0.00     0.002 A 
ENDBRANCH  31  34
ENDBRANCH  29  30
BRANCH  29  44
ATOM     44  CB  MOL d          16.434  -4.906  14.925  0.00  0.00     0.137 C 
BRANCH  44  45
ATOM     45  CG  MOL d          15.712  -5.566  13.776  0.00  0.00     0.217 C 
ATOM     46  OD1 MOL d          15.351  -4.903  12.821  0.00  0.00    -0.274 OA
ATOM     47  ND2 MOL d          15.522  -6.882  13.857  0.00  0.00    -0.370 N 
ATOM     48  H11 MOL d          15.049  -7.365  13.120  0.00  0.00     0.159 HD
ATOM     49  H12 MOL d          15.853  -7.387  14.654  0.00  0.00     0.159 HD
ENDBRANCH  44  45
ENDBRANCH  29  44
ENDBRANCH  26  29
ENDBRANCH   1  25
BRANCH   1  50
ATOM     50  CB  MOL d          21.641  -1.864  14.787  0.00  0.00     0.066 C 
BRANCH  50  51
ATOM     51  CG  MOL d          22.101  -3.300  14.871  0.00  0.00    -0.056 A 
ATOM     52  CD1 MOL d          22.490  -3.838  16.092  0.00  0.00     0.007 A 
ATOM     53  CE1 MOL d          22.910  -5.164  16.166  0.00  0.00     0.001 A 
ATOM     54  CZ  MOL d          22.949  -5.936  15.013  0.00  0.00     0.000 A 
ATOM     55  CE2 MOL d          22.568  -5.393  13.792  0.00  0.00     0.001 A 
ATOM     56  CD2 MOL d          22.145  -4.069  13.714  0.00  0.00     0.007 A 
ENDBRANCH  50  51
ENDBRANCH   1  50
TORSDOF 13
