REMARK  22 active torsions:
REMARK  status: ('A' for Active; 'I' for Inactive)
REMARK    1  A    between atoms: N4B_18  and  C1A_1 
REMARK    2  A    between atoms: C2A_2  and  O2A_8 
REMARK    3  A    between atoms: C3A_3  and  O3A_9 
REMARK    4  A    between atoms: C4A_4  and  O4A_10 
REMARK    5  A    between atoms: C5A_5  and  C6A_6 
REMARK    6  A    between atoms: C6A_6  and  O6A_11 
REMARK    7  A    between atoms: O4C_30  and  C1B_12 
REMARK    8  A    between atoms: C2B_13  and  O2B_19 
REMARK    9  A    between atoms: C3B_14  and  O3B_20 
REMARK   10  A    between atoms: C4B_15  and  N4B_18 
REMARK   11  A    between atoms: O4D_42  and  C1C_22 
REMARK   12  A    between atoms: C2C_23  and  O2C_28 
REMARK   13  A    between atoms: C3C_24  and  O3C_29 
REMARK   14  A    between atoms: C4C_25  and  O4C_30 
REMARK   15  A    between atoms: C5C_26  and  C6C_27 
REMARK   16  A    between atoms: C6C_27  and  O6C_32 
REMARK   17  A    between atoms: C1D_33  and  O1D_39 
REMARK   18  A    between atoms: C2D_34  and  O2D_40 
REMARK   19  A    between atoms: C3D_35  and  O3D_41 
REMARK   20  A    between atoms: C4D_36  and  O4D_42 
REMARK   21  A    between atoms: C5D_37  and  C6D_38 
REMARK   22  A    between atoms: C6D_38  and  O6D_44 
ROOT
ATOM      1  O4C ACR d          28.427  56.875  36.053  0.00  0.00    -0.348 OA
ENDROOT
BRANCH   1   2
ATOM      2  C1B ACR d          29.021  56.295  37.225  0.00  0.00     0.292 C 
ATOM      3  C2B ACR d          30.555  56.275  37.142  0.00  0.00     0.204 C 
ATOM      4  C3B ACR d          31.026  55.262  36.078  0.00  0.00     0.184 C 
ATOM      5  C4B ACR d          30.481  53.854  36.480  0.00  0.00     0.246 C 
ATOM      6  C5B ACR d          28.912  53.946  36.487  0.00  0.00     0.154 C 
ATOM      7  C6B ACR d          28.246  52.613  36.857  0.00  0.00     0.042 C 
ATOM      8  O5B ACR d          28.478  54.951  37.468  0.00  0.00    -0.351 OA
BRANCH   3   9
ATOM      9  O2B ACR d          31.014  57.603  36.858  0.00  0.00    -0.388 OA
ATOM     10  H22 ACR d          30.677  57.880  36.014  0.00  0.00     0.210 HD
ENDBRANCH   3   9
BRANCH   4  11
ATOM     11  O3B ACR d          32.455  55.269  36.038  0.00  0.00    -0.391 OA
ATOM     12  H23 ACR d          32.760  56.135  35.792  0.00  0.00     0.210 HD
ENDBRANCH   4  11
BRANCH   5  13
ATOM     13  N4B ACR d          30.942  52.835  35.519  0.00  0.00    -0.056 N 
ATOM     14  H20 ACR d          30.132  52.363  35.148  0.00  0.00     0.278 HD
ATOM     15  H21 ACR d          31.429  53.305  34.772  0.00  0.00     0.278 HD
BRANCH  13  16
ATOM     16  C1A ACR d          31.866  51.796  36.102  0.00  0.00     0.240 C 
ATOM     17  C2A ACR d          32.329  50.695  35.056  0.00  0.00     0.184 C 
ATOM     18  C3A ACR d          31.234  49.643  34.682  0.00  0.00     0.182 C 
ATOM     19  C4A ACR d          30.763  48.851  35.986  0.00  0.00     0.180 C 
ATOM     20  C5A ACR d          30.806  49.676  37.312  0.00  0.00    -0.027 C 
ATOM     21  C7A ACR d          31.295  51.012  37.346  0.00  0.00     0.016 C 
BRANCH  17  22
ATOM     22  O2A ACR d          32.823  51.442  33.964  0.00  0.00    -0.390 OA
ATOM     23  H8  ACR d          33.212  50.852  33.328  0.00  0.00     0.210 HD
ENDBRANCH  17  22
BRANCH  18  24
ATOM     24  O3A ACR d          31.806  48.800  33.736  0.00  0.00    -0.390 OA
ATOM     25  H9  ACR d          32.071  49.309  32.979  0.00  0.00     0.210 HD
ENDBRANCH  18  24
BRANCH  19  26
ATOM     26  O4A ACR d          29.494  48.322  35.613  0.00  0.00    -0.388 OA
ATOM     27  H10 ACR d          29.580  47.841  34.798  0.00  0.00     0.210 HD
ENDBRANCH  19  26
BRANCH  20  28
ATOM     28  C6A ACR d          30.344  48.985  38.569  0.00  0.00     0.201 C 
BRANCH  28  29
ATOM     29  O6A ACR d          31.198  48.179  39.381  0.00  0.00    -0.397 OA
ATOM     30  H11 ACR d          30.705  47.842  40.120  0.00  0.00     0.209 HD
ENDBRANCH  28  29
ENDBRANCH  20  28
ENDBRANCH  13  16
ENDBRANCH   5  13
ENDBRANCH   1   2
BRANCH   1  31
ATOM     31  C4C ACR d          27.616  58.015  36.396  0.00  0.00     0.187 C 
ATOM     32  C3C ACR d          27.964  59.170  35.441  0.00  0.00     0.183 C 
ATOM     33  C2C ACR d          27.116  60.399  35.802  0.00  0.00     0.204 C 
ATOM     34  C1C ACR d          25.609  60.058  35.711  0.00  0.00     0.292 C 
ATOM     35  O5C ACR d          25.286  58.900  36.565  0.00  0.00    -0.348 OA
ATOM     36  C5C ACR d          26.085  57.692  36.229  0.00  0.00     0.180 C 
BRANCH  32  37
ATOM     37  O3C ACR d          29.352  59.503  35.565  0.00  0.00    -0.390 OA
ATOM     38  H32 ACR d          29.880  58.744  35.345  0.00  0.00     0.210 HD
ENDBRANCH  32  37
BRANCH  33  39
ATOM     39  O2C ACR d          27.409  61.499  34.919  0.00  0.00    -0.388 OA
ATOM     40  H31 ACR d          28.328  61.727  34.994  0.00  0.00     0.210 HD
ENDBRANCH  33  39
BRANCH  34  41
ATOM     41  O4D ACR d          25.144  59.841  34.351  0.00  0.00    -0.348 OA
BRANCH  41  42
ATOM     42  C4D ACR d          23.777  60.320  34.185  0.00  0.00     0.187 C 
ATOM     43  C3D ACR d          23.782  61.493  33.191  0.00  0.00     0.183 C 
ATOM     44  C2D ACR d          22.350  62.035  33.019  0.00  0.00     0.204 C 
ATOM     45  C1D ACR d          21.396  60.904  32.512  0.00  0.00     0.288 C 
ATOM     46  O5D ACR d          21.436  59.765  33.463  0.00  0.00    -0.349 OA
ATOM     47  C5D ACR d          22.802  59.203  33.658  0.00  0.00     0.180 C 
BRANCH  43  48
ATOM     48  O3D ACR d          24.651  62.534  33.666  0.00  0.00    -0.390 OA
ATOM     49  H43 ACR d          25.533  62.193  33.753  0.00  0.00     0.210 HD
ENDBRANCH  43  48
BRANCH  44  50
ATOM     50  O2D ACR d          22.354  63.137  32.090  0.00  0.00    -0.388 OA
ATOM     51  H42 ACR d          22.914  63.828  32.423  0.00  0.00     0.210 HD
ENDBRANCH  44  50
BRANCH  45  52
ATOM     52  O1D ACR d          21.771  60.462  31.204  0.00  0.00    -0.369 OA
ATOM     53  H41 ACR d          21.743  61.197  30.602  0.00  0.00     0.212 HD
ENDBRANCH  45  52
BRANCH  47  54
ATOM     54  C6D ACR d          22.696  58.034  34.660  0.00  0.00     0.198 C 
BRANCH  54  55
ATOM     55  O6D ACR d          22.077  58.458  35.883  0.00  0.00    -0.398 OA
ATOM     56  H44 ACR d          21.203  58.782  35.699  0.00  0.00     0.209 HD
ENDBRANCH  54  55
ENDBRANCH  47  54
ENDBRANCH  41  42
ENDBRANCH  34  41
BRANCH  36  57
ATOM     57  C6C ACR d          25.635  56.544  37.152  0.00  0.00     0.198 C 
BRANCH  57  58
ATOM     58  O6C ACR d          25.861  56.894  38.525  0.00  0.00    -0.398 OA
ATOM     59  H33 ACR d          25.366  57.676  38.737  0.00  0.00     0.209 HD
ENDBRANCH  57  58
ENDBRANCH  36  57
ENDBRANCH   1  31
TORSDOF 22
