REMARK  12 active torsions:
REMARK  status: ('A' for Active; 'I' for Inactive)
REMARK    1  A    between atoms: CA_4  and  C_1 
REMARK    2  A    between atoms: C_1  and  CAY_24 
REMARK    3  A    between atoms: N_2  and  CA_4 
REMARK       I    between atoms: CAT_21  and  N_2 
REMARK    4  A    between atoms: CA_4  and  CB_5 
REMARK    5  A    between atoms: NBA_25  and  OAH_10 
REMARK    6  A    between atoms: NBA_25  and  CAI_11 
REMARK    7  A    between atoms: CAN_16  and  CAM_15 
REMARK    8  A    between atoms: CAO_17  and  CAN_16 
REMARK    9  A    between atoms: CAY_24  and  CAO_17 
REMARK   10  A    between atoms: CAY_24  and  CAP_18 
REMARK   11  A    between atoms: CAP_18  and  NBA_25 
REMARK       I    between atoms: NAR_20  and  CAT_21 
REMARK   12  A    between atoms: NAR_20  and  CAW_23 
ROOT
ATOM      1  CA  UHF d         -17.534 145.422  46.094  0.00  0.00     0.159 C 
ENDROOT
BRANCH   1   2
ATOM      2  C   UHF d         -16.958 144.767  44.829  0.00  0.00     0.155 C 
ATOM      3  O   UHF d         -15.815 144.966  44.447  0.00  0.00    -0.295 OA
BRANCH   2   4
ATOM      4  CAY UHF d         -17.903 143.878  44.042  0.00  0.00     0.078 C 
BRANCH   4   5
ATOM      5  CAO UHF d         -17.470 142.408  44.117  0.00  0.00     0.014 C 
BRANCH   5   6
ATOM      6  CAN UHF d         -17.046 142.055  45.538  0.00  0.00     0.000 C 
BRANCH   6   7
ATOM      7  CAM UHF d         -17.130 140.557  45.730  0.00  0.00    -0.005 C 
ATOM      8  CAA UHF d         -16.823 140.256  47.178  0.00  0.00     0.005 C 
ENDBRANCH   6   7
ENDBRANCH   5   6
ENDBRANCH   4   5
BRANCH   4   9
ATOM      9  CAP UHF d         -17.900 144.332  42.590  0.00  0.00     0.170 C 
BRANCH   9  10
ATOM     10  NBA UHF d         -18.638 143.355  41.813  0.00  0.00    -0.235 N 
BRANCH  10  11
ATOM     11  OAH UHF d         -19.925 143.613  41.629  0.00  0.00    -0.285 OA
ATOM     12  H10 UHF d         -20.144 144.439  42.045  0.00  0.00     0.245 HD
ENDBRANCH  10  11
BRANCH  10  13
ATOM     13  CAI UHF d         -18.063 142.238  41.322  0.00  0.00     0.376 C 
ATOM     14  OAE UHF d         -18.589 141.352  40.666  0.00  0.00    -0.281 OA
ENDBRANCH  10  13
ENDBRANCH   9  10
ENDBRANCH   4   9
ENDBRANCH   2   4
ENDBRANCH   1   2
BRANCH   1  15
ATOM     15  N   UHF d         -16.767 146.621  46.412  0.00  0.00    -0.331 N 
ATOM     16  CAT UHF d         -15.568 146.574  46.973  0.00  0.00     0.322 C 
ATOM     17  OAF UHF d         -15.059 145.510  47.273  0.00  0.00    -0.247 OA
ATOM     18  NAR UHF d         -14.955 147.729  47.196  0.00  0.00    -0.293 N 
ATOM     19  H23 UHF d         -15.396 148.597  46.968  0.00  0.00     0.172 HD
ATOM     20  H1  UHF d         -17.162 147.514  46.198  0.00  0.00     0.165 HD
BRANCH  18  21
ATOM     21  CAW UHF d         -13.755 147.701  47.723  0.00  0.00     0.131 A 
ATOM     22  CAK UHF d         -13.453 146.884  48.793  0.00  0.00     0.051 A 
ATOM     23  CAJ UHF d         -12.169 146.886  49.311  0.00  0.00     0.012 A 
ATOM     24  CAV UHF d         -11.201 147.704  48.752  0.00  0.00    -0.044 A 
ATOM     25  CAB UHF d          -9.910 147.724  49.251  0.00  0.00     0.049 C 
ATOM     26  CAL UHF d         -11.530 148.508  47.682  0.00  0.00     0.125 A 
ATOM     27  NAQ UHF d         -12.825 148.483  47.184  0.00  0.00    -0.243 NA
ENDBRANCH  18  21
ENDBRANCH   1  15
BRANCH   1  28
ATOM     28  CB  UHF d         -18.964 145.855  45.832  0.00  0.00     0.007 C 
ATOM     29  CG1 UHF d         -18.933 147.156  45.041  0.00  0.00     0.012 C 
ATOM     30  CG2 UHF d         -19.649 146.109  47.163  0.00  0.00     0.012 C 
ENDBRANCH   1  28
TORSDOF 12
