3u7n_ligand

Created by X-TOOL on Fri Sep 26 17:34:55 2014
 57 57  0  0  0  0  0  0  0  0999 V2000
  -16.9580  144.7670   44.8290  C 0  0  0  1  0  3
  -16.7670  146.6210   46.4120  N 0  0  0  2  0  3
  -15.8150  144.9660   44.4470  O 0  0  0  1  0  1
  -17.5340  145.4220   46.0940  C 0  0  0  2  0  4
  -18.9640  145.8550   45.8320  C 0  0  0  2  0  4
  -16.8230  140.2560   47.1780  C 0  0  0  4  0  4
   -9.9100  147.7240   49.2510  C 0  0  0  4  0  4
  -18.5890  141.3520   40.6660  O 0  0  0  1  0  1
  -15.0590  145.5100   47.2730  O 0  0  0  1  0  1
  -19.9250  143.6130   41.6290  O 0  0  0  2  0  2
  -18.0630  142.2380   41.3220  C 0  0  0  2  0  3
  -12.1690  146.8860   49.3110  C 0  0  0  2  0  3
  -13.4530  146.8840   48.7930  C 0  0  0  2  0  3
  -11.5300  148.5080   47.6820  C 0  0  0  2  0  3
  -17.1300  140.5570   45.7300  C 0  0  0  3  0  4
  -17.0460  142.0550   45.5380  C 0  0  0  3  0  4
  -17.4700  142.4080   44.1170  C 0  0  0  3  0  4
  -17.9000  144.3320   42.5900  C 0  0  0  3  0  4
  -12.8250  148.4830   47.1840  N 0  0  0  1  0  2
  -14.9550  147.7290   47.1960  N 0  0  0  2  0  3
  -15.5680  146.5740   46.9730  C 0  0  0  1  0  3
  -11.2010  147.7040   48.7520  C 0  0  0  1  0  3
  -13.7550  147.7010   47.7230  C 0  0  0  1  0  3
  -17.9030  143.8780   44.0420  C 0  0  0  2  0  4
  -18.6380  143.3550   41.8130  N 0  0  0  1  0  3
  -18.9330  147.1560   45.0410  C 0  0  0  4  0  4
  -19.6490  146.1090   47.1630  C 0  0  0  4  0  4
  -17.1621  147.5144   46.1979  H 0  0  0  1  0  1
  -17.4978  144.7117   46.9332  H 0  0  0  1  0  1
  -19.5019  145.0779   45.2691  H 0  0  0  1  0  1
  -16.8772  139.1703   47.3463  H 0  0  0  1  0  1
  -17.5564  140.7638   47.8216  H 0  0  0  1  0  1
  -15.8118  140.6146   47.4207  H 0  0  0  1  0  1
   -9.8330  147.0249   50.0968  H 0  0  0  1  0  1
   -9.6644  148.7405   49.5920  H 0  0  0  1  0  1
   -9.2067  147.4224   48.4608  H 0  0  0  1  0  1
  -20.1440  144.4386   42.0450  H 0  0  0  1  0  1
  -17.0028  142.1109   41.5361  H 0  0  0  1  0  1
  -11.9218  146.2487   50.1523  H 0  0  0  1  0  1
  -14.2151  146.2454   49.2248  H 0  0  0  1  0  1
  -10.7839  149.1540   47.2335  H 0  0  0  1  0  1
  -18.1420  140.2047   45.4815  H 0  0  0  1  0  1
  -16.3974  140.0555   45.0806  H 0  0  0  1  0  1
  -16.0115  142.3891   45.7059  H 0  0  0  1  0  1
  -17.7138  142.5549   46.2550  H 0  0  0  1  0  1
  -18.3119  141.7658   43.8191  H 0  0  0  1  0  1
  -16.6236  142.2434   43.4340  H 0  0  0  1  0  1
  -16.8656  144.3975   42.2216  H 0  0  0  1  0  1
  -18.3823  145.3170   42.5059  H 0  0  0  1  0  1
  -15.3961  148.5971   46.9684  H 0  0  0  1  0  1
  -18.9179  143.9743   44.4551  H 0  0  0  1  0  1
  -19.9624  147.4877   44.8403  H 0  0  0  1  0  1
  -18.4078  146.9935   44.0882  H 0  0  0  1  0  1
  -18.4065  147.9266   45.6231  H 0  0  0  1  0  1
  -19.6778  145.1757   47.7445  H 0  0  0  1  0  1
  -20.6755  146.4622   46.9856  H 0  0  0  1  0  1
  -19.0900  146.8729   47.7232  H 0  0  0  1  0  1
  1  3  2  0  0  2
  4  1  1  0  0  2
  1 24  1  0  0  2
  2  4  1  0  0  2
 21  2  1  0  0  2
  4  5  1  0  0  2
  5 26  1  0  0  2
  5 27  1  0  0  2
 15  6  1  0  0  2
 22  7  1  0  0  2
 11  8  2  0  0  2
 21  9  2  0  0  2
 25 10  1  0  0  2
 25 11  1  0  0  2
 13 12  4  0  0  1
 12 22  4  0  0  1
 23 13  4  0  0  1
 19 14  4  0  0  1
 14 22  4  0  0  1
 16 15  1  0  0  2
 17 16  1  0  0  2
 24 17  1  0  0  2
 24 18  1  0  0  2
 18 25  1  0  0  2
 23 19  4  0  0  1
 20 21  1  0  0  2
 20 23  1  0  0  2
  2 28  1  0  0  2
  4 29  1  0  0  2
  5 30  1  0  0  2
  6 31  1  0  0  2
  6 32  1  0  0  2
  6 33  1  0  0  2
  7 34  1  0  0  2
  7 35  1  0  0  2
  7 36  1  0  0  2
 10 37  1  0  0  2
 11 38  1  0  0  2
 12 39  1  0  0  2
 13 40  1  0  0  2
 14 41  1  0  0  2
 15 42  1  0  0  2
 15 43  1  0  0  2
 16 44  1  0  0  2
 16 45  1  0  0  2
 17 46  1  0  0  2
 17 47  1  0  0  2
 18 48  1  0  0  2
 18 49  1  0  0  2
 20 50  1  0  0  2
 24 51  1  0  0  2
 26 52  1  0  0  2
 26 53  1  0  0  2
 26 54  1  0  0  2
 27 55  1  0  0  2
 27 56  1  0  0  2
 27 57  1  0  0  2
M  END
> <MOLECULAR_FORMULA>
C19H30N4O4

> <MOLECULAR_WEIGHT>
378.2

> <NUM_HB_ATOMS>
7  

> <NUM_ROTOR>
9  

> <XLOGP2>
2.10 

$$$$
