REMARK  4 active torsions:
REMARK  status: ('A' for Active; 'I' for Inactive)
REMARK    1  A    between atoms: C1_1  and  C7_7 
REMARK    2  A    between atoms: C7_7  and  N1_8 
REMARK    3  A    between atoms: C8_12  and  C1'_13 
REMARK    4  A    between atoms: C6'_18  and  O6'_19 
ROOT
ATOM      1  C1  MOL d          44.075  -3.037  26.307  0.00  0.00     0.009 A 
ATOM      2  C2  MOL d          44.531  -1.703  26.361  0.00  0.00     0.017 A 
ATOM      3  C3  MOL d          44.453  -0.955  27.522  0.00  0.00     0.033 A 
ATOM      4  C4  MOL d          43.922  -1.551  28.616  0.00  0.00     0.062 A 
ATOM      5  C5  MOL d          43.464  -2.817  28.613  0.00  0.00     0.086 A 
ATOM      6  C6  MOL d          43.521  -3.606  27.464  0.00  0.00     0.049 A 
ATOM      7  N3  MOL d          43.736  -1.106  29.805  0.00  0.00    -0.337 N 
ATOM      8  N4  MOL d          42.994  -3.173  29.783  0.00  0.00    -0.227 NA
ATOM      9  C8  MOL d          43.202  -2.066  30.484  0.00  0.00     0.160 A 
ATOM     10  H8  MOL d          43.968  -0.164  30.151  0.00  0.00     0.167 HD
ENDROOT
BRANCH   9  11
ATOM     11  C1' MOL d          42.929  -1.929  31.837  0.00  0.00     0.135 A 
ATOM     12  N2' MOL d          42.689  -3.030  32.521  0.00  0.00    -0.254 NA
ATOM     13  C3' MOL d          42.426  -3.045  33.806  0.00  0.00     0.117 A 
ATOM     14  C4' MOL d          42.388  -1.853  34.510  0.00  0.00     0.022 A 
ATOM     15  C5' MOL d          42.637  -0.651  33.837  0.00  0.00     0.040 A 
ATOM     16  C6' MOL d          42.915  -0.671  32.472  0.00  0.00     0.098 A 
BRANCH  16  17
ATOM     17  O6' MOL d          43.160   0.519  31.786  0.00  0.00    -0.358 OA
ATOM     18  H12 MOL d          43.331   0.327  30.871  0.00  0.00     0.217 HD
ENDBRANCH  16  17
ENDBRANCH   9  11
BRANCH   1  19
ATOM     19  C7  MOL d          44.193  -3.766  25.109  0.00  0.00     0.102 C 
ATOM     20  N2  MOL d          44.581  -3.124  24.014  0.00  0.00    -0.385 N 
ATOM     21  H6  MOL d          44.786  -2.115  24.054  0.00  0.00     0.157 HD
ATOM     22  H7  MOL d          44.677  -3.634  23.125  0.00  0.00     0.157 HD
BRANCH  19  23
ATOM     23  N1  MOL d          43.918  -5.058  25.110  0.00  0.00    -0.385 N 
ATOM     24  H4  MOL d          44.001  -5.603  24.240  0.00  0.00     0.157 HD
ATOM     25  H5  MOL d          43.621  -5.521  25.981  0.00  0.00     0.157 HD
ENDBRANCH  19  23
ENDBRANCH   1  19
TORSDOF 4
