REMARK  6 active torsions:
REMARK  status: ('A' for Active; 'I' for Inactive)
REMARK    1  A    between atoms: C3_3  and  O1_28 
REMARK    2  A    between atoms: C17_17  and  C20_20 
REMARK    3  A    between atoms: C20_20  and  C22_22 
REMARK    4  A    between atoms: C22_22  and  C23_23 
REMARK    5  A    between atoms: C23_23  and  C24_24 
REMARK    6  A    between atoms: C24_24  and  C25_25 
ROOT
ATOM      1  C1  CLR d          57.740  36.054  33.427  0.00  0.00     0.016 C 
ATOM      2  C2  CLR d          57.782  36.153  34.956  0.00  0.00     0.033 C 
ATOM      3  C3  CLR d          56.376  36.020  35.547  0.00  0.00     0.122 C 
ATOM      4  C4  CLR d          55.796  34.654  35.173  0.00  0.00     0.066 C 
ATOM      5  C5  CLR d          55.860  34.441  33.658  0.00  0.00    -0.072 C 
ATOM      6  C6  CLR d          54.723  34.010  32.984  0.00  0.00    -0.023 C 
ATOM      7  C7  CLR d          54.606  33.801  31.615  0.00  0.00     0.033 C 
ATOM      8  C8  CLR d          55.962  33.742  30.902  0.00  0.00    -0.001 C 
ATOM      9  C9  CLR d          56.907  34.845  31.398  0.00  0.00     0.003 C 
ATOM     10  C10 CLR d          57.166  34.731  32.907  0.00  0.00    -0.017 C 
ATOM     11  C11 CLR d          58.200  34.891  30.572  0.00  0.00     0.007 C 
ATOM     12  C12 CLR d          57.948  34.952  29.059  0.00  0.00     0.010 C 
ATOM     13  C13 CLR d          57.063  33.785  28.611  0.00  0.00    -0.036 C 
ATOM     14  C14 CLR d          55.753  33.896  29.393  0.00  0.00    -0.001 C 
ATOM     15  C15 CLR d          54.893  32.832  28.713  0.00  0.00     0.006 C 
ATOM     16  C16 CLR d          55.127  33.190  27.242  0.00  0.00     0.006 C 
ATOM     17  C17 CLR d          56.472  33.926  27.204  0.00  0.00    -0.002 C 
ATOM     18  C18 CLR d          57.754  32.431  28.824  0.00  0.00     0.016 C 
ATOM     19  C19 CLR d          58.137  33.584  33.205  0.00  0.00     0.020 C 
ENDROOT
BRANCH  17  20
ATOM     20  C20 CLR d          57.359  33.452  26.046  0.00  0.00    -0.014 C 
ATOM     21  C21 CLR d          58.616  34.319  25.951  0.00  0.00     0.010 C 
BRANCH  20  22
ATOM     22  C22 CLR d          56.581  33.511  24.727  0.00  0.00     0.005 C 
BRANCH  22  23
ATOM     23  C23 CLR d          57.325  32.864  23.555  0.00  0.00     0.001 C 
BRANCH  23  24
ATOM     24  C24 CLR d          56.520  32.927  22.253  0.00  0.00     0.004 C 
BRANCH  24  25
ATOM     25  C25 CLR d          55.291  32.011  22.262  0.00  0.00    -0.023 C 
ATOM     26  C26 CLR d          54.648  31.921  20.876  0.00  0.00     0.009 C 
ATOM     27  C27 CLR d          54.258  32.462  23.297  0.00  0.00     0.009 C 
ENDBRANCH  24  25
ENDBRANCH  23  24
ENDBRANCH  22  23
ENDBRANCH  20  22
ENDBRANCH  17  20
BRANCH   3  28
ATOM     28  O1  CLR d          56.438  36.137  36.971  0.00  0.00    -0.395 OA
ATOM     29  H46 CLR d          56.798  36.985  37.203  0.00  0.00     0.210 HD
ENDBRANCH   3  28
TORSDOF 6
