REMARK  3 active torsions:
REMARK  status: ('A' for Active; 'I' for Inactive)
REMARK    1  A    between atoms: C2_2  and  O4_3 
REMARK    2  A    between atoms: C2_2  and  C5_4 
REMARK    3  A    between atoms: N6_5  and  C18_16 
ROOT
ATOM      1  C18 1J5 d         -14.643 -10.473 -11.071  0.00  0.00     0.092 C 
ATOM      2  C20 1J5 d         -13.324 -10.260 -11.841  0.00  0.00     0.027 C 
ATOM      3  C21 1J5 d         -12.268 -11.248 -11.305  0.00  0.00     0.021 C 
ATOM      4  C22 1J5 d         -12.114 -11.058  -9.782  0.00  0.00     0.093 C 
ATOM      5  C24 1J5 d         -13.436 -11.277  -9.029  0.00  0.00     0.021 C 
ATOM      6  C25 1J5 d         -14.496 -10.291  -9.554  0.00  0.00     0.027 C 
ATOM      7  C26 1J5 d         -11.120 -11.996  -9.228  0.00  0.00     0.064 C 
ATOM      8  N27 1J5 d         -10.386 -12.750  -8.793  0.00  0.00    -0.197 NA
ENDROOT
BRANCH   1   9
ATOM      9  N6  1J5 d         -15.709  -9.605 -11.621  0.00  0.00    -0.325 N 
ATOM     10  C5  1J5 d         -16.893 -10.072 -12.126  0.00  0.00     0.136 A 
ATOM     11  N9  1J5 d         -17.614  -9.080 -12.557  0.00  0.00    -0.229 NA
ATOM     12  C8  1J5 d         -16.968  -7.910 -12.345  0.00  0.00     0.104 A 
ATOM     13  C7  1J5 d         -15.734  -8.223 -11.736  0.00  0.00     0.081 A 
ATOM     14  C10 1J5 d         -17.307  -6.580 -12.607  0.00  0.00     0.153 A 
ATOM     15  C13 1J5 d         -14.885  -7.132 -11.430  0.00  0.00     0.041 A 
ATOM     16  C12 1J5 d         -15.316  -5.820 -11.737  0.00  0.00     0.139 A 
ATOM     17  C14 1J5 d         -13.559  -6.967 -10.810  0.00  0.00     0.034 A 
ATOM     18  N11 1J5 d         -16.496  -5.589 -12.314  0.00  0.00    -0.240 NA
ATOM     19  N16 1J5 d         -14.341  -4.948 -11.351  0.00  0.00    -0.350 N 
ATOM     20  C15 1J5 d         -13.289  -5.647 -10.801  0.00  0.00     0.091 A 
ATOM     21  H9  1J5 d         -14.384  -3.924 -11.455  0.00  0.00     0.166 HD
BRANCH  10  22
ATOM     22  C2  1J5 d         -17.304 -11.529 -12.185  0.00  0.00     0.183 C 
ATOM     23  C1  1J5 d         -18.807 -11.708 -11.952  0.00  0.00     0.047 C 
BRANCH  22  24
ATOM     24  O4  1J5 d         -16.960 -12.054 -13.455  0.00  0.00    -0.388 OA
ATOM     25  H5  1J5 d         -16.028 -11.943 -13.600  0.00  0.00     0.210 HD
ENDBRANCH  22  24
ENDBRANCH  10  22
ENDBRANCH   1   9
TORSDOF 3
