REMARK  0 active torsions:
REMARK  status: ('A' for Active; 'I' for Inactive)
ROOT
ATOM      1  CAK MOL d           8.555  -0.993   9.021  0.00  0.00     0.130 A 
ATOM      2  NAG MOL d           9.534  -1.419   8.254  0.00  0.00    -0.128 NA
ATOM      3  NAE MOL d          10.612  -1.090   8.757  0.00  0.00    -0.067 NA
ATOM      4  NAF MOL d          10.470  -0.467   9.815  0.00  0.00    -0.258 N 
ATOM      5  CAJ MOL d           9.183  -0.348  10.064  0.00  0.00     0.085 A 
ATOM      6  CAD MOL d           8.456   0.250  11.066  0.00  0.00     0.057 A 
ATOM      7  CAH MOL d           7.094   0.133  10.972  0.00  0.00     0.038 A 
ATOM      8 CLA  MOL d           6.148   0.841  12.170  0.00  0.00    -0.084 Cl
ATOM      9  CAC MOL d           6.424  -0.497   9.936  0.00  0.00     0.050 A 
ATOM     10  CAI MOL d           7.175  -1.079   8.942  0.00  0.00     0.068 A 
ATOM     11 CLB  MOL d           6.391  -1.897   7.630  0.00  0.00    -0.082 Cl
ATOM     12  H1  MOL d          11.232  -0.102  10.404  0.00  0.00     0.191 HD
ENDROOT
TORSDOF 0
