REMARK  7 active torsions:
REMARK  status: ('A' for Active; 'I' for Inactive)
REMARK    1  A    between atoms: C9_2  and  C8_4 
REMARK    2  A    between atoms: C8_4  and  C7_5 
REMARK    3  A    between atoms: C7_5  and  C6_6 
REMARK    4  A    between atoms: C6_6  and  C5_7 
REMARK    5  A    between atoms: C5_7  and  C4_8 
REMARK    6  A    between atoms: C4_8  and  C3_9 
REMARK    7  A    between atoms: C2_10  and  C1_11 
ROOT
ATOM      1  C5  MOL d          16.495  -3.064  -2.876  0.00  0.00     0.004 C 
ENDROOT
BRANCH   1   2
ATOM      2  C6  MOL d          15.757  -4.187  -2.148  0.00  0.00     0.001 C 
BRANCH   2   3
ATOM      3  C7  MOL d          15.010  -5.179  -3.052  0.00  0.00     0.007 C 
BRANCH   3   4
ATOM      4  C8  MOL d          15.210  -6.617  -2.550  0.00  0.00     0.077 C 
BRANCH   4   5
ATOM      5  C9  MOL d          13.956  -7.408  -2.230  0.00  0.00     0.123 C 
ATOM      6  O9  MOL d          14.079  -8.553  -1.804  0.00  0.00    -0.298 OA
ATOM      7  C10 MOL d          12.603  -6.802  -2.424  0.00  0.00     0.091 C 
ENDBRANCH   4   5
ENDBRANCH   3   4
ENDBRANCH   2   3
ENDBRANCH   1   2
BRANCH   1   8
ATOM      8  C4  MOL d          17.970  -3.431  -2.855  0.00  0.00     0.027 C 
BRANCH   8   9
ATOM      9  C3  MOL d          18.887  -2.604  -3.721  0.00  0.00    -0.020 C 
ATOM     10  C2  MOL d          20.120  -3.117  -3.815  0.00  0.00     0.080 C 
BRANCH  10  11
ATOM     11  C1  MOL d          21.194  -2.458  -4.561  0.00  0.00     0.198 C 
ATOM     12  OE1 MOL d          22.360  -2.898  -4.403  0.00  0.00    -0.645 OA
ATOM     13  OE2 MOL d          20.942  -1.468  -5.281  0.00  0.00    -0.645 OA
ENDBRANCH  10  11
ENDBRANCH   8   9
ENDBRANCH   1   8
TORSDOF 7
