REMARK  15 active torsions:
REMARK  status: ('A' for Active; 'I' for Inactive)
REMARK    1  A    between atoms: C1_1  and  O1_38 
REMARK    2  A    between atoms: O1_38  and  C5_5 
REMARK       I    between atoms: C5_5  and  N1_31 
REMARK    3  A    between atoms: N1_31  and  C6_6 
REMARK    4  A    between atoms: C6_6  and  C14_14 
REMARK    5  A    between atoms: C6_6  and  C7_7 
REMARK    6  A    between atoms: C7_7  and  C8_8 
REMARK    7  A    between atoms: C14_14  and  O3_36 
REMARK    8  A    between atoms: C14_14  and  C15_15 
REMARK    9  A    between atoms: C15_15  and  C16_16 
REMARK   10  A    between atoms: C16_16  and  C24_24 
REMARK   11  A    between atoms: C16_16  and  C17_17 
REMARK   12  A    between atoms: C17_17  and  C18_18 
REMARK       I    between atoms: C24_24  and  N2_32 
REMARK   13  A    between atoms: N2_32  and  C25_25 
REMARK   14  A    between atoms: C25_25  and  C29_28 
REMARK   15  A    between atoms: C25_25  and  C26_26 
ROOT
ATOM      1  C16 IM1 d          -8.128  17.621  26.879  0.00  0.00     0.084 C 
ENDROOT
BRANCH   1   2
ATOM      2  C15 IM1 d          -8.960  16.898  27.865  0.00  0.00     0.048 C 
BRANCH   2   3
ATOM      3  C14 IM1 d         -10.421  16.700  27.541  0.00  0.00     0.142 C 
BRANCH   3   4
ATOM      4  C6  IM1 d         -11.034  15.620  28.477  0.00  0.00     0.119 C 
BRANCH   4   5
ATOM      5  N1  IM1 d         -11.009  16.102  29.852  0.00  0.00    -0.329 N 
ATOM      6  C5  IM1 d         -10.081  15.752  30.735  0.00  0.00     0.361 C 
ATOM      7  O2  IM1 d          -9.169  14.989  30.422  0.00  0.00    -0.238 OA
ATOM      8  H36 IM1 d         -11.729  16.730  30.146  0.00  0.00     0.165 HD
BRANCH   6   9
ATOM      9  O1  IM1 d         -10.118  16.278  32.027  0.00  0.00    -0.294 OA
BRANCH   9  10
ATOM     10  C1  IM1 d         -10.652  15.608  33.122  0.00  0.00     0.061 C 
ATOM     11  C4  IM1 d         -10.514  16.501  34.343  0.00  0.00     0.046 C 
ATOM     12  C3  IM1 d          -9.839  14.368  33.450  0.00  0.00     0.046 C 
ATOM     13  C2  IM1 d         -12.132  15.312  32.915  0.00  0.00     0.046 C 
ENDBRANCH   9  10
ENDBRANCH   6   9
ENDBRANCH   4   5
BRANCH   4  14
ATOM     14  C7  IM1 d         -12.474  15.305  28.071  0.00  0.00     0.066 C 
BRANCH  14  15
ATOM     15  C8  IM1 d         -13.069  14.193  28.930  0.00  0.00    -0.056 A 
ATOM     16  C13 IM1 d         -12.620  12.870  28.786  0.00  0.00     0.007 A 
ATOM     17  C12 IM1 d         -13.156  11.853  29.570  0.00  0.00     0.001 A 
ATOM     18  C11 IM1 d         -14.138  12.143  30.500  0.00  0.00     0.000 A 
ATOM     19  C10 IM1 d         -14.590  13.458  30.648  0.00  0.00     0.001 A 
ATOM     20  C9  IM1 d         -14.065  14.490  29.870  0.00  0.00     0.007 A 
ENDBRANCH  14  15
ENDBRANCH   4  14
ENDBRANCH   3   4
BRANCH   3  21
ATOM     21  O3  IM1 d         -11.013  18.005  27.715  0.00  0.00    -0.393 OA
ATOM     22  H39 IM1 d         -10.601  18.620  27.120  0.00  0.00     0.210 HD
ENDBRANCH   3  21
ENDBRANCH   2   3
ENDBRANCH   1   2
BRANCH   1  23
ATOM     23  C24 IM1 d          -8.019  16.777  25.607  0.00  0.00     0.222 C 
ATOM     24  O4  IM1 d          -7.748  15.582  25.660  0.00  0.00    -0.273 OA
ATOM     25  N2  IM1 d          -8.202  17.405  24.455  0.00  0.00    -0.349 N 
ATOM     26  H37 IM1 d          -8.412  18.383  24.460  0.00  0.00     0.163 HD
BRANCH  25  27
ATOM     27  C25 IM1 d          -8.105  16.703  23.180  0.00  0.00     0.157 C 
BRANCH  27  28
ATOM     28  C29 IM1 d          -7.061  17.491  22.388  0.00  0.00     0.126 A 
ATOM     29  N4  IM1 d          -6.982  18.804  22.328  0.00  0.00    -0.244 NA
ATOM     30  C31 IM1 d          -5.843  19.015  21.568  0.00  0.00     0.136 A 
ATOM     31  C30 IM1 d          -5.296  17.792  21.195  0.00  0.00     0.109 A 
ATOM     32  N3  IM1 d          -6.122  16.840  21.746  0.00  0.00    -0.351 N 
ATOM     33  H38 IM1 d          -6.022  15.818  21.669  0.00  0.00     0.166 HD
ENDBRANCH  27  28
BRANCH  27  34
ATOM     34  C26 IM1 d          -9.446  16.683  22.422  0.00  0.00     0.008 C 
ATOM     35  C28 IM1 d         -10.512  15.966  23.226  0.00  0.00     0.012 C 
ATOM     36  C27 IM1 d          -9.254  15.956  21.078  0.00  0.00     0.012 C 
ENDBRANCH  27  34
ENDBRANCH  25  27
ENDBRANCH   1  23
BRANCH   1  37
ATOM     37  C17 IM1 d          -6.763  17.895  27.582  0.00  0.00     0.052 C 
BRANCH  37  38
ATOM     38  C18 IM1 d          -5.598  18.014  26.614  0.00  0.00    -0.057 A 
ATOM     39  C23 IM1 d          -4.691  16.951  26.500  0.00  0.00     0.007 A 
ATOM     40  C22 IM1 d          -3.696  16.995  25.538  0.00  0.00     0.001 A 
ATOM     41  C21 IM1 d          -3.602  18.094  24.695  0.00  0.00     0.000 A 
ATOM     42  C20 IM1 d          -4.503  19.151  24.805  0.00  0.00     0.001 A 
ATOM     43  C19 IM1 d          -5.506  19.121  25.761  0.00  0.00     0.007 A 
ENDBRANCH  37  38
ENDBRANCH   1  37
TORSDOF 15
