REMARK  6 active torsions:
REMARK  status: ('A' for Active; 'I' for Inactive)
REMARK    1  A    between atoms: C6_13  and  C1_3 
REMARK    2  A    between atoms: C3_9  and  S16_10 
REMARK    3  A    between atoms: S16_10  and  N19_11 
REMARK    4  A    between atoms: C7_15  and  C6_13 
REMARK    5  A    between atoms: S8_16  and  C7_15 
REMARK    6  A    between atoms: C9_17  and  S8_16 
ROOT
ATOM      1  C1  E1F d          -4.177   4.032  14.012  0.00  0.00     0.012 A 
ATOM      2  C2  E1F d          -5.592   3.400  15.816  0.00  0.00     0.058 A 
ATOM      3 CL1  E1F d          -6.664   3.865  17.111  0.00  0.00    -0.083 Cl
ATOM      4  C21 E1F d          -5.094   4.410  14.997  0.00  0.00     0.040 A 
ATOM      5  C5  E1F d          -3.788   2.684  13.784  0.00  0.00     0.017 A 
ATOM      6  C4  E1F d          -4.297   1.663  14.607  0.00  0.00     0.028 A 
ATOM      7  C3  E1F d          -5.181   2.052  15.615  0.00  0.00     0.101 A 
ENDROOT
BRANCH   1   8
ATOM      8  C6  E1F d          -3.626   5.121  13.182  0.00  0.00     0.169 C 
ATOM      9  O12 E1F d          -4.321   6.105  12.900  0.00  0.00    -0.291 OA
BRANCH   8  10
ATOM     10  C7  E1F d          -2.190   4.996  12.794  0.00  0.00     0.166 C 
BRANCH  10  11
ATOM     11  S8  E1F d          -1.894   6.325  11.590  0.00  0.00    -0.082 SA
BRANCH  11  12
ATOM     12  C9  E1F d          -1.518   7.583  12.789  0.00  0.00     0.188 A 
ATOM     13  N11 E1F d          -1.310   8.832  12.259  0.00  0.00    -0.235 NA
ATOM     14  C14 E1F d          -1.034   9.854  13.140  0.00  0.00     0.121 A 
ATOM     15  C15 E1F d          -0.945   9.607  14.530  0.00  0.00     0.038 A 
ATOM     16  C13 E1F d          -1.154   8.334  15.024  0.00  0.00     0.121 A 
ATOM     17  N10 E1F d          -1.461   7.329  14.149  0.00  0.00    -0.235 NA
ENDBRANCH  11  12
ENDBRANCH  10  11
ENDBRANCH   8  10
ENDBRANCH   1   8
BRANCH   7  18
ATOM     18  S16 E1F d          -5.806   0.742  16.681  0.00  0.00     0.258 S 
ATOM     19  O18 E1F d          -5.281   0.999  18.223  0.00  0.00    -0.201 OA
ATOM     20  O17 E1F d          -7.350   0.813  16.603  0.00  0.00    -0.201 OA
BRANCH  18  21
ATOM     21  N19 E1F d          -5.016  -0.701  16.116  0.00  0.00    -0.324 N 
ATOM     22  H5  E1F d          -5.195  -1.040  15.193  0.00  0.00     0.169 HD
ATOM     23  H6  E1F d          -4.383  -1.191  16.715  0.00  0.00     0.169 HD
ENDBRANCH  18  21
ENDBRANCH   7  18
TORSDOF 6
