REMARK  17 active torsions:
REMARK  status: ('A' for Active; 'I' for Inactive)
REMARK    1  A    between atoms: C20_20  and  C3_3 
REMARK    2  A    between atoms: C3_3  and  C21_21 
REMARK    3  A    between atoms: C4_4  and  O17_17 
REMARK    4  A    between atoms: N6_6  and  C7_7 
REMARK    5  A    between atoms: C11_11  and  O12_12 
REMARK    6  A    between atoms: C19_19  and  C18_18 
REMARK    7  A    between atoms: C18_18  and  C20_20 
REMARK    8  A    between atoms: N36_36  and  C19_19 
REMARK    9  A    between atoms: C21_21  and  C22_22 
REMARK   10  A    between atoms: C29_29  and  C28_28 
REMARK   11  A    between atoms: C35_35  and  C32_32 
REMARK   12  A    between atoms: C35_35  and  N36_36 
REMARK   13  A    between atoms: N36_36  and  N37_37 
REMARK       I    between atoms: N37_37  and  C38_38 
REMARK   14  A    between atoms: C38_38  and  C39_39 
REMARK   15  A    between atoms: C39_39  and  N40_40 
REMARK   16  A    between atoms: C39_39  and  C45_45 
REMARK       I    between atoms: N40_40  and  C41_41 
REMARK   17  A    between atoms: C41_41  and  O42_42 
ROOT
ATOM      1  N36 QG8 d          15.774  22.513   7.135  0.00  0.00     0.015 N 
ATOM      2  H33 QG8 d          14.874  22.198   7.462  0.00  0.00     0.309 HD
ENDROOT
BRANCH   1   3
ATOM      3  C19 QG8 d          15.638  23.845   6.531  0.00  0.00     0.263 C 
BRANCH   3   4
ATOM      4  C18 QG8 d          14.499  24.006   5.558  0.00  0.00     0.031 C 
BRANCH   4   5
ATOM      5  C20 QG8 d          13.082  23.784   6.156  0.00  0.00     0.024 C 
BRANCH   5   6
ATOM      6  C3  QG8 d          11.882  24.276   5.293  0.00  0.00     0.072 C 
ATOM      7  C1  QG8 d          10.581  24.194   6.168  0.00  0.00     0.232 C 
ATOM      8  O2  QG8 d          10.302  23.195   6.827  0.00  0.00    -0.272 OA
ATOM      9  N6  QG8 d           9.842  25.318   6.103  0.00  0.00    -0.338 N 
ATOM     10  C5  QG8 d          10.478  26.260   5.220  0.00  0.00     0.159 C 
ATOM     11  C4  QG8 d          11.899  25.827   5.008  0.00  0.00     0.154 C 
BRANCH   9  12
ATOM     12  C7  QG8 d           8.555  25.594   6.802  0.00  0.00     0.150 C 
ATOM     13  C8  QG8 d           8.468  26.860   7.658  0.00  0.00    -0.026 A 
ATOM     14  C9  QG8 d           7.138  27.388   7.621  0.00  0.00    -0.047 A 
ATOM     15  C16 QG8 d           9.510  27.523   8.437  0.00  0.00     0.010 A 
ATOM     16  C10 QG8 d           6.248  26.548   6.752  0.00  0.00     0.073 C 
ATOM     17  C13 QG8 d           6.776  28.591   8.348  0.00  0.00     0.008 A 
ATOM     18  C11 QG8 d           7.247  25.702   5.924  0.00  0.00     0.149 C 
ATOM     19  C14 QG8 d           7.802  29.268   9.130  0.00  0.00     0.001 A 
ATOM     20  C15 QG8 d           9.168  28.735   9.169  0.00  0.00     0.001 A 
BRANCH  18  21
ATOM     21  O12 QG8 d           7.405  26.433   4.703  0.00  0.00    -0.393 OA
ATOM     22  H8  QG8 d           8.011  25.972   4.135  0.00  0.00     0.210 HD
ENDBRANCH  18  21
ENDBRANCH   9  12
BRANCH  11  23
ATOM     23  O17 QG8 d          12.616  26.632   5.905  0.00  0.00    -0.393 OA
ATOM     24  H13 QG8 d          13.541  26.427   5.843  0.00  0.00     0.210 HD
ENDBRANCH  11  23
BRANCH   6  25
ATOM     25  C21 QG8 d          11.755  23.356   3.942  0.00  0.00     0.060 C 
BRANCH  25  26
ATOM     26  C22 QG8 d          10.660  23.704   2.908  0.00  0.00    -0.057 A 
ATOM     27  C23 QG8 d          10.941  24.598   1.791  0.00  0.00     0.007 A 
ATOM     28  C24 QG8 d           9.905  24.921   0.839  0.00  0.00     0.001 A 
ATOM     29  C25 QG8 d           8.584  24.360   0.990  0.00  0.00     0.000 A 
ATOM     30  C26 QG8 d           8.302  23.475   2.090  0.00  0.00     0.001 A 
ATOM     31  C27 QG8 d           9.324  23.142   3.048  0.00  0.00     0.007 A 
ENDBRANCH  25  26
ENDBRANCH   6  25
ENDBRANCH   5   6
ENDBRANCH   4   5
ENDBRANCH   3   4
ENDBRANCH   1   3
BRANCH   1  32
ATOM     32  C35 QG8 d          16.713  22.589   8.280  0.00  0.00     0.301 C 
BRANCH  32  33
ATOM     33  C32 QG8 d          16.917  21.234   8.953  0.00  0.00    -0.030 A 
ATOM     34  C31 QG8 d          18.278  20.762   9.126  0.00  0.00     0.010 A 
ATOM     35  C30 QG8 d          18.537  19.490   9.760  0.00  0.00     0.013 A 
ATOM     36  C29 QG8 d          17.443  18.651  10.240  0.00  0.00    -0.026 A 
ATOM     37  C34 QG8 d          16.062  19.129  10.062  0.00  0.00     0.013 A 
ATOM     38  C33 QG8 d          15.798  20.418   9.421  0.00  0.00     0.010 A 
BRANCH  36  39
ATOM     39  C28 QG8 d          17.743  17.349  10.893  0.00  0.00    -0.026 A 
ATOM     40  C50 QG8 d          17.842  17.248  12.350  0.00  0.00     0.012 A 
ATOM     41  C51 QG8 d          18.133  15.978  12.998  0.00  0.00     0.001 A 
ATOM     42  C52 QG8 d          18.331  14.781  12.192  0.00  0.00     0.000 A 
ATOM     43  C53 QG8 d          18.238  14.861  10.740  0.00  0.00     0.001 A 
ATOM     44  C54 QG8 d          17.946  16.131  10.095  0.00  0.00     0.012 A 
ENDBRANCH  36  39
ENDBRANCH  32  33
ENDBRANCH   1  32
BRANCH   1  45
ATOM     45  N37 QG8 d          16.260  21.614   6.168  0.00  0.00    -0.185 N 
ATOM     46  C38 QG8 d          15.550  20.605   5.648  0.00  0.00     0.265 C 
ATOM     47  O49 QG8 d          14.377  20.361   5.972  0.00  0.00    -0.269 OA
ATOM     48  H34 QG8 d          17.199  21.737   5.847  0.00  0.00     0.197 HD
BRANCH  46  49
ATOM     49  C39 QG8 d          16.359  19.798   4.618  0.00  0.00     0.188 C 
BRANCH  49  50
ATOM     50  N40 QG8 d          17.147  18.907   5.471  0.00  0.00    -0.323 N 
ATOM     51  C41 QG8 d          18.515  19.019   5.674  0.00  0.00     0.360 C 
ATOM     52  O44 QG8 d          19.232  19.890   5.152  0.00  0.00    -0.239 OA
ATOM     53  H36 QG8 d          16.666  18.166   5.940  0.00  0.00     0.165 HD
BRANCH  51  54
ATOM     54  O42 QG8 d          18.895  18.030   6.519  0.00  0.00    -0.309 OA
ATOM     55  C43 QG8 d          20.257  17.886   6.914  0.00  0.00     0.215 C 
ENDBRANCH  51  54
ENDBRANCH  49  50
BRANCH  49  56
ATOM     56  C45 QG8 d          15.587  18.897   3.541  0.00  0.00    -0.022 C 
ATOM     57  C46 QG8 d          14.739  19.826   2.626  0.00  0.00     0.017 C 
ATOM     58  C47 QG8 d          16.613  18.184   2.609  0.00  0.00     0.017 C 
ATOM     59  C48 QG8 d          14.683  17.789   4.149  0.00  0.00     0.017 C 
ENDBRANCH  49  56
ENDBRANCH  46  49
ENDBRANCH   1  45
TORSDOF 17
