REMARK  13 active torsions:
REMARK  status: ('A' for Active; 'I' for Inactive)
REMARK    1  A    between atoms: C7_7  and  N4_33 
REMARK    2  A    between atoms: C28_30  and  N1_10 
REMARK    3  A    between atoms: C19_21  and  N2_13 
REMARK    4  A    between atoms: C14_16  and  N3_34 
REMARK    5  A    between atoms: C20_22  and  C19_21 
REMARK    6  A    between atoms: C21_23  and  C20_22 
REMARK    7  A    between atoms: C22_24  and  C21_23 
REMARK    8  A    between atoms: C23_25  and  C22_24 
REMARK    9  A    between atoms: C24_26  and  C23_25 
REMARK   10  A    between atoms: C25_27  and  C24_26 
REMARK   11  A    between atoms: C26_28  and  C25_27 
REMARK   12  A    between atoms: C27_29  and  C26_28 
REMARK   13  A    between atoms: C27_29  and  C28_30 
ROOT
ATOM      1  C23 DEQ d          12.985  -8.097  24.265  0.00  0.00     0.000 C 
ENDROOT
BRANCH   1   2
ATOM      2  C22 DEQ d          13.811  -8.514  22.992  0.00  0.00     0.000 C 
BRANCH   2   3
ATOM      3  C21 DEQ d          15.170  -7.934  23.156  0.00  0.00     0.002 C 
BRANCH   3   4
ATOM      4  C20 DEQ d          15.959  -8.214  21.859  0.00  0.00     0.020 C 
BRANCH   4   5
ATOM      5  C19 DEQ d          16.395  -9.681  21.996  0.00  0.00     0.129 C 
BRANCH   5   6
ATOM      6  N2  DEQ d          17.778  -9.961  21.540  0.00  0.00    -0.350 N 
ATOM      7  C11 DEQ d          18.939  -9.671  22.257  0.00  0.00     0.047 A 
ATOM      8  C10 DEQ d          20.219 -10.084  21.780  0.00  0.00     0.017 A 
ATOM      9  C18 DEQ d          18.871  -9.014  23.518  0.00  0.00     0.030 A 
ATOM     10  C14 DEQ d          20.270 -10.649  20.521  0.00  0.00     0.040 A 
ATOM     11  C15 DEQ d          21.349  -9.809  22.488  0.00  0.00     0.016 A 
ATOM     12  C13 DEQ d          19.101 -10.911  19.803  0.00  0.00     0.054 A 
ATOM     13  C12 DEQ d          17.844 -10.558  20.250  0.00  0.00     0.010 A 
ATOM     14  C29 DEQ d          16.570 -10.965  19.413  0.00  0.00     0.068 C 
ATOM     15  C16 DEQ d          21.261  -9.175  23.702  0.00  0.00     0.001 A 
ATOM     16  C17 DEQ d          20.037  -8.780  24.171  0.00  0.00     0.002 A 
BRANCH  10  17
ATOM     17  N3  DEQ d          21.393 -11.045  19.905  0.00  0.00    -0.398 N 
ATOM     18  H37 DEQ d          22.307 -10.896  20.355  0.00  0.00     0.156 HD
ATOM     19  H38 DEQ d          21.341 -11.499  18.982  0.00  0.00     0.156 HD
ENDBRANCH  10  17
ENDBRANCH   5   6
ENDBRANCH   4   5
ENDBRANCH   3   4
ENDBRANCH   2   3
ENDBRANCH   1   2
BRANCH   1  20
ATOM     20  C24 DEQ d          11.867  -7.042  23.894  0.00  0.00     0.000 C 
BRANCH  20  21
ATOM     21  C25 DEQ d          10.728  -6.833  24.963  0.00  0.00     0.004 C 
BRANCH  21  22
ATOM     22  C26 DEQ d          11.276  -6.736  26.472  0.00  0.00     0.028 C 
BRANCH  22  23
ATOM     23  C27 DEQ d          10.035  -6.450  27.432  0.00  0.00    -0.009 C 
BRANCH  23  24
ATOM     24  C28 DEQ d          10.697  -6.038  28.669  0.00  0.00     0.093 C 
BRANCH  24  25
ATOM     25  N1  DEQ d           9.770  -5.755  29.852  0.00  0.00    -0.326 N 
ATOM     26  C5  DEQ d           9.063  -6.767  30.536  0.00  0.00     0.051 A 
ATOM     27  C1  DEQ d           9.085  -8.053  30.043  0.00  0.00     0.031 A 
ATOM     28  C6  DEQ d           8.402  -6.435  31.742  0.00  0.00     0.017 A 
ATOM     29  C2  DEQ d           8.449  -9.084  30.694  0.00  0.00     0.002 A 
ATOM     30  C3  DEQ d           7.722  -8.795  31.864  0.00  0.00     0.001 A 
ATOM     31  C4  DEQ d           7.675  -7.444  32.409  0.00  0.00     0.016 A 
ATOM     32  C7  DEQ d           8.369  -5.106  32.187  0.00  0.00     0.040 A 
ATOM     33  C8  DEQ d           9.040  -4.107  31.505  0.00  0.00     0.055 A 
ATOM     34  C9  DEQ d           9.742  -4.432  30.344  0.00  0.00     0.015 A 
ATOM     35  C30 DEQ d          10.482  -3.310  29.589  0.00  0.00     0.068 C 
BRANCH  32  36
ATOM     36  N4  DEQ d           7.646  -4.793  33.316  0.00  0.00    -0.398 N 
ATOM     37  H6  DEQ d           7.144  -5.533  33.828  0.00  0.00     0.156 HD
ATOM     38  H36 DEQ d           7.607  -3.819  33.649  0.00  0.00     0.156 HD
ENDBRANCH  32  36
ENDBRANCH  24  25
ENDBRANCH  23  24
ENDBRANCH  22  23
ENDBRANCH  21  22
ENDBRANCH  20  21
ENDBRANCH   1  20
TORSDOF 13
