REMARK  5 active torsions:
REMARK  status: ('A' for Active; 'I' for Inactive)
REMARK    1  A    between atoms: N3_16  and  C2_4 
REMARK    2  A    between atoms: N11_17  and  C12_7 
REMARK    3  A    between atoms: C8_13  and  C9_10 
REMARK       I    between atoms: C9_10  and  N11_17 
REMARK       I    between atoms: C4_11  and  N3_16 
REMARK       I    between atoms: N6_18  and  C4_11 
REMARK    4  A    between atoms: C7_14  and  C8_13 
REMARK    5  A    between atoms: C7_14  and  N6_18 
ROOT
ATOM      1  C9  MOL d          17.464  -7.073   1.674  0.00  0.00     0.223 C 
ATOM      2  N11 MOL d          18.362  -6.061   1.619  0.00  0.00    -0.327 N 
ATOM      3  O10 MOL d          17.589  -8.143   1.062  0.00  0.00    -0.273 OA
ATOM      4  H17 MOL d          18.100  -5.219   2.090  0.00  0.00     0.169 HD
ENDROOT
BRANCH   1   5
ATOM      5  C8  MOL d          16.275  -6.785   2.572  0.00  0.00     0.123 C 
BRANCH   5   6
ATOM      6  C7  MOL d          15.141  -7.776   2.385  0.00  0.00     0.133 C 
BRANCH   6   7
ATOM      7  N6  MOL d          15.512  -9.110   2.843  0.00  0.00    -0.343 N 
ATOM      8  C4  MOL d          15.077  -9.628   4.011  0.00  0.00     0.316 C 
ATOM      9  N3  MOL d          15.546 -10.859   4.303  0.00  0.00    -0.344 N 
ATOM     10  O5  MOL d          14.300  -9.020   4.758  0.00  0.00    -0.247 OA
ATOM     11  H16 MOL d          16.210 -11.283   3.687  0.00  0.00     0.164 HD
ATOM     12  H18 MOL d          16.114  -9.664   2.268  0.00  0.00     0.164 HD
BRANCH   9  13
ATOM     13  C2  MOL d          15.113 -11.594   5.494  0.00  0.00     0.120 C 
ATOM     14  C1  MOL d          16.237 -11.833   6.457  0.00  0.00     0.026 C 
ENDBRANCH   9  13
ENDBRANCH   6   7
ENDBRANCH   5   6
ENDBRANCH   1   5
BRANCH   2  15
ATOM     15  C12 MOL d          19.627  -6.044   0.979  0.00  0.00     0.036 A 
ATOM     16  C13 MOL d          20.694  -5.369   1.583  0.00  0.00     0.032 A 
ATOM     17  C14 MOL d          21.971  -5.435   1.048  0.00  0.00     0.035 A 
ATOM     18  C15 MOL d          22.187  -6.164  -0.125  0.00  0.00     0.075 A 
ATOM     19  C16 MOL d          21.103  -6.804  -0.738  0.00  0.00     0.037 A 
ATOM     20  N20 MOL d          23.401  -6.291  -0.798  0.00  0.00    -0.245 NA
ATOM     21  C17 MOL d          19.824  -6.759  -0.202  0.00  0.00     0.051 A 
ATOM     22  S18 MOL d          21.629  -7.568  -2.209  0.00  0.00    -0.073 SA
ATOM     23  C19 MOL d          23.258  -6.981  -1.905  0.00  0.00     0.072 A 
ATOM     24  C21 MOL d          24.340  -7.237  -2.902  0.00  0.00     0.079 C 
ENDBRANCH   2  15
TORSDOF 5
