REMARK  7 active torsions:
REMARK  status: ('A' for Active; 'I' for Inactive)
REMARK    1  A    between atoms: N1_2  and  C3_4 
REMARK    2  A    between atoms: N2_9  and  C8_10 
REMARK    3  A    between atoms: C8_10  and  C9_11 
REMARK    4  A    between atoms: C14_16  and  C15_17 
REMARK    5  A    between atoms: C20_22  and  C21_23 
REMARK    6  A    between atoms: C21_23  and  N3_24 
REMARK    7  A    between atoms: C25_30  and  N6_31 
ROOT
ATOM      1  C15 U85 d         -12.485 -16.232   6.985  0.00  0.00    -0.026 A 
ATOM      2  C16 U85 d         -13.467 -15.407   7.560  0.00  0.00     0.013 A 
ATOM      3  C17 U85 d         -14.185 -15.795   8.689  0.00  0.00     0.010 A 
ATOM      4  C18 U85 d         -12.232 -17.470   7.590  0.00  0.00     0.013 A 
ATOM      5  C19 U85 d         -12.952 -17.856   8.726  0.00  0.00     0.010 A 
ATOM      6  C20 U85 d         -13.932 -17.027   9.285  0.00  0.00    -0.040 A 
ENDROOT
BRANCH   1   7
ATOM      7  C14 U85 d         -11.793 -15.779   5.837  0.00  0.00    -0.026 A 
ATOM      8  C11 U85 d         -12.228 -14.620   5.176  0.00  0.00     0.013 A 
ATOM      9  C10 U85 d         -11.596 -14.131   4.045  0.00  0.00     0.010 A 
ATOM     10  C9  U85 d         -10.473 -14.782   3.535  0.00  0.00    -0.040 A 
ATOM     11  C12 U85 d         -10.005 -15.920   4.192  0.00  0.00     0.010 A 
ATOM     12  C13 U85 d         -10.661 -16.422   5.327  0.00  0.00     0.013 A 
BRANCH  10  13
ATOM     13  C8  U85 d          -9.803 -14.260   2.397  0.00  0.00     0.166 C 
BRANCH  13  14
ATOM     14  N2  U85 d          -9.050 -13.098   2.900  0.00  0.00    -0.362 N 
ATOM     15  C5  U85 d          -9.486 -11.777   2.654  0.00  0.00     0.093 A 
ATOM     16  C4  U85 d          -8.764 -10.712   3.210  0.00  0.00     0.046 A 
ATOM     17  C3  U85 d          -7.641 -10.943   4.013  0.00  0.00     0.032 A 
ATOM     18  C6  U85 d          -7.240 -12.247   4.259  0.00  0.00     0.046 A 
ATOM     19  C7  U85 d          -7.932 -13.334   3.728  0.00  0.00     0.093 A 
BRANCH  17  20
ATOM     20  N1  U85 d          -6.944  -9.935   4.561  0.00  0.00    -0.389 N 
ATOM     21  C1  U85 d          -5.816 -10.247   5.463  0.00  0.00     0.149 C 
ATOM     22  C2  U85 d          -7.373  -8.547   4.351  0.00  0.00     0.149 C 
ENDBRANCH  17  20
ENDBRANCH  13  14
ENDBRANCH  10  13
ENDBRANCH   1   7
BRANCH   6  23
ATOM     23  C21 U85 d         -14.674 -17.414  10.423  0.00  0.00     0.170 C 
BRANCH  23  24
ATOM     24  N3  U85 d         -14.053 -16.936  11.695  0.00  0.00    -0.320 N 
ATOM     25  C22 U85 d         -13.307 -17.778  12.446  0.00  0.00     0.165 A 
ATOM     26  N4  U85 d         -12.985 -19.065  12.285  0.00  0.00    -0.222 NA
ATOM     27  C24 U85 d         -12.740 -17.353  13.589  0.00  0.00     0.149 A 
ATOM     28  C23 U85 d         -12.228 -19.440  13.310  0.00  0.00     0.236 A 
ATOM     29  N5  U85 d         -12.075 -18.388  14.110  0.00  0.00    -0.234 NA
ATOM     30  C25 U85 d         -12.905 -16.081  14.014  0.00  0.00     0.155 A 
ATOM     31  N7  U85 d         -13.634 -15.179  13.324  0.00  0.00    -0.224 NA
ATOM     32  C26 U85 d         -14.241 -15.594  12.124  0.00  0.00     0.214 A 
BRANCH  30  33
ATOM     33  N6  U85 d         -12.306 -15.751  15.160  0.00  0.00    -0.382 N 
ATOM     34  H24 U85 d         -12.397 -14.795  15.532  0.00  0.00     0.157 HD
ATOM     35  H25 U85 d         -11.752 -16.452  15.672  0.00  0.00     0.157 HD
ENDBRANCH  30  33
ENDBRANCH  23  24
ENDBRANCH   6  23
TORSDOF 7
