REMARK  3 active torsions:
REMARK  status: ('A' for Active; 'I' for Inactive)
REMARK    1  A    between atoms: C3'_3  and  O3'_4 
REMARK    2  A    between atoms: C2'_5  and  O2'_6 
REMARK    3  A    between atoms: C1'_7  and  N9_8 
ROOT
ATOM      1  N9  SAH d          23.822  -9.495  10.586  0.00  0.00    -0.294 N 
ATOM      2  C8  SAH d          24.688 -10.208   9.832  0.00  0.00     0.214 A 
ATOM      3  N7  SAH d          25.941 -10.174  10.352  0.00  0.00    -0.236 NA
ATOM      4  C5  SAH d          25.902  -9.429  11.466  0.00  0.00     0.149 A 
ATOM      5  C6  SAH d          26.884  -8.987  12.492  0.00  0.00     0.155 A 
ATOM      6  N6  SAH d          28.200  -9.330  12.434  0.00  0.00    -0.382 N 
ATOM      7  N1  SAH d          26.427  -8.206  13.492  0.00  0.00    -0.222 NA
ATOM      8  C2  SAH d          25.140  -7.843  13.560  0.00  0.00     0.237 A 
ATOM      9  N3  SAH d          24.202  -8.212  12.670  0.00  0.00    -0.222 NA
ATOM     10  C4  SAH d          24.506  -8.990  11.613  0.00  0.00     0.167 A 
ATOM     11  H9  SAH d          28.850  -9.004  13.164  0.00  0.00     0.157 HD
ATOM     12  H10 SAH d          28.546  -9.915  11.660  0.00  0.00     0.157 HD
ENDROOT
BRANCH   1  13
ATOM     13  C1' SAH d          22.358  -9.341  10.301  0.00  0.00     0.261 C 
ATOM     14  O4' SAH d          22.084  -9.251   8.897  0.00  0.00    -0.361 OA
ATOM     15  C4' SAH d          21.580  -7.966   8.514  0.00  0.00     0.205 C 
ATOM     16  C3' SAH d          21.401  -7.164   9.792  0.00  0.00     0.175 C 
ATOM     17  C2' SAH d          21.749  -8.108  10.935  0.00  0.00     0.198 C 
BRANCH  16  18
ATOM     18  O3' SAH d          20.040  -6.720   9.909  0.00  0.00    -0.391 OA
ATOM     19  H4  SAH d          19.463  -7.474   9.930  0.00  0.00     0.210 HD
ENDBRANCH  16  18
BRANCH  17  20
ATOM     20  O2' SAH d          20.555  -8.486  11.644  0.00  0.00    -0.389 OA
ATOM     21  H6  SAH d          20.138  -7.709  11.996  0.00  0.00     0.210 HD
ENDBRANCH  17  20
ENDBRANCH   1  13
TORSDOF 3
