REMARK  16 active torsions:
REMARK  status: ('A' for Active; 'I' for Inactive)
REMARK       I    between atoms: C3_2  and  N1_4 
REMARK    1  A    between atoms: N1_4  and  C10_5 
REMARK    2  A    between atoms: C10_5  and  C13_6 
REMARK    3  A    between atoms: C10_5  and  C11_9 
REMARK       I    between atoms: C11_9  and  N3_11 
REMARK    4  A    between atoms: N3_11  and  C12_12 
REMARK    5  A    between atoms: C12_12  and  C22_13 
REMARK    6  A    between atoms: C12_12  and  C23_20 
REMARK    7  A    between atoms: C22_13  and  C20_14 
REMARK    8  A    between atoms: C23_20  and  C24_21 
REMARK    9  A    between atoms: C24_21  and  O4_22 
REMARK   10  A    between atoms: C24_21  and  C25_23 
REMARK   11  A    between atoms: C25_23  and  C29_24 
REMARK   12  A    between atoms: C25_23  and  N4_31 
REMARK   13  A    between atoms: C29_24  and  C4_25 
REMARK       I    between atoms: N4_31  and  C26_32 
REMARK   14  A    between atoms: C26_32  and  C27_34 
REMARK   15  A    between atoms: N31_39  and  C33_40 
REMARK   16  A    between atoms: C35_45  and  C39_46 
ROOT
ATOM      1  C25 MU1 d          20.553  -1.974  14.972  0.00  0.00     0.117 C 
ENDROOT
BRANCH   1   2
ATOM      2  C24 MU1 d          20.324  -0.471  14.769  0.00  0.00     0.143 C 
BRANCH   2   3
ATOM      3  C23 MU1 d          19.084   0.023  15.480  0.00  0.00     0.059 C 
BRANCH   3   4
ATOM      4  C12 MU1 d          19.195   0.115  16.983  0.00  0.00     0.091 C 
BRANCH   4   5
ATOM      5  N3  MU1 d          20.419   0.813  17.367  0.00  0.00    -0.354 N 
ATOM      6  C11 MU1 d          21.289   0.383  18.276  0.00  0.00     0.241 C 
ATOM      7  O2  MU1 d          21.246  -0.700  18.838  0.00  0.00    -0.271 OA
ATOM      8  H13 MU1 d          20.618   1.681  16.912  0.00  0.00     0.162 HD
BRANCH   6   9
ATOM      9  C10 MU1 d          22.364   1.379  18.627  0.00  0.00     0.179 C 
BRANCH   9  10
ATOM     10  N1  MU1 d          22.046   2.039  19.883  0.00  0.00    -0.348 N 
ATOM     11  C3  MU1 d          21.914   3.364  19.999  0.00  0.00     0.214 C 
ATOM     12  O1  MU1 d          21.995   4.103  19.034  0.00  0.00    -0.274 OA
ATOM     13  C2  MU1 d          21.680   3.892  21.388  0.00  0.00     0.117 C 
ATOM     14  H4  MU1 d          21.920   1.475  20.699  0.00  0.00     0.163 HD
ENDBRANCH   9  10
BRANCH   9  15
ATOM     15  C13 MU1 d          23.741   0.717  18.688  0.00  0.00     0.009 C 
ATOM     16  C14 MU1 d          24.006  -0.089  17.418  0.00  0.00     0.012 C 
ATOM     17  C15 MU1 d          24.844   1.751  18.938  0.00  0.00     0.012 C 
ENDBRANCH   9  15
ENDBRANCH   6   9
ENDBRANCH   4   5
BRANCH   4  18
ATOM     18  C22 MU1 d          17.918   0.849  17.421  0.00  0.00     0.063 C 
BRANCH  18  19
ATOM     19  C20 MU1 d          18.005   1.372  18.835  0.00  0.00    -0.056 A 
ATOM     20  C21 MU1 d          17.793   0.527  19.912  0.00  0.00     0.007 A 
ATOM     21  C16 MU1 d          17.882   1.022  21.213  0.00  0.00     0.001 A 
ATOM     22  C17 MU1 d          18.176   2.366  21.432  0.00  0.00     0.000 A 
ATOM     23  C18 MU1 d          18.376   3.210  20.351  0.00  0.00     0.001 A 
ATOM     24  C19 MU1 d          18.288   2.712  19.056  0.00  0.00     0.007 A 
ENDBRANCH  18  19
ENDBRANCH   4  18
ENDBRANCH   3   4
ENDBRANCH   2   3
BRANCH   2  25
ATOM     25  O4  MU1 d          20.156  -0.143  13.374  0.00  0.00    -0.393 OA
ATOM     26  H25 MU1 d          20.917  -0.437  12.887  0.00  0.00     0.210 HD
ENDBRANCH   2  25
ENDBRANCH   1   2
BRANCH   1  27
ATOM     27  C29 MU1 d          21.894  -2.361  14.346  0.00  0.00     0.066 C 
BRANCH  27  28
ATOM     28  C4  MU1 d          22.114  -3.854  14.461  0.00  0.00    -0.056 A 
ATOM     29  C5  MU1 d          21.994  -4.677  13.335  0.00  0.00     0.007 A 
ATOM     30  C6  MU1 d          22.185  -6.053  13.449  0.00  0.00     0.001 A 
ATOM     31  C7  MU1 d          22.497  -6.608  14.688  0.00  0.00     0.000 A 
ATOM     32  C8  MU1 d          22.610  -5.784  15.806  0.00  0.00     0.001 A 
ATOM     33  C9  MU1 d          22.418  -4.410  15.699  0.00  0.00     0.007 A 
ENDBRANCH  27  28
ENDBRANCH   1  27
BRANCH   1  34
ATOM     34  N4  MU1 d          19.497  -2.828  14.418  0.00  0.00    -0.351 N 
ATOM     35  C26 MU1 d          18.802  -3.736  15.124  0.00  0.00     0.249 C 
ATOM     36  O5  MU1 d          18.842  -3.851  16.345  0.00  0.00    -0.271 OA
ATOM     37  H34 MU1 d          19.279  -2.728  13.447  0.00  0.00     0.163 HD
BRANCH  35  38
ATOM     38  C27 MU1 d          17.948  -4.722  14.354  0.00  0.00     0.243 C 
ATOM     39  C32 MU1 d          18.422  -6.151  14.611  0.00  0.00     0.177 C 
ATOM     40  N31 MU1 d          18.566  -6.703  13.279  0.00  0.00    -0.291 N 
ATOM     41  C30 MU1 d          18.338  -5.811  12.345  0.00  0.00     0.368 C 
ATOM     42  O28 MU1 d          18.025  -4.534  12.935  0.00  0.00    -0.287 OA
ATOM     43  O30 MU1 d          18.349  -5.964  11.158  0.00  0.00    -0.238 OA
BRANCH  40  44
ATOM     44  C33 MU1 d          18.939  -8.043  13.027  0.00  0.00     0.040 A 
ATOM     45  C38 MU1 d          18.425  -8.749  11.942  0.00  0.00     0.030 A 
ATOM     46  C37 MU1 d          18.812 -10.069  11.719  0.00  0.00     0.003 A 
ATOM     47  C36 MU1 d          19.706 -10.712  12.577  0.00  0.00     0.015 A 
ATOM     48  C35 MU1 d          20.232 -10.025  13.668  0.00  0.00     0.011 A 
ATOM     49  C34 MU1 d          19.841  -8.696  13.880  0.00  0.00     0.044 A 
BRANCH  48  50
ATOM     50  C39 MU1 d          21.201 -10.695  14.615  0.00  0.00     0.155 C 
ATOM     51  O39 MU1 d          21.519 -10.141  15.663  0.00  0.00    -0.293 OA
ATOM     52  C40 MU1 d          21.770 -12.048  14.284  0.00  0.00     0.096 C 
ENDBRANCH  48  50
ENDBRANCH  40  44
ENDBRANCH  35  38
ENDBRANCH   1  34
TORSDOF 16
