REMARK  4 active torsions:
REMARK  status: ('A' for Active; 'I' for Inactive)
REMARK    1  A    between atoms: O4_1  and  C4_2 
REMARK    2  A    between atoms: C3_3  and  O3_4 
REMARK    3  A    between atoms: C5_8  and  C6_9 
REMARK    4  A    between atoms: C6_9  and  O6_10 
ROOT
ATOM      1  C4  IFM d          20.710 -17.718  24.944  0.00  0.00     0.156 C 
ATOM      2  C3  IFM d          21.648 -18.731  25.566  0.00  0.00     0.172 C 
ATOM      3  C2  IFM d          22.065 -19.800  24.471  0.00  0.00     0.266 C 
ATOM      4  N   IFM d          20.858 -20.498  23.902  0.00  0.00    -0.072 N 
ATOM      5  C1  IFM d          19.893 -19.477  23.307  0.00  0.00     0.241 C 
ATOM      6  C5  IFM d          19.464 -18.574  24.422  0.00  0.00     0.066 C 
ATOM      7  H7  IFM d          20.392 -21.009  24.635  0.00  0.00     0.277 HD
ATOM      8  H8  IFM d          21.152 -21.138  23.181  0.00  0.00     0.277 HD
ENDROOT
BRANCH   6   9
ATOM      9  C6  IFM d          18.414 -17.587  23.775  0.00  0.00     0.173 C 
BRANCH   9  10
ATOM     10  O6  IFM d          18.932 -16.883  22.563  0.00  0.00    -0.400 OA
ATOM     11  H14 IFM d          18.259 -16.307  22.221  0.00  0.00     0.209 HD
ENDBRANCH   9  10
ENDBRANCH   6   9
BRANCH   1  12
ATOM     12  O4  IFM d          20.337 -16.779  25.957  0.00  0.00    -0.392 OA
ATOM     13  H1  IFM d          21.115 -16.346  26.288  0.00  0.00     0.210 HD
ENDBRANCH   1  12
BRANCH   2  14
ATOM     14  O3  IFM d          22.862 -18.116  25.992  0.00  0.00    -0.391 OA
ATOM     15  H4  IFM d          22.667 -17.447  26.637  0.00  0.00     0.210 HD
ENDBRANCH   2  14
TORSDOF 4
