REMARK  1 active torsions:
REMARK  status: ('A' for Active; 'I' for Inactive)
REMARK    1  A    between atoms: C2_15  and  N17_27 
ROOT
ATOM      1  C23 MOL d         -26.402 -20.014  59.844  0.00  0.00     0.120 C 
ATOM      2  C12 MOL d         -34.419 -18.763  61.152  0.00  0.00     0.021 A 
ATOM      3  C13 MOL d         -34.901 -18.584  62.465  0.00  0.00     0.043 A 
ATOM      4  C6  MOL d         -29.973 -17.345  60.906  0.00  0.00     0.054 A 
ATOM      5  C15 MOL d         -33.708 -16.431  62.619  0.00  0.00     0.053 A 
ATOM      6  C4  MOL d         -27.886 -17.858  61.894  0.00  0.00     0.131 A 
ATOM      7  C19 MOL d         -27.815 -20.246  59.713  0.00  0.00     0.145 A 
ATOM      8  C5  MOL d         -28.901 -18.250  61.000  0.00  0.00    -0.000 A 
ATOM      9  C18 MOL d         -28.922 -19.508  60.195  0.00  0.00     0.043 A 
ATOM     10  C11 MOL d         -33.569 -17.776  60.551  0.00  0.00     0.041 A 
ATOM     11  C10 MOL d         -33.194 -16.575  61.282  0.00  0.00    -0.011 A 
ATOM     12  C1  MOL d         -30.066 -16.137  61.633  0.00  0.00     0.116 A 
ATOM     13  C14 MOL d         -34.544 -17.425  63.184  0.00  0.00     0.117 A 
ATOM     14  C22 MOL d         -30.069 -20.282  59.717  0.00  0.00     0.086 A 
ATOM     15  C2  MOL d         -28.991 -15.841  62.505  0.00  0.00     0.154 A 
ATOM     16  C27 MOL d         -33.110 -18.062  59.152  0.00  0.00     0.254 C 
ATOM     17  C28 MOL d         -31.567 -20.066  59.873  0.00  0.00     0.187 C 
ATOM     18  C8  MOL d         -32.275 -15.469  60.705  0.00  0.00     0.159 C 
ATOM     19  C9  MOL d         -33.012 -14.126  60.587  0.00  0.00     0.045 C 
ATOM     20  C25 MOL d         -27.631 -22.384  58.354  0.00  0.00     0.181 C 
ATOM     21  C29 MOL d         -31.820 -19.316  57.456  0.00  0.00     0.153 C 
ATOM     22  N24 MOL d         -25.269 -19.816  59.970  0.00  0.00    -0.190 NA
ATOM     23  N3  MOL d         -27.915 -16.690  62.630  0.00  0.00    -0.240 NA
ATOM     24  N21 MOL d         -29.686 -21.361  59.028  0.00  0.00    -0.174 NA
ATOM     25  N20 MOL d         -28.349 -21.321  59.037  0.00  0.00    -0.263 N 
ATOM     26  N26 MOL d         -32.187 -19.126  58.871  0.00  0.00    -0.347 N 
ATOM     27  O30 MOL d         -33.593 -17.313  58.295  0.00  0.00    -0.267 OA
ATOM     28  O7  MOL d         -31.118 -15.232  61.568  0.00  0.00    -0.338 OA
ATOM     29  F16 MOL d         -35.002 -17.260  64.423  0.00  0.00    -0.206 F 
ENDROOT
BRANCH  15  30
ATOM     30  N17 MOL d         -29.006 -14.668  63.268  0.00  0.00    -0.382 N 
ATOM     31  H   MOL d         -28.222 -14.456  63.901  0.00  0.00     0.157 HD
ATOM     32  H   MOL d         -29.801 -14.017  63.196  0.00  0.00     0.157 HD
ENDBRANCH  15  30
TORSDOF 1
