REMARK  8 active torsions:
REMARK  status: ('A' for Active; 'I' for Inactive)
REMARK    1  A    between atoms: C4_4  and  C7_7 
REMARK       I    between atoms: C7_7  and  N1_9 
REMARK    2  A    between atoms: N1_9  and  C8_10 
REMARK    3  A    between atoms: N1_9  and  C21_30 
REMARK    4  A    between atoms: C12_14  and  C14_16 
REMARK    5  A    between atoms: C16_18  and  O4_24 
REMARK    6  A    between atoms: C17_19  and  C18_21 
REMARK    7  A    between atoms: O4_24  and  C19_25 
REMARK    8  A    between atoms: C19_25  and  C20_26 
ROOT
ATOM      1  C8  MOL d          47.242   9.699   0.570  0.00  0.00     0.038 A 
ATOM      2  C9  MOL d          46.124   9.036   0.056  0.00  0.00     0.030 A 
ATOM      3  C10 MOL d          44.878   9.667   0.057  0.00  0.00     0.003 A 
ATOM      4  C11 MOL d          44.728  10.963   0.567  0.00  0.00     0.013 A 
ATOM      5  C12 MOL d          45.838  11.651   1.087  0.00  0.00    -0.015 A 
ATOM      6  C13 MOL d          47.087  11.005   1.080  0.00  0.00     0.042 A 
ENDROOT
BRANCH   1   7
ATOM      7  N1  MOL d          48.554   9.115   0.602  0.00  0.00    -0.309 N 
ATOM      8  C7  MOL d          49.554   9.519  -0.299  0.00  0.00     0.258 C 
ATOM      9  O1  MOL d          50.698   9.063  -0.296  0.00  0.00    -0.267 OA
BRANCH   8  10
ATOM     10  C4  MOL d          49.225  10.542  -1.341  0.00  0.00     0.032 A 
ATOM     11  C3  MOL d          48.305  10.214  -2.352  0.00  0.00     0.017 A 
ATOM     12  C2  MOL d          47.977  11.146  -3.345  0.00  0.00     0.001 A 
ATOM     13  C1  MOL d          48.559  12.416  -3.340  0.00  0.00     0.000 A 
ATOM     14  C6  MOL d          49.475  12.743  -2.336  0.00  0.00     0.001 A 
ATOM     15  C5  MOL d          49.807  11.816  -1.341  0.00  0.00     0.017 A 
ENDBRANCH   8  10
BRANCH   7  16
ATOM     16  C21 MOL d          48.873   8.087   1.643  0.00  0.00     0.093 C 
ATOM     17  C22 MOL d          48.131   6.761   1.428  0.00  0.00     0.026 C 
ATOM     18  C23 MOL d          48.610   5.715   2.425  0.00  0.00     0.002 C 
ATOM     19  C24 MOL d          48.307   6.191   3.842  0.00  0.00     0.000 C 
ATOM     20  C25 MOL d          49.025   7.509   4.134  0.00  0.00     0.002 C 
ATOM     21  C26 MOL d          48.735   8.594   3.087  0.00  0.00     0.026 C 
ENDBRANCH   7  16
ENDBRANCH   1   7
BRANCH   5  22
ATOM     22  C14 MOL d          45.712  13.019   1.606  0.00  0.00     0.036 A 
ATOM     23  C15 MOL d          46.297  13.640   2.697  0.00  0.00     0.064 A 
ATOM     24  C16 MOL d          45.919  15.002   2.862  0.00  0.00     0.112 A 
ATOM     25 BR1  MOL d          47.509  12.818   3.906  0.00  0.00    -0.047 Br
ATOM     26  C17 MOL d          45.022  15.370   1.874  0.00  0.00     0.117 A 
ATOM     27  S1  MOL d          44.683  14.106   0.768  0.00  0.00    -0.078 SA
BRANCH  24  28
ATOM     28  O4  MOL d          46.351  15.808   3.884  0.00  0.00    -0.338 OA
BRANCH  28  29
ATOM     29  C19 MOL d          47.549  16.559   3.640  0.00  0.00     0.288 C 
BRANCH  29  30
ATOM     30  C20 MOL d          47.872  17.279   4.965  0.00  0.00     0.198 C 
ATOM     31  O5  MOL d          48.977  17.870   5.020  0.00  0.00    -0.646 OA
ATOM     32  O6  MOL d          47.002  17.199   5.878  0.00  0.00    -0.646 OA
ENDBRANCH  29  30
ENDBRANCH  28  29
ENDBRANCH  24  28
BRANCH  26  33
ATOM     33  C18 MOL d          44.341  16.758   1.649  0.00  0.00     0.219 C 
ATOM     34  O2  MOL d          43.831  16.897   0.499  0.00  0.00    -0.643 OA
ATOM     35  O3  MOL d          44.333  17.591   2.597  0.00  0.00    -0.643 OA
ENDBRANCH  26  33
ENDBRANCH   5  22
TORSDOF 8
