REMARK  7 active torsions:
REMARK  status: ('A' for Active; 'I' for Inactive)
REMARK    1  A    between atoms: N_1  and  CA_2 
REMARK    2  A    between atoms: CA_2  and  C_3 
REMARK    3  A    between atoms: CA_2  and  CB_5 
REMARK    4  A    between atoms: CB_5  and  CG_6 
REMARK    5  A    between atoms: CG_6  and  CD_7 
REMARK    6  A    between atoms: CD_7  and  CE_8 
REMARK    7  A    between atoms: CE_8  and  NZ_9 
ROOT
ATOM      1  CA  LYS d          25.843  18.494   1.589  0.00  0.00     0.283 C 
ENDROOT
BRANCH   1   2
ATOM      2  N   LYS d          24.472  17.870   1.686  0.00  0.00    -0.065 N 
ATOM      3  H1  LYS d          23.969  18.283   2.456  0.00  0.00     0.275 HD
ATOM      4  H2  LYS d          24.564  16.878   1.838  0.00  0.00     0.275 HD
ATOM      5  H3  LYS d          23.967  18.033   0.829  0.00  0.00     0.275 HD
ENDBRANCH   1   2
BRANCH   1   6
ATOM      6  C   LYS d          26.572  17.845   0.415  0.00  0.00     0.204 C 
ATOM      7  O   LYS d          26.197  16.764  -0.049  0.00  0.00    -0.646 OA
ATOM      8  OXT LYS d          27.551  18.408  -0.092  0.00  0.00    -0.646 OA
ENDBRANCH   1   6
BRANCH   1   9
ATOM      9  CB  LYS d          26.605  18.230   2.879  0.00  0.00     0.044 C 
BRANCH   9  10
ATOM     10  CG  LYS d          27.956  18.919   3.011  0.00  0.00     0.004 C 
BRANCH  10  11
ATOM     11  CD  LYS d          28.608  18.433   4.310  0.00  0.00     0.027 C 
BRANCH  11  12
ATOM     12  CE  LYS d          29.812  19.276   4.662  0.00  0.00     0.229 C 
BRANCH  12  13
ATOM     13  NZ  LYS d          30.273  18.951   6.065  0.00  0.00    -0.079 N 
ATOM     14  H13 LYS d          31.076  19.516   6.294  0.00  0.00     0.274 HD
ATOM     15  H14 LYS d          30.522  17.976   6.120  0.00  0.00     0.274 HD
ATOM     16  H15 LYS d          29.529  19.145   6.717  0.00  0.00     0.274 HD
ENDBRANCH  12  13
ENDBRANCH  11  12
ENDBRANCH  10  11
ENDBRANCH   9  10
ENDBRANCH   1   9
TORSDOF 7
