REMARK  22 active torsions:
REMARK  status: ('A' for Active; 'I' for Inactive)
REMARK    1  A    between atoms: N4B_18  and  C1A_1 
REMARK    2  A    between atoms: C2A_2  and  O2A_8 
REMARK    3  A    between atoms: C3A_3  and  O3A_9 
REMARK    4  A    between atoms: C4A_4  and  O4A_10 
REMARK    5  A    between atoms: C5A_5  and  C6A_6 
REMARK    6  A    between atoms: C6A_6  and  O6A_11 
REMARK    7  A    between atoms: O4C_30  and  C1B_12 
REMARK    8  A    between atoms: C2B_13  and  O2B_19 
REMARK    9  A    between atoms: C3B_14  and  O3B_20 
REMARK   10  A    between atoms: C4B_15  and  N4B_18 
REMARK   11  A    between atoms: O4D_42  and  C1C_22 
REMARK   12  A    between atoms: C2C_23  and  O2C_28 
REMARK   13  A    between atoms: C3C_24  and  O3C_29 
REMARK   14  A    between atoms: C4C_25  and  O4C_30 
REMARK   15  A    between atoms: C5C_26  and  C6C_27 
REMARK   16  A    between atoms: C6C_27  and  O6C_32 
REMARK   17  A    between atoms: C1D_33  and  O1D_39 
REMARK   18  A    between atoms: C2D_34  and  O2D_40 
REMARK   19  A    between atoms: C3D_35  and  O3D_41 
REMARK   20  A    between atoms: C4D_36  and  O4D_42 
REMARK   21  A    between atoms: C5D_37  and  C6D_38 
REMARK   22  A    between atoms: C6D_38  and  O6D_44 
ROOT
ATOM      1  O4C ACR d          -4.128  -6.250  22.631  0.00  0.00    -0.348 OA
ENDROOT
BRANCH   1   2
ATOM      2  C1B ACR d          -4.598  -6.766  23.923  0.00  0.00     0.292 C 
ATOM      3  C2B ACR d          -3.789  -7.990  24.324  0.00  0.00     0.204 C 
ATOM      4  C3B ACR d          -3.891  -8.992  23.181  0.00  0.00     0.184 C 
ATOM      5  C4B ACR d          -5.342  -9.435  23.053  0.00  0.00     0.246 C 
ATOM      6  C5B ACR d          -6.249  -8.208  22.901  0.00  0.00     0.154 C 
ATOM      7  C6B ACR d          -7.724  -8.572  23.149  0.00  0.00     0.042 C 
ATOM      8  O5B ACR d          -5.965  -7.210  23.894  0.00  0.00    -0.351 OA
BRANCH   3   9
ATOM      9  O2B ACR d          -2.435  -7.659  24.623  0.00  0.00    -0.388 OA
ATOM     10  H22 ACR d          -1.966  -8.446  24.874  0.00  0.00     0.210 HD
ENDBRANCH   3   9
BRANCH   4  11
ATOM     11  O3B ACR d          -3.100 -10.181  23.396  0.00  0.00    -0.391 OA
ATOM     12  H23 ACR d          -3.207 -10.769  22.657  0.00  0.00     0.210 HD
ENDBRANCH   4  11
BRANCH   5  13
ATOM     13  N4B ACR d          -5.531 -10.308  21.886  0.00  0.00    -0.056 N 
ATOM     14  H20 ACR d          -6.177  -9.837  21.272  0.00  0.00     0.278 HD
ATOM     15  H21 ACR d          -4.634 -10.386  21.433  0.00  0.00     0.278 HD
BRANCH  13  16
ATOM     16  C1A ACR d          -6.042 -11.692  22.066  0.00  0.00     0.240 C 
ATOM     17  C2A ACR d          -5.260 -12.637  21.171  0.00  0.00     0.184 C 
ATOM     18  C3A ACR d          -5.670 -12.393  19.707  0.00  0.00     0.182 C 
ATOM     19  C4A ACR d          -7.169 -12.709  19.524  0.00  0.00     0.180 C 
ATOM     20  C5A ACR d          -8.038 -12.210  20.647  0.00  0.00    -0.027 C 
ATOM     21  C7A ACR d          -7.520 -11.833  21.821  0.00  0.00     0.016 C 
BRANCH  17  22
ATOM     22  O2A ACR d          -3.839 -12.428  21.301  0.00  0.00    -0.390 OA
ATOM     23  H8  ACR d          -3.378 -13.034  20.733  0.00  0.00     0.210 HD
ENDBRANCH  17  22
BRANCH  18  24
ATOM     24  O3A ACR d          -4.846 -13.124  18.769  0.00  0.00    -0.390 OA
ATOM     25  H9  ACR d          -3.933 -12.904  18.913  0.00  0.00     0.210 HD
ENDBRANCH  18  24
BRANCH  19  26
ATOM     26  O4A ACR d          -7.604 -12.159  18.257  0.00  0.00    -0.388 OA
ATOM     27  H10 ACR d          -7.044 -12.485  17.562  0.00  0.00     0.210 HD
ENDBRANCH  19  26
BRANCH  20  28
ATOM     28  C6A ACR d          -9.527 -12.168  20.375  0.00  0.00     0.201 C 
BRANCH  28  29
ATOM     29  O6A ACR d         -10.336 -11.745  21.493  0.00  0.00    -0.397 OA
ATOM     30  H11 ACR d         -11.251 -11.747  21.239  0.00  0.00     0.209 HD
ENDBRANCH  28  29
ENDBRANCH  20  28
ENDBRANCH  13  16
ENDBRANCH   5  13
ENDBRANCH   1   2
BRANCH   1  31
ATOM     31  C4C ACR d          -4.228  -4.855  22.378  0.00  0.00     0.187 C 
ATOM     32  C3C ACR d          -2.937  -4.454  21.690  0.00  0.00     0.183 C 
ATOM     33  C2C ACR d          -3.014  -2.962  21.347  0.00  0.00     0.204 C 
ATOM     34  C1C ACR d          -4.214  -2.678  20.468  0.00  0.00     0.292 C 
ATOM     35  O5C ACR d          -5.385  -3.116  21.112  0.00  0.00    -0.348 OA
ATOM     36  C5C ACR d          -5.394  -4.507  21.462  0.00  0.00     0.180 C 
BRANCH  32  37
ATOM     37  O3C ACR d          -1.845  -4.621  22.575  0.00  0.00    -0.390 OA
ATOM     38  H32 ACR d          -1.789  -5.532  22.839  0.00  0.00     0.210 HD
ENDBRANCH  32  37
BRANCH  33  39
ATOM     39  O2C ACR d          -1.845  -2.507  20.668  0.00  0.00    -0.388 OA
ATOM     40  H31 ACR d          -1.741  -2.993  19.858  0.00  0.00     0.210 HD
ENDBRANCH  33  39
BRANCH  34  41
ATOM     41  O4D ACR d          -4.060  -3.385  19.231  0.00  0.00    -0.348 OA
BRANCH  41  42
ATOM     42  C4D ACR d          -4.359  -2.612  18.029  0.00  0.00     0.187 C 
ATOM     43  C3D ACR d          -3.041  -2.236  17.367  0.00  0.00     0.183 C 
ATOM     44  C2D ACR d          -3.332  -1.657  15.997  0.00  0.00     0.204 C 
ATOM     45  C1D ACR d          -4.103  -2.635  15.144  0.00  0.00     0.288 C 
ATOM     46  O5D ACR d          -5.364  -2.947  15.790  0.00  0.00    -0.349 OA
ATOM     47  C5D ACR d          -5.237  -3.485  17.148  0.00  0.00     0.180 C 
BRANCH  43  48
ATOM     48  O3D ACR d          -2.373  -1.246  18.153  0.00  0.00    -0.390 OA
ATOM     49  H43 ACR d          -2.203  -1.594  19.020  0.00  0.00     0.210 HD
ENDBRANCH  43  48
BRANCH  44  50
ATOM     50  O2D ACR d          -2.096  -1.248  15.373  0.00  0.00    -0.388 OA
ATOM     51  H42 ACR d          -1.673  -0.590  15.912  0.00  0.00     0.210 HD
ENDBRANCH  44  50
BRANCH  45  52
ATOM     52  O1D ACR d          -3.337  -3.805  15.084  0.00  0.00    -0.369 OA
ATOM     53  H41 ACR d          -2.506  -3.617  14.663  0.00  0.00     0.212 HD
ENDBRANCH  45  52
BRANCH  47  54
ATOM     54  C6D ACR d          -6.651  -3.699  17.706  0.00  0.00     0.198 C 
BRANCH  54  55
ATOM     55  O6D ACR d          -7.285  -2.418  17.655  0.00  0.00    -0.398 OA
ATOM     56  H44 ACR d          -7.310  -2.114  16.755  0.00  0.00     0.209 HD
ENDBRANCH  54  55
ENDBRANCH  47  54
ENDBRANCH  41  42
ENDBRANCH  34  41
BRANCH  36  57
ATOM     57  C6C ACR d          -6.732  -4.778  22.145  0.00  0.00     0.198 C 
BRANCH  57  58
ATOM     58  O6C ACR d          -7.825  -4.639  21.190  0.00  0.00    -0.398 OA
ATOM     59  H33 ACR d          -7.828  -3.756  20.840  0.00  0.00     0.209 HD
ENDBRANCH  57  58
ENDBRANCH  36  57
ENDBRANCH   1  31
TORSDOF 22
