REMARK  2 active torsions:
REMARK  status: ('A' for Active; 'I' for Inactive)
REMARK    1  A    between atoms: C5A_5  and  C4_6 
REMARK    2  A    between atoms: C2_11  and  N7_12 
ROOT
ATOM      1  C4  XDK d           7.211   0.555   9.469  0.00  0.00     0.089 A 
ATOM      2  N3  XDK d           6.728   0.143  10.652  0.00  0.00    -0.063 NA
ATOM      3  C5  XDK d           8.104  -0.221   8.753  0.00  0.00     0.053 A 
ATOM      4  C6  XDK d           8.490  -1.435   9.272  0.00  0.00     0.139 A 
ATOM      5  N1  XDK d           8.023  -1.867  10.444  0.00  0.00    -0.075 NA
ATOM      6  C2  XDK d           7.148  -1.065  11.096  0.00  0.00     0.720 A 
ENDROOT
BRANCH   1   7
ATOM      7  C5A XDK d           6.725   1.873   8.973  0.00  0.00     0.011 A 
ATOM      8  C1A XDK d           6.305   2.038   7.654  0.00  0.00     0.130 A 
ATOM      9  N2A XDK d           5.858   3.203   7.160  0.00  0.00    -0.272 NA
ATOM     10  C3A XDK d           5.806   4.254   7.986  0.00  0.00     0.116 A 
ATOM     11  C7A XDK d           6.212   4.181   9.306  0.00  0.00     0.020 A 
ATOM     12  C9  XDK d           6.669   2.981   9.809  0.00  0.00     0.017 A 
ENDBRANCH   1   7
BRANCH   6  13
ATOM     13  N7  XDK d           6.644  -1.508  12.296  0.00  0.00    -0.231 N 
ATOM     14  H6  XDK d           5.976  -0.925  12.821  0.00  0.00     0.174 HD
ATOM     15  H7  XDK d           6.934  -2.423  12.670  0.00  0.00     0.174 HD
ENDBRANCH   6  13
TORSDOF 2
