REMARK  3 active torsions:
REMARK  status: ('A' for Active; 'I' for Inactive)
REMARK    1  A    between atoms: C2'_9  and  O2'_10 
REMARK    2  A    between atoms: C1'_11  and  N9_13 
REMARK    3  A    between atoms: C6_21  and  N6_22 
ROOT
ATOM      1  O2P MOL d           3.785  23.247  15.367  0.00  0.00    -0.624 OA
ATOM      2  P   MOL d           4.252  21.820  15.466  0.00  0.00     0.408 P 
ATOM      3  O1P MOL d           5.018  21.340  16.661  0.00  0.00    -0.624 OA
ATOM      4  O3' MOL d           3.003  20.826  15.197  0.00  0.00    -0.279 OA
ATOM      5  C3' MOL d           3.455  19.498  15.101  0.00  0.00     0.198 C 
ATOM      6  C4' MOL d           4.421  19.364  13.948  0.00  0.00     0.180 C 
ATOM      7  C5' MOL d           5.681  20.192  14.008  0.00  0.00     0.216 C 
ATOM      8  O5' MOL d           5.220  21.528  14.190  0.00  0.00    -0.287 OA
ATOM      9  C2' MOL d           2.436  18.439  14.760  0.00  0.00     0.199 C 
ATOM     10  C1' MOL d           3.323  17.388  14.130  0.00  0.00     0.261 C 
ATOM     11  O4' MOL d           4.627  17.959  14.003  0.00  0.00    -0.353 OA
ENDROOT
BRANCH  10  12
ATOM     12  N9  MOL d           3.412  16.180  14.955  0.00  0.00    -0.311 N 
ATOM     13  C4  MOL d           2.814  15.046  14.649  0.00  0.00     0.147 A 
ATOM     14  C5  MOL d           3.159  14.093  15.700  0.00  0.00     0.057 A 
ATOM     15  N3  MOL d           2.033  14.663  13.632  0.00  0.00    -0.223 NA
ATOM     16  C7  MOL d           3.990  14.714  16.550  0.00  0.00     0.036 A 
ATOM     17  C6  MOL d           2.556  12.731  15.581  0.00  0.00     0.136 A 
ATOM     18  C8  MOL d           4.136  15.989  16.085  0.00  0.00     0.096 A 
ATOM     19  N1  MOL d           1.765  12.471  14.513  0.00  0.00    -0.224 NA
ATOM     20  C2  MOL d           1.507  13.420  13.592  0.00  0.00     0.237 A 
BRANCH  17  21
ATOM     21  N6  MOL d           2.825  11.769  16.520  0.00  0.00    -0.383 N 
ATOM     22  H   MOL d           2.406  10.832  16.432  0.00  0.00     0.157 HD
ATOM     23  H   MOL d           3.446  11.983  17.313  0.00  0.00     0.157 HD
ENDBRANCH  17  21
ENDBRANCH  10  12
BRANCH   9  24
ATOM     24  O2' MOL d           1.479  18.948  13.816  0.00  0.00    -0.388 OA
ATOM     25  H   MOL d           1.032  19.697  14.192  0.00  0.00     0.210 HD
ENDBRANCH   9  24
TORSDOF 3
