REMARK  4 active torsions:
REMARK  status: ('A' for Active; 'I' for Inactive)
REMARK    1  A    between atoms: CA_5  and  C_11 
REMARK    2  A    between atoms: CB_6  and  CB1_7 
REMARK    3  A    between atoms: CB1_7  and  CG1_9 
REMARK    4  A    between atoms: CG_8  and  CG2_10 
ROOT
ATOM      1  N   KAI d          13.694   3.017  16.100  0.00  0.00    -0.060 N 
ATOM      2  CD  KAI d          14.633   4.148  15.767  0.00  0.00     0.242 C 
ATOM      3  CA  KAI d          14.444   1.813  16.283  0.00  0.00     0.291 C 
ATOM      4  CB  KAI d          15.808   1.943  15.610  0.00  0.00     0.046 C 
ATOM      5  CG  KAI d          15.994   3.347  15.760  0.00  0.00     0.046 C 
ATOM      6  H1  KAI d          13.037   2.892  15.346  0.00  0.00     0.278 HD
ATOM      7  H2  KAI d          13.194   3.234  16.948  0.00  0.00     0.278 HD
ENDROOT
BRANCH   4   8
ATOM      8  CB1 KAI d          15.794   1.710  14.095  0.00  0.00     0.121 C 
BRANCH   8   9
ATOM      9  CG1 KAI d          15.843   0.261  13.672  0.00  0.00     0.172 C 
ATOM     10  OD1 KAI d          15.672   0.033  12.454  0.00  0.00    -0.648 OA
ATOM     11  OD2 KAI d          16.061  -0.594  14.554  0.00  0.00    -0.648 OA
ENDBRANCH   8   9
ENDBRANCH   4   8
BRANCH   3  12
ATOM     12  C   KAI d          14.604   1.473  17.800  0.00  0.00     0.205 C 
ATOM     13  O   KAI d          13.960   2.201  18.585  0.00  0.00    -0.646 OA
ATOM     14  OXT KAI d          15.341   0.505  18.083  0.00  0.00    -0.646 OA
ENDBRANCH   3  12
BRANCH   5  15
ATOM     15  CG2 KAI d          17.268   4.064  15.250  0.00  0.00    -0.087 C 
ATOM     16  CD2 KAI d          18.583   3.570  15.690  0.00  0.00     0.043 C 
ATOM     17  CD1 KAI d          17.086   5.028  14.438  0.00  0.00     0.014 C 
ENDBRANCH   5  15
TORSDOF 4
