REMARK  10 active torsions:
REMARK  status: ('A' for Active; 'I' for Inactive)
REMARK    1  A    between atoms: O3A_8  and  PB_1 
REMARK    2  A    between atoms: PA_5  and  O3A_8 
REMARK    3  A    between atoms: PA_5  and  O5'_9 
REMARK    4  A    between atoms: O5'_9  and  C5'_10 
REMARK    5  A    between atoms: C5'_10  and  C4'_11 
REMARK    6  A    between atoms: C1'_17  and  N9_18 
REMARK    7  A    between atoms: C6_22  and  N6_23 
REMARK    8  A    between atoms: C2F_29  and  N2F_34 
REMARK    9  A    between atoms: C4F_31  and  N4F_35 
REMARK   10  A    between atoms: C6F_33  and  N6F_36 
ROOT
ATOM      1  C4' MOL d         -30.268  18.617 -12.920  0.00  0.00     0.180 C 
ATOM      2  O4' MOL d         -30.681  19.743 -12.160  0.00  0.00    -0.353 OA
ATOM      3  C3' MOL d         -29.016  18.983 -13.726  0.00  0.00     0.190 C 
ATOM      4  O3' MOL d         -29.200  18.713 -15.165  0.00  0.00    -0.337 OA
ATOM      5  C2' MOL d         -28.859  20.473 -13.570  0.00  0.00     0.206 C 
ATOM      6  O2' MOL d         -28.832  20.995 -14.926  0.00  0.00    -0.335 OA
ATOM      7  C1' MOL d         -30.100  20.928 -12.817  0.00  0.00     0.262 C 
ATOM      8  C1F MOL d         -29.140  19.949 -15.903  0.00  0.00     0.247 A 
ATOM      9  C2F MOL d         -27.905  19.891 -16.825  0.00  0.00     0.147 A 
ATOM     10  C3F MOL d         -28.008  20.131 -18.207  0.00  0.00     0.073 A 
ATOM     11  C4F MOL d         -29.217  20.418 -18.834  0.00  0.00     0.103 A 
ATOM     12  C5F MOL d         -30.380  20.502 -18.120  0.00  0.00     0.046 A 
ATOM     13  C6F MOL d         -30.429  20.274 -16.744  0.00  0.00     0.250 A 
ENDROOT
BRANCH   9  14
ATOM     14  N2F MOL d         -26.696  19.608 -16.302  0.00  0.00    -0.114 N 
ATOM     15  O2F MOL d         -26.481  19.362 -14.902  0.00  0.00    -0.532 OA
ATOM     16  O3F MOL d         -25.543  19.557 -17.122  0.00  0.00    -0.532 OA
ENDBRANCH   9  14
BRANCH  13  17
ATOM     17  N6F MOL d         -31.649  20.386 -16.235  0.00  0.00    -0.141 N 
ATOM     18  O6F MOL d         -32.769  20.702 -17.035  0.00  0.00    -0.536 OA
ATOM     19  O7F MOL d         -31.917  20.204 -14.895  0.00  0.00    -0.536 OA
ENDBRANCH  13  17
BRANCH   1  20
ATOM     20  C5' MOL d         -29.832  17.543 -11.885  0.00  0.00     0.216 C 
BRANCH  20  21
ATOM     21  O5' MOL d         -28.644  17.965 -11.239  0.00  0.00    -0.287 OA
BRANCH  21  22
ATOM     22  PA  MOL d         -27.948  17.212  -9.979  0.00  0.00     0.418 P 
ATOM     23  O1A MOL d         -29.028  16.782  -9.050  0.00  0.00    -0.624 OA
ATOM     24  O2A MOL d         -26.824  18.050  -9.495  0.00  0.00    -0.624 OA
BRANCH  22  25
ATOM     25  O3A MOL d         -27.376  15.853 -10.585  0.00  0.00    -0.173 OA
BRANCH  25  26
ATOM     26  PB  MOL d         -26.076  14.951 -10.165  0.00  0.00     0.431 P 
ATOM     27  O1B MOL d         -24.967  15.422 -11.058  0.00  0.00    -0.616 OA
ATOM     28  O2B MOL d         -25.892  15.168  -8.598  0.00  0.00    -0.616 OA
ATOM     29  O3B MOL d         -26.497  13.465 -10.430  0.00  0.00    -0.616 OA
ENDBRANCH  25  26
ENDBRANCH  22  25
ENDBRANCH  21  22
ENDBRANCH  20  21
ENDBRANCH   1  20
BRANCH   7  30
ATOM     30  N9  MOL d         -29.893  21.771 -11.624  0.00  0.00    -0.294 N 
ATOM     31  C8  MOL d         -29.113  21.501 -10.572  0.00  0.00     0.214 A 
ATOM     32  N7  MOL d         -29.209  22.474  -9.675  0.00  0.00    -0.236 NA
ATOM     33  C5  MOL d         -30.051  23.384 -10.178  0.00  0.00     0.149 A 
ATOM     34  C6  MOL d         -30.548  24.589  -9.725  0.00  0.00     0.155 A 
ATOM     35  C4  MOL d         -30.487  22.921 -11.418  0.00  0.00     0.167 A 
ATOM     36  N1  MOL d         -31.436  25.253 -10.496  0.00  0.00    -0.222 NA
ATOM     37  C2  MOL d         -31.819  24.773 -11.680  0.00  0.00     0.237 A 
ATOM     38  N3  MOL d         -31.381  23.632 -12.147  0.00  0.00    -0.222 NA
BRANCH  34  39
ATOM     39  N6  MOL d         -30.158  25.058  -8.541  0.00  0.00    -0.382 N 
ATOM     40  H8  MOL d         -30.525  25.957  -8.197  0.00  0.00     0.157 HD
ATOM     41  H9  MOL d         -29.489  24.522  -7.970  0.00  0.00     0.157 HD
ENDBRANCH  34  39
ENDBRANCH   7  30
BRANCH  11  42
ATOM     42  N4F MOL d         -29.337  20.653 -20.158  0.00  0.00    -0.116 N 
ATOM     43  O4F MOL d         -30.597  20.955 -20.701  0.00  0.00    -0.532 OA
ATOM     44  O5F MOL d         -28.240  20.621 -20.951  0.00  0.00    -0.532 OA
ENDBRANCH  11  42
TORSDOF 10
