REMARK  9 active torsions:
REMARK  status: ('A' for Active; 'I' for Inactive)
REMARK    1  A    between atoms: OA5_1  and  CE1_2 
REMARK    2  A    between atoms: CE1_2  and  CE2_3 
REMARK    3  A    between atoms: CE2_3  and  CE3_4 
REMARK    4  A    between atoms: CE3_4  and  CE4_5 
REMARK    5  A    between atoms: CE4_5  and  CE5_6 
REMARK    6  A    between atoms: CE5_6  and  CE6_7 
REMARK    7  A    between atoms: CE6_7  and  S1_8 
REMARK    8  A    between atoms: S1_8  and  CF4_9 
REMARK    9  A    between atoms: CF7_17  and  NA4_18 
ROOT
ATOM      1  CF4 N11 d           7.653   2.620  25.912  0.00  0.00     0.034 A 
ATOM      2  CL  N11 d           6.846   3.661  25.213  0.00  0.00     0.136 A 
ATOM      3  NA3 N11 d           5.591   4.126  25.393  0.00  0.00    -0.101 NA
ATOM      4  OA2 N11 d           5.443   5.125  24.382  0.00  0.00    -0.106 OA
ATOM      5  NA1 N11 d           6.604   5.289  23.567  0.00  0.00    -0.100 NA
ATOM      6  CI  N11 d           7.478   4.392  24.070  0.00  0.00     0.151 A 
ATOM      7  CF5 N11 d           8.952   2.348  25.485  0.00  0.00     0.023 A 
ATOM      8  CF6 N11 d           9.536   3.027  24.409  0.00  0.00     0.040 A 
ATOM      9  CF7 N11 d           8.872   4.029  23.696  0.00  0.00     0.136 A 
ENDROOT
BRANCH   1  10
ATOM     10  S1  N11 d           7.001   1.751  27.214  0.00  0.00    -0.127 SA
BRANCH  10  11
ATOM     11  CE6 N11 d           7.073   2.723  28.684  0.00  0.00     0.079 C 
BRANCH  11  12
ATOM     12  CE5 N11 d           6.109   2.153  29.721  0.00  0.00     0.010 C 
BRANCH  12  13
ATOM     13  CE4 N11 d           5.686   3.216  30.730  0.00  0.00     0.001 C 
BRANCH  13  14
ATOM     14  CE3 N11 d           4.255   3.683  30.485  0.00  0.00     0.002 C 
BRANCH  14  15
ATOM     15  CE2 N11 d           3.534   3.962  31.800  0.00  0.00     0.026 C 
BRANCH  15  16
ATOM     16  CE1 N11 d           2.064   4.294  31.560  0.00  0.00     0.164 C 
BRANCH  16  17
ATOM     17  OA5 N11 d           1.691   5.434  32.344  0.00  0.00    -0.401 OA
ATOM     18  H1  N11 d           0.775   5.636  32.191  0.00  0.00     0.209 HD
ENDBRANCH  16  17
ENDBRANCH  15  16
ENDBRANCH  14  15
ENDBRANCH  13  14
ENDBRANCH  12  13
ENDBRANCH  11  12
ENDBRANCH  10  11
ENDBRANCH   1  10
BRANCH   9  19
ATOM     19  NA4 N11 d           9.499   4.691  22.632  0.00  0.00    -0.113 N 
ATOM     20  OA4 N11 d           8.781   5.590  21.850  0.00  0.00    -0.532 OA
ATOM     21  OA3 N11 d          10.843   4.471  22.351  0.00  0.00    -0.532 OA
ENDBRANCH   9  19
TORSDOF 9
