REMARK  4 active torsions:
REMARK  status: ('A' for Active; 'I' for Inactive)
REMARK    1  A    between atoms: C1_4  and  N5_5 
REMARK    2  A    between atoms: C6_9  and  O2_10 
REMARK    3  A    between atoms: C5_13  and  C7_14 
REMARK    4  A    between atoms: C7_14  and  C8_16 
ROOT
ATOM      1  O1  0J4 d         -14.569  27.782   3.859  0.00  0.00    -0.171 OA
ATOM      2  C4  0J4 d         -14.745  26.393   4.055  0.00  0.00     0.210 A 
ATOM      3  N1  0J4 d         -15.444  25.688   3.151  0.00  0.00    -0.165 N 
ATOM      4  C1  0J4 d         -15.605  24.367   3.250  0.00  0.00     0.702 A 
ATOM      5  N2  0J4 d         -15.088  23.703   4.291  0.00  0.00    -0.042 NA
ATOM      6  C2  0J4 d         -14.381  24.335   5.243  0.00  0.00     0.207 A 
ATOM      7  C3  0J4 d         -14.187  25.710   5.149  0.00  0.00     0.104 A 
ATOM      8  C6  0J4 d         -13.426  26.319   6.200  0.00  0.00     0.111 A 
ATOM      9  N3  0J4 d         -13.879  23.634   6.235  0.00  0.00    -0.128 NA
ATOM     10  N4  0J4 d         -13.174  24.190   7.206  0.00  0.00    -0.149 NA
ATOM     11  C5  0J4 d         -12.933  25.498   7.222  0.00  0.00     0.105 A 
ATOM     12  H1  0J4 d         -15.858  26.169   2.378  0.00  0.00     0.186 HD
ENDROOT
BRANCH  11  13
ATOM     13  C7  0J4 d         -12.128  26.104   8.385  0.00  0.00     0.139 C 
ATOM     14  C10 0J4 d         -10.845  26.717   7.853  0.00  0.00     0.028 C 
BRANCH  13  15
ATOM     15  C8  0J4 d         -12.782  27.184   9.179  0.00  0.00     0.182 C 
ATOM     16  O4  0J4 d         -13.879  26.972   9.751  0.00  0.00    -0.647 OA
ATOM     17  O3  0J4 d         -12.342  28.331   9.130  0.00  0.00    -0.647 OA
ENDBRANCH  13  15
ENDBRANCH  11  13
BRANCH   8  18
ATOM     18  O2  0J4 d         -13.202  27.697   6.238  0.00  0.00    -0.357 OA
ATOM     19  H4  0J4 d         -12.681  27.911   7.003  0.00  0.00     0.217 HD
ENDBRANCH   8  18
BRANCH   4  20
ATOM     20  N5  0J4 d         -16.348  23.649   2.258  0.00  0.00    -0.233 N 
ATOM     21  H2  0J4 d         -16.468  22.629   2.342  0.00  0.00     0.174 HD
ATOM     22  H3  0J4 d         -16.763  24.152   1.461  0.00  0.00     0.174 HD
ENDBRANCH   4  20
TORSDOF 4
