REMARK  5 active torsions:
REMARK  status: ('A' for Active; 'I' for Inactive)
REMARK    1  A    between atoms: C1_1  and  C7_7 
REMARK    2  A    between atoms: C7_7  and  O8_8 
REMARK    3  A    between atoms: O8_8  and  C9_9 
REMARK    4  A    between atoms: N12_12  and  C15_15 
REMARK    5  A    between atoms: C17_17  and  C26_26 
REMARK       I    between atoms: C26_26  and  N28_28 
ROOT
ATOM      1  C9  I45 d          35.328  37.999  21.281  0.00  0.00     0.093 A 
ATOM      2  C10 I45 d          35.066  39.262  21.678  0.00  0.00     0.112 A 
ATOM      3  C11 I45 d          34.697  39.517  23.096  0.00  0.00     0.272 A 
ATOM      4  N12 I45 d          34.646  38.405  23.923  0.00  0.00    -0.281 N 
ATOM      5  C13 I45 d          34.931  37.125  23.471  0.00  0.00     0.019 A 
ATOM      6  C14 I45 d          35.258  36.900  22.196  0.00  0.00     0.063 A 
ATOM      7 BR23 I45 d          35.159  40.694  20.526  0.00  0.00    -0.042 Br
ATOM      8  O24 I45 d          34.460  40.658  23.459  0.00  0.00    -0.266 OA
ATOM      9  C25 I45 d          34.852  35.997  24.440  0.00  0.00     0.069 C 
ENDROOT
BRANCH   4  10
ATOM     10  C15 I45 d          34.227  38.603  25.247  0.00  0.00     0.049 A 
ATOM     11  C16 I45 d          35.153  39.097  26.148  0.00  0.00     0.047 A 
ATOM     12  C17 I45 d          34.760  39.274  27.460  0.00  0.00     0.034 A 
ATOM     13  C18 I45 d          33.480  38.977  27.868  0.00  0.00     0.017 A 
ATOM     14  C19 I45 d          32.570  38.490  26.964  0.00  0.00     0.010 A 
ATOM     15  C20 I45 d          32.938  38.298  25.650  0.00  0.00    -0.035 A 
ATOM     16  C30 I45 d          31.893  37.763  24.727  0.00  0.00     0.050 C 
BRANCH  12  17
ATOM     17  C26 I45 d          35.720  39.806  28.440  0.00  0.00     0.251 C 
ATOM     18  O27 I45 d          36.586  40.580  28.049  0.00  0.00    -0.268 OA
ATOM     19  N28 I45 d          35.521  39.416  29.753  0.00  0.00    -0.361 N 
ATOM     20  C29 I45 d          35.524  38.042  30.206  0.00  0.00     0.149 C 
ATOM     21  H13 I45 d          35.365  40.132  30.434  0.00  0.00     0.162 HD
ENDBRANCH  12  17
ENDBRANCH   4  10
BRANCH   1  22
ATOM     22  O8  I45 d          35.668  37.774  19.948  0.00  0.00    -0.345 OA
BRANCH  22  23
ATOM     23  C7  I45 d          36.066  36.428  19.589  0.00  0.00     0.217 C 
BRANCH  23  24
ATOM     24  C1  I45 d          36.684  36.668  18.260  0.00  0.00     0.005 A 
ATOM     25  C2  I45 d          38.004  37.048  18.155  0.00  0.00     0.127 A 
ATOM     26  C3  I45 d          38.595  37.304  16.945  0.00  0.00     0.085 A 
ATOM     27  F21 I45 d          38.771  37.171  19.245  0.00  0.00    -0.205 F 
ATOM     28  C4  I45 d          37.849  37.185  15.803  0.00  0.00     0.119 A 
ATOM     29  C5  I45 d          36.526  36.809  15.879  0.00  0.00     0.043 A 
ATOM     30  F22 I45 d          38.434  37.459  14.623  0.00  0.00    -0.206 F 
ATOM     31  C6  I45 d          35.944  36.556  17.105  0.00  0.00     0.015 A 
ENDBRANCH  23  24
ENDBRANCH  22  23
ENDBRANCH   1  22
TORSDOF 5
