REMARK  7 active torsions:
REMARK  status: ('A' for Active; 'I' for Inactive)
REMARK    1  A    between atoms: O8_2  and  C12_3 
REMARK    2  A    between atoms: C9_8  and  C8_9 
REMARK    3  A    between atoms: C5_15  and  C6_16 
REMARK    4  A    between atoms: C6_16  and  O6_17 
REMARK    5  A    between atoms: C4_18  and  O4_19 
REMARK    6  A    between atoms: C3_20  and  O3_21 
REMARK    7  A    between atoms: C2_22  and  O2_23 
ROOT
ATOM      1  C8  M07 d          34.785  24.086  29.820  0.00  0.00     0.077 C 
ATOM      2  C7  M07 d          35.284  23.343  28.582  0.00  0.00     0.136 C 
ATOM      3  N1  M07 d          33.470  24.253  29.695  0.00  0.00    -0.134 NA
ATOM      4  O7  M07 d          32.952  23.697  28.486  0.00  0.00    -0.213 OA
ATOM      5  C1  M07 d          33.993  22.918  27.876  0.00  0.00     0.226 C 
ATOM      6  O5  M07 d          33.775  21.511  28.117  0.00  0.00    -0.341 OA
ATOM      7  C5  M07 d          32.550  20.995  27.530  0.00  0.00     0.180 C 
ATOM      8  C4  M07 d          32.590  21.164  25.995  0.00  0.00     0.180 C 
ATOM      9  C3  M07 d          32.840  22.628  25.607  0.00  0.00     0.183 C 
ATOM     10  C2  M07 d          34.061  23.198  26.357  0.00  0.00     0.214 C 
ENDROOT
BRANCH  10  11
ATOM     11  O2  M07 d          34.164  24.607  26.111  0.00  0.00    -0.387 OA
ATOM     12  H19 M07 d          33.375  25.039  26.417  0.00  0.00     0.210 HD
ENDBRANCH  10  11
BRANCH   1  13
ATOM     13  C9  M07 d          35.571  24.566  30.878  0.00  0.00    -0.009 A 
ATOM     14  C10 M07 d          36.962  24.526  30.783  0.00  0.00     0.016 A 
ATOM     15  C11 M07 d          37.755  25.024  31.822  0.00  0.00     0.037 A 
ATOM     16  C12 M07 d          37.167  25.574  32.960  0.00  0.00     0.068 A 
ATOM     17  C13 M07 d          35.767  25.623  33.053  0.00  0.00     0.037 A 
ATOM     18  C14 M07 d          34.975  25.121  32.015  0.00  0.00     0.016 A 
BRANCH  16  19
ATOM     19  O8  M07 d          37.981  26.051  33.956  0.00  0.00    -0.356 OA
ATOM     20  C15 M07 d          37.264  26.614  35.069  0.00  0.00     0.210 C 
ENDBRANCH  16  19
ENDBRANCH   1  13
BRANCH   7  21
ATOM     21  C6  M07 d          32.408  19.533  27.974  0.00  0.00     0.198 C 
BRANCH  21  22
ATOM     22  O6  M07 d          33.400  18.735  27.309  0.00  0.00    -0.398 OA
ATOM     23  H13 M07 d          34.266  19.054  27.536  0.00  0.00     0.209 HD
ENDBRANCH  21  22
ENDBRANCH   7  21
BRANCH   9  24
ATOM     24  O3  M07 d          33.061  22.731  24.194  0.00  0.00    -0.390 OA
ATOM     25  H17 M07 d          33.215  23.640  23.964  0.00  0.00     0.210 HD
ENDBRANCH   9  24
BRANCH   8  26
ATOM     26  O4  M07 d          31.363  20.696  25.416  0.00  0.00    -0.390 OA
ATOM     27  H15 M07 d          31.398  20.804  24.473  0.00  0.00     0.210 HD
ENDBRANCH   8  26
TORSDOF 7
