REMARK  30 active torsions:
REMARK  status: ('A' for Active; 'I' for Inactive)
REMARK       I    between atoms: C_1  and  N_4 
REMARK    1  A    between atoms: N_4  and  CA_5 
REMARK    2  A    between atoms: CA_5  and  C_6 
REMARK    3  A    between atoms: CA_5  and  CB_8 
REMARK       I    between atoms: C_6  and  N_12 
REMARK    4  A    between atoms: CB_8  and  OG1_9 
REMARK    5  A    between atoms: N_12  and  CA_13 
REMARK    6  A    between atoms: CA_13  and  C_14 
REMARK    7  A    between atoms: CA_13  and  CB_16 
REMARK       I    between atoms: C_14  and  N_20 
REMARK    8  A    between atoms: CB_16  and  CG1_17 
REMARK    9  A    between atoms: N_20  and  CA_21 
REMARK   10  A    between atoms: CA_21  and  C_22 
REMARK   11  A    between atoms: CA_21  and  CB_23 
REMARK   12  A    between atoms: C_22  and  N_27 
REMARK   13  A    between atoms: CB_23  and  CG_24 
REMARK   14  A    between atoms: CG_24  and  CD_25 
REMARK   15  A    between atoms: N_27  and  CA_28 
REMARK   16  A    between atoms: CA_28  and  C_29 
REMARK   17  A    between atoms: CA_28  and  CB_31 
REMARK       I    between atoms: C_29  and  N_35 
REMARK   18  A    between atoms: CB_31  and  CG_32 
REMARK   19  A    between atoms: CG_32  and  CD_33 
REMARK   20  A    between atoms: N_35  and  CA_36 
REMARK   21  A    between atoms: CA_36  and  C_37 
REMARK   22  A    between atoms: CA_36  and  CB_39 
REMARK       I    between atoms: C_37  and  N_44 
REMARK   23  A    between atoms: CB_39  and  CG_40 
REMARK   24  A    between atoms: CG_40  and  CD_41 
REMARK       I    between atoms: CD_41  and  NE2_43 
REMARK   25  A    between atoms: N_44  and  CA_45 
REMARK   26  A    between atoms: CA_45  and  C_46 
REMARK   27  A    between atoms: CA_45  and  CB_48 
REMARK       I    between atoms: C_46  and  N_55 
REMARK   28  A    between atoms: CB_48  and  CG_49 
REMARK   29  A    between atoms: CG_49  and  CD_50 
REMARK   30  A    between atoms: CD_50  and  NE_51 
REMARK       I    between atoms: NE_51  and  CZ_52 
REMARK       I    between atoms: CZ_52  and  NH1_53 
ROOT
ATOM      1  CA  MOL d          14.343  23.017  17.076  0.00  0.00     0.277 C 
ENDROOT
BRANCH   1   2
ATOM      2  N   MOL d          15.582  23.667  17.483  0.00  0.00    -0.060 N 
ATOM      3  H37 MOL d          16.331  23.118  17.091  0.00  0.00     0.278 HD
ATOM      4  H38 MOL d          15.575  24.580  17.056  0.00  0.00     0.278 HD
BRANCH   2   5
ATOM      5  C   MOL d          15.913  23.871  18.859  0.00  0.00     0.258 C 
BRANCH   5   6
ATOM      6  CA  MOL d          17.415  23.822  19.093  0.00  0.00     0.110 C 
BRANCH   6   7
ATOM      7  N   MOL d          18.172  24.823  18.339  0.00  0.00    -0.353 N 
ATOM      8  C   MOL d          18.884  24.478  17.295  0.00  0.00     0.241 C 
ATOM      9  O   MOL d          18.886  23.330  16.831  0.00  0.00    -0.271 OA
ATOM     10  H24 MOL d          18.145  25.781  18.624  0.00  0.00     0.163 HD
BRANCH   8  11
ATOM     11  CA  MOL d          19.726  25.560  16.667  0.00  0.00     0.180 C 
BRANCH  11  12
ATOM     12  N   MOL d          21.047  25.577  17.294  0.00  0.00    -0.346 N 
ATOM     13  C   MOL d          21.539  26.616  17.936  0.00  0.00     0.243 C 
ATOM     14  O   MOL d          20.848  27.627  17.990  0.00  0.00    -0.271 OA
ATOM     15  H13 MOL d          21.609  24.752  17.232  0.00  0.00     0.163 HD
BRANCH  13  16
ATOM     16  CA  MOL d          22.926  26.524  18.615  0.00  0.00     0.205 C 
BRANCH  16  17
ATOM     17  N   MOL d          23.467  25.194  18.701  0.00  0.00    -0.346 N 
ATOM     18  C   MOL d          23.690  24.491  19.803  0.00  0.00     0.214 C 
ATOM     19  O   MOL d          23.355  24.948  20.900  0.00  0.00    -0.274 OA
ATOM     20  CH3 MOL d          24.374  23.137  19.666  0.00  0.00     0.117 C 
ATOM     21  H4  MOL d          23.700  24.751  17.835  0.00  0.00     0.163 HD
ENDBRANCH  16  17
BRANCH  16  22
ATOM     22  CB  MOL d          23.889  27.446  17.834  0.00  0.00     0.148 C 
ATOM     23  CG2 MOL d          25.265  27.489  18.505  0.00  0.00     0.042 C 
BRANCH  22  24
ATOM     24  OG1 MOL d          24.122  26.988  16.493  0.00  0.00    -0.389 OA
ATOM     25  CD1 MOL d          24.646  26.075  15.544  0.00  0.00     0.202 C 
ENDBRANCH  22  24
ENDBRANCH  16  22
ENDBRANCH  13  16
ENDBRANCH  11  12
BRANCH  11  26
ATOM     26  CB  MOL d          19.843  25.358  15.146  0.00  0.00     0.013 C 
ATOM     27  CG2 MOL d          18.502  25.486  14.476  0.00  0.00     0.012 C 
BRANCH  26  28
ATOM     28  CG1 MOL d          20.881  26.270  14.509  0.00  0.00     0.002 C 
ATOM     29  CD1 MOL d          20.686  27.751  14.604  0.00  0.00     0.005 C 
ENDBRANCH  26  28
ENDBRANCH  11  26
ENDBRANCH   8  11
ENDBRANCH   6   7
BRANCH   6  30
ATOM     30  CB  MOL d          17.704  23.974  20.597  0.00  0.00     0.027 C 
BRANCH  30  31
ATOM     31  CG  MOL d          19.190  24.082  20.929  0.00  0.00     0.002 C 
BRANCH  31  32
ATOM     32  CD  MOL d          19.951  22.841  20.553  0.00  0.00    -0.004 C 
ATOM     33  CE  MOL d          19.354  21.540  21.095  0.00  0.00     0.005 C 
ENDBRANCH  31  32
ENDBRANCH  30  31
ENDBRANCH   6  30
ENDBRANCH   5   6
ENDBRANCH   2   5
ENDBRANCH   1   2
BRANCH   1  34
ATOM     34  C   MOL d          14.318  21.558  17.544  0.00  0.00     0.249 C 
ATOM     35  O   MOL d          15.283  20.794  17.520  0.00  0.00    -0.271 OA
ATOM     36  N   MOL d          13.146  21.107  17.952  0.00  0.00    -0.346 N 
ATOM     37  H49 MOL d          12.352  21.714  17.977  0.00  0.00     0.163 HD
BRANCH  36  38
ATOM     38  CA  MOL d          13.021  19.706  18.369  0.00  0.00     0.177 C 
BRANCH  38  39
ATOM     39  C   MOL d          11.596  19.256  18.015  0.00  0.00     0.241 C 
ATOM     40  O   MOL d          10.589  19.920  18.291  0.00  0.00    -0.271 OA
ATOM     41  N   MOL d          11.517  18.050  17.471  0.00  0.00    -0.346 N 
ATOM     42  H57 MOL d          12.357  17.528  17.322  0.00  0.00     0.163 HD
BRANCH  41  43
ATOM     43  CA  MOL d          10.232  17.460  17.081  0.00  0.00     0.176 C 
BRANCH  43  44
ATOM     44  C   MOL d          10.136  16.078  17.714  0.00  0.00     0.238 C 
ATOM     45  O   MOL d          11.101  15.306  17.673  0.00  0.00    -0.271 OA
ATOM     46  N   MOL d           8.939  15.617  18.361  0.00  0.00    -0.368 N 
ATOM     47  H70 MOL d           8.910  14.703  18.767  0.00  0.00     0.159 HD
ATOM     48  H71 MOL d           8.135  16.210  18.406  0.00  0.00     0.159 HD
ENDBRANCH  43  44
BRANCH  43  49
ATOM     49  CB  MOL d          10.114  17.370  15.575  0.00  0.00     0.036 C 
BRANCH  49  50
ATOM     50  CG  MOL d          10.178  18.610  14.734  0.00  0.00     0.023 C 
BRANCH  50  51
ATOM     51  CD  MOL d           9.906  18.316  13.264  0.00  0.00     0.138 C 
BRANCH  51  52
ATOM     52  NE  MOL d           8.737  18.977  12.664  0.00  0.00    -0.227 N 
ATOM     53  CZ  MOL d           8.157  18.596  11.527  0.00  0.00     0.665 C 
ATOM     54  NH1 MOL d           8.619  17.545  10.839  0.00  0.00    -0.235 N 
ATOM     55  NH2 MOL d           7.100  19.197  10.983  0.00  0.00    -0.235 N 
ATOM     56  H66 MOL d           8.160  17.262   9.961  0.00  0.00     0.174 HD
ATOM     57  H67 MOL d           9.433  17.019  11.187  0.00  0.00     0.174 HD
ATOM     58  H68 MOL d           6.678  20.015  11.445  0.00  0.00     0.174 HD
ATOM     59  H69 MOL d           6.704  18.843  10.100  0.00  0.00     0.174 HD
ATOM     60  H65 MOL d           8.340  19.790  13.156  0.00  0.00     0.177 HD
ENDBRANCH  51  52
ENDBRANCH  50  51
ENDBRANCH  49  50
ENDBRANCH  43  49
ENDBRANCH  41  43
ENDBRANCH  38  39
BRANCH  38  61
ATOM     61  CB  MOL d          13.399  19.479  19.831  0.00  0.00     0.044 C 
BRANCH  61  62
ATOM     62  CG  MOL d          13.235  18.090  20.377  0.00  0.00     0.105 C 
BRANCH  62  63
ATOM     63  CD  MOL d          11.856  17.781  20.889  0.00  0.00     0.215 C 
ATOM     64  OE1 MOL d          11.150  18.702  21.231  0.00  0.00    -0.274 OA
ATOM     65  NE2 MOL d          11.375  16.569  20.872  0.00  0.00    -0.370 N 
ATOM     66  H55 MOL d          10.454  16.392  21.219  0.00  0.00     0.159 HD
ATOM     67  H56 MOL d          11.927  15.817  20.512  0.00  0.00     0.159 HD
ENDBRANCH  62  63
ENDBRANCH  61  62
ENDBRANCH  38  61
ENDBRANCH  36  38
ENDBRANCH   1  34
BRANCH   1  68
ATOM     68  CB  MOL d          14.110  23.034  15.579  0.00  0.00     0.043 C 
BRANCH  68  69
ATOM     69  CG  MOL d          13.046  22.236  14.876  0.00  0.00     0.002 C 
BRANCH  69  70
ATOM     70  CD  MOL d          13.568  21.086  14.036  0.00  0.00    -0.004 C 
ATOM     71  CE  MOL d          14.536  21.433  12.914  0.00  0.00     0.005 C 
ENDBRANCH  69  70
ENDBRANCH  68  69
ENDBRANCH   1  68
TORSDOF 30
