REMARK  13 active torsions:
REMARK  status: ('A' for Active; 'I' for Inactive)
REMARK    1  A    between atoms: C1_1  and  O1_2 
REMARK    2  A    between atoms: O1_2  and  C1'_13 
REMARK    3  A    between atoms: C2_3  and  O2_4 
REMARK    4  A    between atoms: C3_5  and  O3_6 
REMARK    5  A    between atoms: C4_7  and  O4_8 
REMARK    6  A    between atoms: C5_9  and  C6_11 
REMARK    7  A    between atoms: C6_11  and  O6_12 
REMARK    8  A    between atoms: C3'_15  and  N1'_19 
REMARK    9  A    between atoms: C5'_17  and  C7'_22 
REMARK       I    between atoms: C7'_22  and  N2'_24 
REMARK   10  A    between atoms: N2'_24  and  C9'_33 
REMARK   11  A    between atoms: C7'_31  and  N4'_28 
REMARK   12  A    between atoms: C8'_32  and  C7'_31 
REMARK   13  A    between atoms: C9'_33  and  C8'_32 
ROOT
ATOM      1  C1' A32 d          50.122  -0.016  -2.754  0.00  0.00     0.075 A 
ATOM      2  C2' A32 d          50.980   0.095  -3.847  0.00  0.00     0.073 A 
ATOM      3  C3' A32 d          50.649  -0.610  -5.019  0.00  0.00     0.106 A 
ATOM      4  C4' A32 d          49.452  -1.398  -4.968  0.00  0.00     0.053 A 
ATOM      5  C5' A32 d          48.599  -1.491  -3.849  0.00  0.00     0.037 A 
ATOM      6  C6' A32 d          48.951  -0.762  -2.676  0.00  0.00     0.054 A 
ENDROOT
BRANCH   1   7
ATOM      7  O1  A32 d          50.409   0.684  -1.520  0.00  0.00    -0.318 OA
BRANCH   7   8
ATOM      8  C1  A32 d          50.204   2.131  -1.649  0.00  0.00     0.298 C 
ATOM      9  O5  A32 d          48.785   2.366  -1.564  0.00  0.00    -0.348 OA
ATOM     10  C5  A32 d          48.246   1.919  -0.296  0.00  0.00     0.179 C 
ATOM     11  C4  A32 d          48.931   2.676   0.852  0.00  0.00     0.180 C 
ATOM     12  C3  A32 d          50.495   2.536   0.812  0.00  0.00     0.183 C 
ATOM     13  C2  A32 d          50.912   3.024  -0.590  0.00  0.00     0.205 C 
BRANCH  10  14
ATOM     14  C6  A32 d          46.709   2.026  -0.323  0.00  0.00     0.198 C 
BRANCH  14  15
ATOM     15  O6  A32 d          46.130   1.097  -1.210  0.00  0.00    -0.398 OA
ATOM     16  H11 A32 d          45.185   1.195  -1.197  0.00  0.00     0.209 HD
ENDBRANCH  14  15
ENDBRANCH  10  14
BRANCH  11  17
ATOM     17  O4  A32 d          48.554   4.036   0.938  0.00  0.00    -0.390 OA
ATOM     18  H7  A32 d          49.010   4.445   1.664  0.00  0.00     0.210 HD
ENDBRANCH  11  17
BRANCH  12  19
ATOM     19  O3  A32 d          50.990   3.494   1.729  0.00  0.00    -0.390 OA
ATOM     20  H5  A32 d          50.714   4.362   1.459  0.00  0.00     0.210 HD
ENDBRANCH  12  19
BRANCH  13  21
ATOM     21  O2  A32 d          52.340   3.037  -0.663  0.00  0.00    -0.388 OA
ATOM     22  H3  A32 d          52.684   3.624  -0.000  0.00  0.00     0.210 HD
ENDBRANCH  13  21
ENDBRANCH   7   8
ENDBRANCH   1   7
BRANCH   5  23
ATOM     23  C7' A32 d          47.386  -2.225  -3.744  0.00  0.00     0.251 C 
ATOM     24  N2' A32 d          46.744  -2.657  -4.709  0.00  0.00    -0.357 N 
ATOM     25  H15 A32 d          45.969  -3.229  -4.440  0.00  0.00     0.162 HD
ATOM     26  O3' A32 d          46.991  -2.333  -2.524  0.00  0.00    -0.268 OA
BRANCH  24  27
ATOM     27  C9' A32 d          46.869  -2.516  -6.112  0.00  0.00     0.124 C 
BRANCH  27  28
ATOM     28  C8' A32 d          47.324  -3.861  -6.750  0.00  0.00     0.047 C 
BRANCH  28  29
ATOM     29  C7' A32 d          47.247  -4.907  -5.647  0.00  0.00     0.236 C 
BRANCH  29  30
ATOM     30  N4' A32 d          47.881  -6.243  -5.871  0.00  0.00    -0.067 N 
ATOM     31  C5' A32 d          46.898  -7.380  -5.823  0.00  0.00     0.261 C 
ATOM     32  C6' A32 d          46.844  -8.132  -4.496  0.00  0.00     0.195 C 
ATOM     33  O1' A32 d          48.119  -8.653  -4.099  0.00  0.00    -0.388 OA
ATOM     34  C2' A32 d          49.248  -7.863  -4.365  0.00  0.00     0.195 C 
ATOM     35  C3' A32 d          49.144  -6.563  -5.124  0.00  0.00     0.261 C 
ATOM     36  H20 A32 d          48.178  -6.203  -6.834  0.00  0.00     0.280 HD
ENDBRANCH  29  30
ENDBRANCH  28  29
ENDBRANCH  27  28
ENDBRANCH  24  27
ENDBRANCH   5  23
BRANCH   3  37
ATOM     37  N1' A32 d          51.394  -0.653  -6.217  0.00  0.00    -0.116 N 
ATOM     38  O2' A32 d          52.526  -0.137  -6.344  0.00  0.00    -0.532 OA
ATOM     39  O1' A32 d          50.848  -1.325  -7.161  0.00  0.00    -0.532 OA
ENDBRANCH   3  37
TORSDOF 13
