REMARK  7 active torsions:
REMARK  status: ('A' for Active; 'I' for Inactive)
REMARK    1  A    between atoms: N1_1  and  C1_3 
REMARK    2  A    between atoms: C1_3  and  C2_4 
REMARK    3  A    between atoms: C5_7  and  N_10 
REMARK    4  A    between atoms: N_10  and  C_11 
REMARK    5  A    between atoms: C_11  and  C8_13 
REMARK    6  A    between atoms: C12_19  and  C9_22 
REMARK    7  A    between atoms: C9_22  and  N4_23 
ROOT
ATOM      1  N3  R11 d          -3.427   4.397  23.581  0.00  0.00    -0.231 NA
ATOM      2  C8  R11 d          -2.187   3.984  23.076  0.00  0.00     0.124 A 
ATOM      3  N9  R11 d          -1.032   3.998  23.896  0.00  0.00    -0.336 N 
ATOM      4  C3A R11 d          -1.631   4.496  25.063  0.00  0.00     0.064 A 
ATOM      5  C7A R11 d          -3.050   4.731  24.859  0.00  0.00     0.086 A 
ATOM      6  C10 R11 d          -1.043   4.780  26.340  0.00  0.00     0.033 A 
ATOM      7  C11 R11 d          -1.856   5.296  27.373  0.00  0.00     0.011 A 
ATOM      8  C12 R11 d          -3.248   5.526  27.169  0.00  0.00    -0.037 A 
ATOM      9  C13 R11 d          -3.857   5.247  25.917  0.00  0.00     0.043 A 
ATOM     10  C14 R11 d           0.383   3.616  23.599  0.00  0.00     0.158 C 
ENDROOT
BRANCH   2  11
ATOM     11  C   R11 d          -2.123   3.525  21.606  0.00  0.00     0.198 C 
BRANCH  11  12
ATOM     12  N   R11 d          -1.597   4.533  20.648  0.00  0.00    -0.383 N 
ATOM     13  H9  R11 d          -0.746   4.273  20.129  0.00  0.00     0.160 HD
BRANCH  12  14
ATOM     14  C5  R11 d          -2.149   5.838  20.366  0.00  0.00     0.028 A 
ATOM     15  C4  R11 d          -3.447   6.201  20.798  0.00  0.00     0.030 A 
ATOM     16  C3  R11 d          -3.964   7.475  20.510  0.00  0.00     0.017 A 
ATOM     17  C2  R11 d          -3.207   8.444  19.776  0.00  0.00     0.007 A 
ATOM     18  C7  R11 d          -1.885   8.048  19.349  0.00  0.00     0.017 A 
ATOM     19  C6  R11 d          -1.371   6.764  19.643  0.00  0.00     0.030 A 
BRANCH  17  20
ATOM     20  C1  R11 d          -3.740   9.713  19.491  0.00  0.00     0.102 C 
ATOM     21  N2  R11 d          -3.070  10.713  18.952  0.00  0.00    -0.385 N 
ATOM     22  H3  R11 d          -2.080  10.591  18.695  0.00  0.00     0.157 HD
ATOM     23  H4  R11 d          -3.537  11.616  18.788  0.00  0.00     0.157 HD
BRANCH  20  24
ATOM     24  N1  R11 d          -4.986  10.071  19.745  0.00  0.00    -0.385 N 
ATOM     25  H1  R11 d          -5.308  11.020  19.508  0.00  0.00     0.157 HD
ATOM     26  H2  R11 d          -5.636   9.401  20.180  0.00  0.00     0.157 HD
ENDBRANCH  20  24
ENDBRANCH  17  20
ENDBRANCH  12  14
ENDBRANCH  11  12
ENDBRANCH   2  11
BRANCH   8  27
ATOM     27  C9  R11 d          -4.094   6.089  28.303  0.00  0.00     0.169 C 
BRANCH  27  28
ATOM     28  N4  R11 d          -3.588   5.790  29.678  0.00  0.00    -0.329 N 
ATOM     29  C15 R11 d          -3.720   4.649  30.501  0.00  0.00     0.103 A 
ATOM     30  N16 R11 d          -3.151   4.589  31.781  0.00  0.00    -0.234 NA
ATOM     31  C23 R11 d          -4.481   3.410  30.023  0.00  0.00     0.091 C 
ATOM     32  C17 R11 d          -2.577   5.861  31.792  0.00  0.00     0.085 A 
ATOM     33  C18 R11 d          -2.835   6.576  30.558  0.00  0.00     0.065 A 
ATOM     34  C19 R11 d          -1.829   6.482  32.845  0.00  0.00     0.034 A 
ATOM     35  C22 R11 d          -2.325   7.905  30.387  0.00  0.00     0.032 A 
ATOM     36  C21 R11 d          -1.578   8.496  31.438  0.00  0.00     0.002 A 
ATOM     37  C20 R11 d          -1.337   7.795  32.645  0.00  0.00     0.002 A 
ENDBRANCH  27  28
ENDBRANCH   8  27
TORSDOF 7
