REMARK  5 active torsions:
REMARK  status: ('A' for Active; 'I' for Inactive)
REMARK    1  A    between atoms: N_1  and  CA_2 
REMARK    2  A    between atoms: CA_2  and  C_3 
REMARK    3  A    between atoms: CA_2  and  CB_5 
REMARK    4  A    between atoms: CB_5  and  CG_6 
REMARK    5  A    between atoms: CG_6  and  SD_7 
ROOT
ATOM      1  CA  MET d           3.230  50.625  -7.461  0.00  0.00     0.284 C 
ENDROOT
BRANCH   1   2
ATOM      2  N   MET d           3.526  49.179  -7.545  0.00  0.00    -0.065 N 
ATOM      3  H1  MET d           4.501  49.048  -7.765  0.00  0.00     0.275 HD
ATOM      4  H2  MET d           2.960  48.761  -8.267  0.00  0.00     0.275 HD
ATOM      5  H3  MET d           3.319  48.742  -6.661  0.00  0.00     0.275 HD
ENDBRANCH   1   2
BRANCH   1   6
ATOM      6  C   MET d           1.778  50.849  -7.133  0.00  0.00     0.204 C 
ATOM      7  O   MET d           0.970  49.879  -7.042  0.00  0.00    -0.646 OA
ATOM      8  OXT MET d           1.334  51.990  -6.957  0.00  0.00    -0.646 OA
ENDBRANCH   1   6
BRANCH   1   9
ATOM      9  CB  MET d           3.590  51.380  -8.746  0.00  0.00     0.054 C 
BRANCH   9  10
ATOM     10  CG  MET d           5.049  51.742  -8.804  0.00  0.00     0.076 C 
BRANCH  10  11
ATOM     11  SD  MET d           5.367  53.040  -7.529  0.00  0.00    -0.173 SA
ATOM     12  CE  MET d           7.155  52.921  -7.376  0.00  0.00     0.089 C 
ENDBRANCH  10  11
ENDBRANCH   9  10
ENDBRANCH   1   9
TORSDOF 5
