REMARK  10 active torsions:
REMARK  status: ('A' for Active; 'I' for Inactive)
REMARK    1  A    between atoms: C12_12  and  C21_21 
REMARK    2  A    between atoms: C13_13  and  C22_22 
REMARK    3  A    between atoms: C24_24  and  C14_14 
REMARK    4  A    between atoms: C25_25  and  C15_15 
REMARK    5  A    between atoms: C26_26  and  C16_16 
REMARK    6  A    between atoms: C27_27  and  C20_20 
REMARK       I    between atoms: C21_21  and  N28_28 
REMARK    7  A    between atoms: N28_28  and  C24_24 
REMARK    8  A    between atoms: N29_29  and  C25_25 
REMARK    9  A    between atoms: N29_29  and  C26_26 
REMARK   10  A    between atoms: C27_27  and  N29_29 
ROOT
ATOM      1  C25 N44 d         -10.260  48.639   1.757  0.00  0.00     0.275 C 
ENDROOT
BRANCH   1   2
ATOM      2  C15 N44 d         -10.328  48.382   3.222  0.00  0.00    -0.017 A 
ATOM      3  C9  N44 d         -11.316  49.026   3.942  0.00  0.00     0.010 A 
ATOM      4  C5  N44 d         -11.443  48.843   5.308  0.00  0.00     0.001 A 
ATOM      5  C2  N44 d         -10.561  48.006   5.946  0.00  0.00     0.001 A 
ATOM      6  C6  N44 d          -9.569  47.355   5.237  0.00  0.00     0.017 A 
ATOM      7  C12 N44 d          -9.442  47.532   3.870  0.00  0.00     0.040 A 
BRANCH   7   8
ATOM      8  C21 N44 d          -8.353  46.817   3.140  0.00  0.00     0.252 C 
ATOM      9  N28 N44 d          -8.114  45.485   3.450  0.00  0.00    -0.353 N 
ATOM     10  H25 N44 d          -8.671  45.028   4.143  0.00  0.00     0.163 HD
ATOM     11  O31 N44 d          -7.701  47.422   2.303  0.00  0.00    -0.268 OA
BRANCH   9  12
ATOM     12  C24 N44 d          -7.061  44.755   2.774  0.00  0.00     0.161 C 
BRANCH  12  13
ATOM     13  C14 N44 d          -7.625  43.854   1.721  0.00  0.00    -0.041 A 
ATOM     14  C7  N44 d          -7.831  42.517   1.982  0.00  0.00     0.009 A 
ATOM     15  C3  N44 d          -8.366  41.688   1.024  0.00  0.00     0.001 A 
ATOM     16  C1  N44 d          -8.699  42.190  -0.216  0.00  0.00     0.000 A 
ATOM     17  C4  N44 d          -8.479  43.521  -0.493  0.00  0.00     0.001 A 
ATOM     18  C8  N44 d          -7.950  44.351   0.473  0.00  0.00     0.009 A 
ENDBRANCH  12  13
ENDBRANCH   9  12
ENDBRANCH   7   8
ENDBRANCH   1   2
BRANCH   1  19
ATOM     19  N29 N44 d         -11.236  47.879   0.933  0.00  0.00    -0.060 N 
ATOM     20  H26 N44 d         -12.090  47.917   1.467  0.00  0.00     0.281 HD
BRANCH  19  21
ATOM     21  C26 N44 d         -10.979  46.401   0.795  0.00  0.00     0.275 C 
BRANCH  21  22
ATOM     22  C16 N44 d         -11.930  45.792  -0.196  0.00  0.00    -0.013 A 
ATOM     23  C10 N44 d         -11.415  45.410  -1.435  0.00  0.00     0.013 A 
ATOM     24  C11 N44 d         -12.224  44.844  -2.412  0.00  0.00     0.040 A 
ATOM     25  C17 N44 d         -13.554  44.685  -2.097  0.00  0.00     0.106 A 
ATOM     26  C18 N44 d         -14.072  45.058  -0.882  0.00  0.00     0.122 A 
ATOM     27  O33 N44 d         -14.497  44.151  -2.940  0.00  0.00    -0.323 OA
ATOM     28  C13 N44 d         -13.284  45.628   0.109  0.00  0.00     0.085 A 
ATOM     29  O34 N44 d         -15.442  44.802  -0.811  0.00  0.00    -0.322 OA
ATOM     30  C23 N44 d         -15.678  44.229  -2.110  0.00  0.00     0.352 A 
BRANCH  28  31
ATOM     31  C22 N44 d         -13.863  46.014   1.447  0.00  0.00     0.212 C 
ATOM     32  O30 N44 d         -14.825  45.312   1.866  0.00  0.00    -0.644 OA
ATOM     33  O32 N44 d         -13.362  46.969   2.113  0.00  0.00    -0.644 OA
ENDBRANCH  28  31
ENDBRANCH  21  22
ENDBRANCH  19  21
BRANCH  19  34
ATOM     34  C27 N44 d         -11.565  48.604  -0.340  0.00  0.00     0.262 C 
BRANCH  34  35
ATOM     35  C20 N44 d         -10.442  48.677  -1.317  0.00  0.00    -0.010 C 
ATOM     36  C19 N44 d          -9.775  49.815  -1.544  0.00  0.00     0.008 C 
ENDBRANCH  34  35
ENDBRANCH  19  34
ENDBRANCH   1  19
TORSDOF 10
