REMARK  14 active torsions:
REMARK  status: ('A' for Active; 'I' for Inactive)
REMARK    1  A    between atoms: C2_3  and  O39_1 
REMARK    2  A    between atoms: S8_9  and  C5_6 
REMARK    3  A    between atoms: N11_12  and  S8_9 
REMARK    4  A    between atoms: N11_12  and  C12_13 
REMARK    5  A    between atoms: C16_20  and  N11_12 
REMARK    6  A    between atoms: C12_13  and  C13_14 
REMARK    7  A    between atoms: C17_21  and  C16_20 
REMARK    8  A    between atoms: C17_21  and  O18_22 
REMARK    9  A    between atoms: C19_23  and  C17_21 
REMARK   10  A    between atoms: C19_23  and  N20_24 
REMARK   11  A    between atoms: C32_36  and  C19_23 
REMARK       I    between atoms: N20_24  and  C21_25 
REMARK   12  A    between atoms: C21_25  and  O23_27 
REMARK   13  A    between atoms: O23_27  and  C25_29 
REMARK   14  A    between atoms: C38_42  and  C32_36 
ROOT
ATOM      1  C17 MOL d          15.361  24.345  17.744  0.00  0.00     0.160 C 
ENDROOT
BRANCH   1   2
ATOM      2  C16 MOL d          16.490  25.244  17.252  0.00  0.00     0.169 C 
BRANCH   2   3
ATOM      3  N11 MOL d          17.718  24.480  17.174  0.00  0.00    -0.302 N 
BRANCH   3   4
ATOM      4  S8  MOL d          18.397  24.264  15.711  0.00  0.00     0.261 S 
ATOM      5  O9  MOL d          17.361  24.092  14.669  0.00  0.00    -0.200 OA
ATOM      6  O10 MOL d          19.332  23.116  15.928  0.00  0.00    -0.200 OA
BRANCH   4   7
ATOM      7  C5  MOL d          19.424  25.639  15.327  0.00  0.00     0.079 A 
ATOM      8  C4  MOL d          20.777  25.631  15.643  0.00  0.00     0.028 A 
ATOM      9  C3  MOL d          21.552  26.756  15.394  0.00  0.00     0.038 A 
ATOM     10  C2  MOL d          20.974  27.887  14.806  0.00  0.00     0.068 A 
ATOM     11  C7  MOL d          19.635  27.876  14.450  0.00  0.00     0.038 A 
ATOM     12  C6  MOL d          18.870  26.759  14.740  0.00  0.00     0.028 A 
BRANCH  10  13
ATOM     13  O39 MOL d          21.707  29.021  14.601  0.00  0.00    -0.356 OA
ATOM     14  C40 MOL d          23.098  28.712  14.752  0.00  0.00     0.210 C 
ENDBRANCH  10  13
ENDBRANCH   4   7
ENDBRANCH   3   4
BRANCH   3  15
ATOM     15  C12 MOL d          18.679  24.831  18.207  0.00  0.00     0.160 C 
BRANCH  15  16
ATOM     16  C13 MOL d          18.088  24.512  19.582  0.00  0.00     0.103 C 
ATOM     17  C14 MOL d          18.065  23.023  19.854  0.00  0.00     0.036 C 
ATOM     18  C47 MOL d          19.392  22.781  20.596  0.00  0.00     0.105 C 
ATOM     19  C45 MOL d          19.776  24.165  21.094  0.00  0.00     0.218 C 
ATOM     20  N15 MOL d          19.013  25.090  20.569  0.00  0.00    -0.355 N 
ATOM     21  O46 MOL d          20.663  24.415  21.886  0.00  0.00    -0.274 OA
ATOM     22  H13 MOL d          19.053  26.060  20.807  0.00  0.00     0.162 HD
ENDBRANCH  15  16
ENDBRANCH   3  15
ENDBRANCH   2   3
ENDBRANCH   1   2
BRANCH   1  23
ATOM     23  O18 MOL d          14.185  25.062  18.066  0.00  0.00    -0.392 OA
ATOM     24  H19 MOL d          13.518  24.456  18.365  0.00  0.00     0.210 HD
ENDBRANCH   1  23
BRANCH   1  25
ATOM     25  C19 MOL d          15.011  23.228  16.777  0.00  0.00     0.121 C 
BRANCH  25  26
ATOM     26  N20 MOL d          14.115  22.280  17.451  0.00  0.00    -0.329 N 
ATOM     27  C21 MOL d          14.439  21.099  17.962  0.00  0.00     0.361 C 
ATOM     28  O22 MOL d          15.587  20.617  17.974  0.00  0.00    -0.238 OA
ATOM     29  H21 MOL d          13.157  22.554  17.534  0.00  0.00     0.165 HD
BRANCH  27  30
ATOM     30  O23 MOL d          13.390  20.424  18.529  0.00  0.00    -0.299 OA
BRANCH  30  31
ATOM     31  C25 MOL d          13.710  19.049  18.825  0.00  0.00     0.136 C 
ATOM     32  C24 MOL d          13.697  18.205  17.539  0.00  0.00     0.040 C 
ATOM     33  C31 MOL d          12.257  17.785  17.336  0.00  0.00     0.019 C 
ATOM     34  C27 MOL d          11.484  18.212  18.563  0.00  0.00     0.128 C 
ATOM     35  C30 MOL d          11.525  18.455  16.174  0.00  0.00     0.033 C 
ATOM     36  C26 MOL d          12.523  18.519  19.626  0.00  0.00     0.065 C 
ATOM     37  O28 MOL d          10.683  19.332  18.204  0.00  0.00    -0.385 OA
ATOM     38  C29 MOL d          10.679  19.545  16.797  0.00  0.00     0.168 C 
ENDBRANCH  30  31
ENDBRANCH  27  30
ENDBRANCH  25  26
BRANCH  25  39
ATOM     39  C32 MOL d          14.412  23.700  15.450  0.00  0.00     0.066 C 
BRANCH  39  40
ATOM     40  C38 MOL d          14.037  22.509  14.558  0.00  0.00    -0.056 C 
ATOM     41  C33 MOL d          12.716  22.181  14.277  0.00  0.00     0.007 C 
ATOM     42  C34 MOL d          12.352  21.039  13.558  0.00  0.00     0.001 C 
ATOM     43  C35 MOL d          13.352  20.313  12.931  0.00  0.00     0.000 C 
ATOM     44  C36 MOL d          14.689  20.635  13.170  0.00  0.00     0.001 C 
ATOM     45  C37 MOL d          15.028  21.732  13.977  0.00  0.00     0.007 C 
ENDBRANCH  39  40
ENDBRANCH  25  39
ENDBRANCH   1  25
TORSDOF 14
