REMARK  5 active torsions:
REMARK  status: ('A' for Active; 'I' for Inactive)
REMARK    1  A    between atoms: C33_2  and  C29_5 
REMARK    2  A    between atoms: C27_10  and  N26_11 
REMARK       I    between atoms: N26_11  and  C25_12 
REMARK       I    between atoms: C25_12  and  N24_14 
REMARK    3  A    between atoms: N24_14  and  C17_15 
REMARK    4  A    between atoms: C14_20  and  N11_21 
REMARK    5  A    between atoms: C9_26  and  C22_27 
REMARK       I    between atoms: C22_27  and  N4_28 
ROOT
ATOM      1  C17 Q7M d           1.443  -6.097 -15.612  0.00  0.00     0.036 A 
ATOM      2  C16 Q7M d           0.383  -6.922 -15.393  0.00  0.00     0.032 A 
ATOM      3  C15 Q7M d           0.545  -8.198 -14.949  0.00  0.00     0.032 A 
ATOM      4  C18 Q7M d           2.684  -6.655 -15.361  0.00  0.00     0.032 A 
ATOM      5  C19 Q7M d           2.826  -7.964 -14.896  0.00  0.00     0.032 A 
ATOM      6  C14 Q7M d           1.744  -8.796 -14.674  0.00  0.00     0.043 A 
ENDROOT
BRANCH   6   7
ATOM      7  N11 Q7M d           1.655 -10.041 -14.244  0.00  0.00    -0.279 N 
ATOM      8  C10 Q7M d           1.285 -10.446 -13.021  0.00  0.00     0.126 A 
ATOM      9  N21 Q7M d           1.140  -9.643 -11.963  0.00  0.00    -0.384 N 
ATOM     10  C9  Q7M d           1.162 -11.922 -12.996  0.00  0.00     0.108 A 
ATOM     11  H   Q7M d           0.852 -10.034 -11.055  0.00  0.00     0.157 HD
ATOM     12  H   Q7M d           1.317  -8.633 -12.055  0.00  0.00     0.157 HD
ATOM     13  C8  Q7M d           1.423 -12.261 -14.413  0.00  0.00     0.123 A 
ATOM     14  C12 Q7M d           1.681 -11.000 -15.139  0.00  0.00     0.167 A 
ATOM     15  N7  Q7M d           1.441 -13.446 -15.017  0.00  0.00    -0.242 NA
ATOM     16  N13 Q7M d           1.963 -11.042 -16.440  0.00  0.00    -0.226 NA
ATOM     17  C4  Q7M d           1.991 -12.238 -17.056  0.00  0.00     0.088 A 
ATOM     18  C5  Q7M d           1.700 -13.487 -16.314  0.00  0.00     0.086 A 
ATOM     19  C3  Q7M d           2.261 -12.329 -18.400  0.00  0.00     0.034 A 
ATOM     20  C6  Q7M d           1.732 -14.695 -16.973  0.00  0.00     0.034 A 
ATOM     21  C1  Q7M d           2.028 -14.721 -18.321  0.00  0.00     0.002 A 
ATOM     22  C2  Q7M d           2.280 -13.560 -19.020  0.00  0.00     0.002 A 
BRANCH  10  23
ATOM     23  C22 Q7M d           0.817 -12.936 -11.939  0.00  0.00     0.255 C 
ATOM     24  N4  Q7M d           0.558 -14.184 -12.241  0.00  0.00    -0.366 N 
ATOM     25  H   Q7M d           0.332 -14.837 -11.518  0.00  0.00     0.159 HD
ATOM     26  H   Q7M d           0.587 -14.484 -13.194  0.00  0.00     0.159 HD
ATOM     27  O23 Q7M d           0.723 -12.654 -10.771  0.00  0.00    -0.268 OA
ENDBRANCH  10  23
ENDBRANCH   6   7
BRANCH   1  28
ATOM     28  N24 Q7M d           1.360  -4.793 -16.004  0.00  0.00    -0.309 N 
ATOM     29  C25 Q7M d           0.290  -4.007 -15.969  0.00  0.00     0.325 C 
ATOM     30  N26 Q7M d           0.419  -2.798 -16.504  0.00  0.00    -0.309 N 
ATOM     31  O34 Q7M d          -0.733  -4.355 -15.480  0.00  0.00    -0.247 OA
ATOM     32  H   Q7M d           1.272  -2.591 -16.984  0.00  0.00     0.170 HD
ATOM     33  H   Q7M d           2.200  -4.382 -16.358  0.00  0.00     0.170 HD
BRANCH  30  34
ATOM     34  C27 Q7M d          -0.534  -1.813 -16.445  0.00  0.00     0.037 A 
ATOM     35  C28 Q7M d          -1.661  -1.739 -15.580  0.00  0.00     0.045 A 
ATOM     36  C29 Q7M d          -2.587  -0.730 -15.729  0.00  0.00     0.050 A 
ATOM     37  C30 Q7M d          -2.387   0.213 -16.678  0.00  0.00     0.016 A 
ATOM     38  C31 Q7M d          -1.310   0.153 -17.514  0.00  0.00     0.003 A 
ATOM     39  C32 Q7M d          -0.396  -0.833 -17.396  0.00  0.00     0.029 A 
BRANCH  36  40
ATOM     40  C33 Q7M d          -3.787  -0.541 -14.883  0.00  0.00     0.417 C 
ATOM     41  F36 Q7M d          -4.752   0.041 -15.462  0.00  0.00    -0.166 F 
ATOM     42  F37 Q7M d          -3.530   0.264 -13.982  0.00  0.00    -0.166 F 
ATOM     43  F35 Q7M d          -4.126  -1.521 -14.164  0.00  0.00    -0.166 F 
ENDBRANCH  36  40
ENDBRANCH  30  34
ENDBRANCH   1  28
TORSDOF 5
