REMARK  5 active torsions:
REMARK  status: ('A' for Active; 'I' for Inactive)
REMARK    1  A    between atoms: C11_1  and  C10_4 
REMARK    2  A    between atoms: C10_4  and  C9_5 
REMARK    3  A    between atoms: C9_5  and  C8_6 
REMARK    4  A    between atoms: C8_6  and  C7_7 
REMARK    5  A    between atoms: C7_7  and  C2_8 
ROOT
ATOM      1  C2  BTN d          41.149  -8.278   0.950  0.00  0.00     0.072 C 
ATOM      2  S1  BTN d          41.514  -7.482   2.398  0.00  0.00    -0.160 SA
ATOM      3  C6  BTN d          43.197  -7.196   1.780  0.00  0.00     0.101 C 
ATOM      4  C5  BTN d          43.039  -6.802   0.311  0.00  0.00     0.118 A 
ATOM      5  N1  BTN d          42.808  -5.379   0.174  0.00  0.00    -0.347 N 
ATOM      6  C3  BTN d          41.581  -5.153  -0.300  0.00  0.00     0.248 A 
ATOM      7  O3  BTN d          41.119  -3.893  -0.543  0.00  0.00    -0.152 OA
ATOM      8  N2  BTN d          40.893  -6.254  -0.497  0.00  0.00    -0.347 N 
ATOM      9  C4  BTN d          41.739  -7.401  -0.159  0.00  0.00     0.122 A 
ATOM     10  H13 BTN d          43.473  -4.668   0.402  0.00  0.00     0.163 HD
ATOM     11  H14 BTN d          39.949  -6.301  -0.823  0.00  0.00     0.163 HD
ENDROOT
BRANCH   1  12
ATOM     12  C7  BTN d          39.644  -8.538   0.755  0.00  0.00     0.017 C 
BRANCH  12  13
ATOM     13  C8  BTN d          39.231  -9.874   1.414  0.00  0.00     0.002 C 
BRANCH  13  14
ATOM     14  C9  BTN d          37.733 -10.150   1.231  0.00  0.00     0.010 C 
BRANCH  14  15
ATOM     15  C10 BTN d          37.354 -11.481   1.897  0.00  0.00     0.113 C 
BRANCH  15  16
ATOM     16  C11 BTN d          38.011 -12.694   1.272  0.00  0.00     0.172 C 
ATOM     17  O11 BTN d          38.305 -12.747   0.030  0.00  0.00    -0.648 OA
ATOM     18  O12 BTN d          38.255 -13.692   2.009  0.00  0.00    -0.648 OA
ENDBRANCH  15  16
ENDBRANCH  14  15
ENDBRANCH  13  14
ENDBRANCH  12  13
ENDBRANCH   1  12
TORSDOF 5
