REMARK WARNING: 32 MAX_TORS EXCEEDED!!!
REMARK  45 active torsions:
REMARK  status: ('A' for Active; 'I' for Inactive)
REMARK    1  A    between atoms: C1_1  and  O1_7 
REMARK    2  A    between atoms: C2_2  and  O2_8 
REMARK    3  A    between atoms: C3_3  and  O3_9 
REMARK    4  A    between atoms: C4_4  and  O4_10 
REMARK    5  A    between atoms: C5_5  and  C6_6 
REMARK    6  A    between atoms: C6_6  and  O6_12 
REMARK    7  A    between atoms: O1_7  and  C1_13 
REMARK    8  A    between atoms: C1_13  and  C2_14 
REMARK    9  A    between atoms: C2_14  and  N2_15 
REMARK   10  A    between atoms: C2_14  and  C3_16 
REMARK   11  A    between atoms: C3_16  and  O3_17 
REMARK   12  A    between atoms: C3_16  and  C4_18 
REMARK   13  A    between atoms: C5_19  and  C6_20 
REMARK   14  A    between atoms: C6_20  and  C7_21 
REMARK   15  A    between atoms: C7_21  and  C8_22 
REMARK   16  A    between atoms: C8_22  and  C9_23 
REMARK   17  A    between atoms: C9_23  and  C10_24 
REMARK   18  A    between atoms: C10_24  and  C11_25 
REMARK   19  A    between atoms: C11_25  and  C12_26 
REMARK   20  A    between atoms: C12_26  and  C13_27 
REMARK   21  A    between atoms: C13_27  and  C14_28 
REMARK   22  A    between atoms: C14_28  and  C15_29 
REMARK   23  A    between atoms: C15_29  and  C16_30 
REMARK   24  A    between atoms: C16_30  and  C17_31 
REMARK   25  A    between atoms: C1_34  and  C2_35 
REMARK   26  A    between atoms: C2_35  and  C3_36 
REMARK   27  A    between atoms: C3_36  and  C4_37 
REMARK   28  A    between atoms: C4_37  and  C5_38 
REMARK   29  A    between atoms: C5_38  and  C6_39 
REMARK   30  A    between atoms: C6_39  and  C7_40 
REMARK   31  A    between atoms: C7_40  and  C8_41 
REMARK   32  A    between atoms: C8_41  and  C9_42 
REMARK   33  A    between atoms: C9_42  and  C10_43 
REMARK   34  A    between atoms: C10_43  and  C11_44 
REMARK   35  A    between atoms: C11_44  and  C12_45 
REMARK   36  A    between atoms: C12_45  and  C13_46 
REMARK   37  A    between atoms: C13_46  and  C14_47 
REMARK   38  A    between atoms: C14_47  and  C15_48 
REMARK   39  A    between atoms: C16_49  and  C17_50 
REMARK   40  A    between atoms: C17_50  and  C18_51 
REMARK   41  A    between atoms: C18_51  and  C19_52 
REMARK   42  A    between atoms: C19_52  and  C20_53 
REMARK   43  A    between atoms: C20_53  and  C21_54 
REMARK   44  A    between atoms: C21_54  and  C22_55 
REMARK   45  A    between atoms: C22_55  and  C23_56 
ROOT
ATOM      1  C2  MOL d          21.458  -2.726  19.643  0.00  0.00     0.139 C 
ENDROOT
BRANCH   1   2
ATOM      2  C1  MOL d          22.543  -1.921  18.912  0.00  0.00     0.199 C 
BRANCH   2   3
ATOM      3  O1  MOL d          22.433  -0.614  19.239  0.00  0.00    -0.356 OA
BRANCH   3   4
ATOM      4  C1  MOL d          22.944   0.382  18.407  0.00  0.00     0.291 C 
ATOM      5  C2  MOL d          22.362   1.750  18.772  0.00  0.00     0.204 C 
ATOM      6  C3  MOL d          22.967   2.840  17.878  0.00  0.00     0.183 C 
ATOM      7  C4  MOL d          24.495   2.771  17.901  0.00  0.00     0.180 C 
ATOM      8  C5  MOL d          24.929   1.339  17.585  0.00  0.00     0.179 C 
ATOM      9  O5  MOL d          24.361   0.376  18.450  0.00  0.00    -0.348 OA
BRANCH   5  10
ATOM     10  O2  MOL d          20.969   1.633  18.589  0.00  0.00    -0.388 OA
ATOM     11  H8  MOL d          20.632   0.951  19.158  0.00  0.00     0.210 HD
ENDBRANCH   5  10
BRANCH   6  12
ATOM     12  O3  MOL d          22.580   4.115  18.326  0.00  0.00    -0.390 OA
ATOM     13  H9  MOL d          22.901   4.250  19.210  0.00  0.00     0.210 HD
ENDBRANCH   6  12
BRANCH   7  14
ATOM     14  O4  MOL d          24.929   3.209  19.182  0.00  0.00    -0.390 OA
ATOM     15  H10 MOL d          24.634   4.100  19.327  0.00  0.00     0.210 HD
ENDBRANCH   7  14
BRANCH   8  16
ATOM     16  C6  MOL d          26.460   1.189  17.577  0.00  0.00     0.198 C 
BRANCH  16  17
ATOM     17  O6  MOL d          26.798  -0.057  17.008  0.00  0.00    -0.398 OA
ATOM     18  H11 MOL d          26.410  -0.755  17.523  0.00  0.00     0.209 HD
ENDBRANCH  16  17
ENDBRANCH   8  16
ENDBRANCH   3   4
ENDBRANCH   2   3
ENDBRANCH   1   2
BRANCH   1  19
ATOM     19  N2  MOL d          20.208  -2.171  19.154  0.00  0.00    -0.362 N 
ATOM     20  C1  MOL d          19.173  -2.664  18.632  0.00  0.00     0.151 C 
ATOM     21  O1  MOL d          19.281  -4.082  18.461  0.00  0.00    -0.177 OA
ATOM     22  H15 MOL d          20.158  -1.177  19.254  0.00  0.00     0.162 HD
BRANCH  20  23
ATOM     23  C2  MOL d          17.730  -2.256  18.348  0.00  0.00     0.087 C 
BRANCH  23  24
ATOM     24  C3  MOL d          16.808  -2.688  19.481  0.00  0.00     0.008 C 
BRANCH  24  25
ATOM     25  C4  MOL d          15.386  -2.475  18.961  0.00  0.00     0.000 C 
BRANCH  25  26
ATOM     26  C5  MOL d          14.370  -3.253  19.783  0.00  0.00     0.000 C 
BRANCH  26  27
ATOM     27  C6  MOL d          13.000  -3.260  19.095  0.00  0.00     0.000 C 
BRANCH  27  28
ATOM     28  C7  MOL d          11.952  -3.793  20.056  0.00  0.00     0.000 C 
BRANCH  28  29
ATOM     29  C8  MOL d          12.431  -5.134  20.586  0.00  0.00     0.000 C 
BRANCH  29  30
ATOM     30  C9  MOL d          11.435  -5.663  21.607  0.00  0.00     0.000 C 
BRANCH  30  31
ATOM     31  C10 MOL d          11.915  -7.047  22.052  0.00  0.00     0.000 C 
BRANCH  31  32
ATOM     32  C11 MOL d          11.197  -7.512  23.315  0.00  0.00     0.000 C 
BRANCH  32  33
ATOM     33  C12 MOL d          10.868  -8.999  23.222  0.00  0.00     0.000 C 
BRANCH  33  34
ATOM     34  C13 MOL d          10.179  -9.563  24.463  0.00  0.00     0.004 C 
BRANCH  34  35
ATOM     35  C14 MOL d           8.717  -9.146  24.650  0.00  0.00     0.027 C 
BRANCH  35  36
ATOM     36  C15 MOL d           7.808  -9.587  23.503  0.00  0.00    -0.031 C 
ATOM     37  C16 MOL d           6.844  -8.875  22.909  0.00  0.00    -0.031 C 
BRANCH  37  38
ATOM     38  C17 MOL d           6.393  -7.450  23.197  0.00  0.00     0.027 C 
BRANCH  38  39
ATOM     39  C18 MOL d           6.554  -6.596  21.949  0.00  0.00     0.004 C 
BRANCH  39  40
ATOM     40  C19 MOL d           5.986  -5.194  22.145  0.00  0.00     0.000 C 
BRANCH  40  41
ATOM     41  C20 MOL d           6.616  -4.200  21.177  0.00  0.00     0.000 C 
BRANCH  41  42
ATOM     42  C21 MOL d           5.563  -3.270  20.594  0.00  0.00     0.000 C 
BRANCH  42  43
ATOM     43  C22 MOL d           5.536  -1.891  21.241  0.00  0.00    -0.000 C 
BRANCH  43  44
ATOM     44  C23 MOL d           4.280  -1.154  20.792  0.00  0.00    -0.005 C 
ATOM     45  C24 MOL d           4.625   0.025  19.905  0.00  0.00     0.005 C 
ENDBRANCH  43  44
ENDBRANCH  42  43
ENDBRANCH  41  42
ENDBRANCH  40  41
ENDBRANCH  39  40
ENDBRANCH  38  39
ENDBRANCH  37  38
ENDBRANCH  35  36
ENDBRANCH  34  35
ENDBRANCH  33  34
ENDBRANCH  32  33
ENDBRANCH  31  32
ENDBRANCH  30  31
ENDBRANCH  29  30
ENDBRANCH  28  29
ENDBRANCH  27  28
ENDBRANCH  26  27
ENDBRANCH  25  26
ENDBRANCH  24  25
ENDBRANCH  23  24
ENDBRANCH  20  23
ENDBRANCH   1  19
BRANCH   1  46
ATOM     46  C3  MOL d          21.610  -2.733  21.168  0.00  0.00     0.165 C 
BRANCH  46  47
ATOM     47  O3  MOL d          22.970  -3.158  21.471  0.00  0.00    -0.390 OA
ATOM     48  H17 MOL d          23.094  -3.172  22.413  0.00  0.00     0.210 HD
ENDBRANCH  46  47
BRANCH  46  49
ATOM     49  C4  MOL d          20.505  -3.467  21.949  0.00  0.00     0.003 C 
ATOM     50  C5  MOL d          19.610  -2.940  22.805  0.00  0.00    -0.028 C 
BRANCH  50  51
ATOM     51  C6  MOL d          18.822  -3.681  23.911  0.00  0.00     0.027 C 
BRANCH  51  52
ATOM     52  C7  MOL d          19.536  -4.016  25.241  0.00  0.00     0.004 C 
BRANCH  52  53
ATOM     53  C8  MOL d          20.294  -5.355  25.285  0.00  0.00     0.000 C 
BRANCH  53  54
ATOM     54  C9  MOL d          21.478  -5.595  26.239  0.00  0.00     0.000 C 
BRANCH  54  55
ATOM     55  C10 MOL d          21.191  -6.256  27.587  0.00  0.00     0.000 C 
BRANCH  55  56
ATOM     56  C11 MOL d          22.329  -6.275  28.607  0.00  0.00     0.000 C 
BRANCH  56  57
ATOM     57  C12 MOL d          21.813  -6.285  30.052  0.00  0.00     0.000 C 
BRANCH  57  58
ATOM     58  C13 MOL d          22.755  -7.020  31.002  0.00  0.00     0.000 C 
BRANCH  58  59
ATOM     59  C14 MOL d          22.246  -6.931  32.437  0.00  0.00     0.000 C 
BRANCH  59  60
ATOM     60  C15 MOL d          22.940  -7.917  33.374  0.00  0.00     0.000 C 
BRANCH  60  61
ATOM     61  C16 MOL d          22.039  -8.424  34.505  0.00  0.00    -0.000 C 
BRANCH  61  62
ATOM     62  C17 MOL d          21.851  -7.453  35.667  0.00  0.00    -0.005 C 
ATOM     63  C18 MOL d          23.018  -7.476  36.628  0.00  0.00     0.005 C 
ENDBRANCH  61  62
ENDBRANCH  60  61
ENDBRANCH  59  60
ENDBRANCH  58  59
ENDBRANCH  57  58
ENDBRANCH  56  57
ENDBRANCH  55  56
ENDBRANCH  54  55
ENDBRANCH  53  54
ENDBRANCH  52  53
ENDBRANCH  51  52
ENDBRANCH  50  51
ENDBRANCH  46  49
ENDBRANCH   1  46
TORSDOF 45
