REMARK  3 active torsions:
REMARK  status: ('A' for Active; 'I' for Inactive)
REMARK    1  A    between atoms: C10_9  and  C16_16 
REMARK    2  A    between atoms: C6_12  and  N7_13 
REMARK    3  A    between atoms: C16_16  and  C17_17 
ROOT
ATOM      1  F2  HAJ d          -1.127   9.292  28.243  0.00  0.00    -0.205 F 
ATOM      2  C1  HAJ d           0.151   8.980  28.017  0.00  0.00     0.132 A 
ATOM      3  C15 HAJ d           0.797   8.199  28.973  0.00  0.00     0.043 A 
ATOM      4  C14 HAJ d           2.142   7.871  28.792  0.00  0.00     0.005 A 
ATOM      5  C13 HAJ d           2.815   8.300  27.656  0.00  0.00     0.033 A 
ATOM      6  C12 HAJ d           2.167   9.074  26.690  0.00  0.00     0.076 A 
ATOM      7  C3  HAJ d           0.826   9.417  26.870  0.00  0.00     0.078 A 
ATOM      8  N11 HAJ d           2.854   9.486  25.584  0.00  0.00    -0.232 NA
ATOM      9  C10 HAJ d           2.247  10.240  24.629  0.00  0.00     0.135 A 
ATOM     10  N9  HAJ d           0.953  10.601  24.788  0.00  0.00    -0.186 N 
ATOM     11  N8  HAJ d           0.211  11.347  23.889  0.00  0.00     0.027 NA
ATOM     12  C6  HAJ d          -0.963  11.352  24.549  0.00  0.00     0.717 A 
ATOM     13  N5  HAJ d          -1.017  10.677  25.732  0.00  0.00    -0.171 N 
ATOM     14  C4  HAJ d           0.247  10.195  25.854  0.00  0.00     0.162 A 
ATOM     15  H1  HAJ d          -1.815  10.562  26.372  0.00  0.00     0.186 HD
ENDROOT
BRANCH   9  16
ATOM     16  C16 HAJ d           3.066  10.682  23.437  0.00  0.00     0.119 C 
BRANCH  16  17
ATOM     17  C17 HAJ d           3.968  11.841  23.848  0.00  0.00    -0.048 A 
ATOM     18  C25 HAJ d           5.364  11.737  23.692  0.00  0.00     0.010 A 
ATOM     19  C24 HAJ d           6.218  12.792  24.044  0.00  0.00     0.040 A 
ATOM     20  C23 HAJ d           5.631  13.948  24.565  0.00  0.00     0.105 A 
ATOM     21  C19 HAJ d           4.282  14.043  24.736  0.00  0.00     0.105 A 
ATOM     22  O22 HAJ d           6.237  15.110  25.002  0.00  0.00    -0.323 OA
ATOM     23  C18 HAJ d           3.405  13.012  24.386  0.00  0.00     0.047 A 
ATOM     24  O20 HAJ d           3.993  15.260  25.267  0.00  0.00    -0.323 OA
ATOM     25  C21 HAJ d           5.213  15.985  25.503  0.00  0.00     0.352 A 
ENDBRANCH  16  17
ENDBRANCH   9  16
BRANCH  12  26
ATOM     26  N7  HAJ d          -2.042  12.001  24.023  0.00  0.00    -0.231 N 
ATOM     27  H   HAJ d          -1.956  12.499  23.125  0.00  0.00     0.174 HD
ATOM     28  H   HAJ d          -2.942  11.993  24.523  0.00  0.00     0.174 HD
ENDBRANCH  12  26
TORSDOF 3
