REMARK  32 active torsions:
REMARK  status: ('A' for Active; 'I' for Inactive)
REMARK    1  A    between atoms: CA_2  and  N_1 
REMARK    2  A    between atoms: CA_2  and  CB_5 
REMARK    3  A    between atoms: C_3  and  CA_2 
REMARK       I    between atoms: N_9  and  C_3 
REMARK    4  A    between atoms: CB_5  and  CG1_6 
REMARK    5  A    between atoms: CA_10  and  N_9 
REMARK    6  A    between atoms: CA_10  and  CB_13 
REMARK    7  A    between atoms: C_11  and  CA_10 
REMARK       I    between atoms: N_17  and  C_11 
REMARK    8  A    between atoms: CB_13  and  CG_14 
REMARK       I    between atoms: CG_14  and  ND2_16 
REMARK    9  A    between atoms: CA_18  and  N_17 
REMARK   10  A    between atoms: CA_18  and  CB_21 
REMARK   11  A    between atoms: C_19  and  CA_18 
REMARK       I    between atoms: N_28  and  C_19 
REMARK   12  A    between atoms: CB_21  and  CG_22 
REMARK   13  A    between atoms: CA_29  and  N_28 
REMARK   14  A    between atoms: CA_29  and  CB_32 
REMARK   15  A    between atoms: C_30  and  CA_29 
REMARK       I    between atoms: N_36  and  C_30 
REMARK   16  A    between atoms: CB_32  and  CG_33 
REMARK   17  A    between atoms: CA_37  and  N_36 
REMARK   18  A    between atoms: CA_37  and  CB_40 
REMARK   19  A    between atoms: C_38  and  CA_37 
REMARK       I    between atoms: N_47  and  C_38 
REMARK   20  A    between atoms: CB_40  and  CG_41 
REMARK   21  A    between atoms: CA_48  and  N_47 
REMARK   22  A    between atoms: CA_48  and  CB_51 
REMARK   23  A    between atoms: C_49  and  CA_48 
REMARK       I    between atoms: N_55  and  C_49 
REMARK   24  A    between atoms: CB_51  and  CG_52 
REMARK       I    between atoms: CG_52  and  ND2_54 
REMARK   25  A    between atoms: CA_56  and  N_55 
REMARK   26  A    between atoms: CA_56  and  CB_59 
REMARK   27  A    between atoms: C_57  and  CA_56 
REMARK       I    between atoms: C_57  and  N_62 
REMARK   28  A    between atoms: CB_59  and  OG1_60 
REMARK   29  A    between atoms: N_62  and  CA_63 
REMARK   30  A    between atoms: CA_63  and  CB_66 
REMARK   31  A    between atoms: CA_63  and  C_64 
REMARK   32  A    between atoms: CB_66  and  CG1_67 
ROOT
ATOM      1  C   MOL d          19.013  34.204  51.384  0.00  0.00     0.241 C 
ATOM      2  O   MOL d          18.346  34.606  52.349  0.00  0.00    -0.271 OA
ATOM      3  N   MOL d          18.562  33.527  50.340  0.00  0.00    -0.346 N 
ATOM      4  H33 MOL d          19.219  33.263  49.634  0.00  0.00     0.163 HD
ENDROOT
BRANCH   1   5
ATOM      5  CA  MOL d          20.523  34.507  51.277  0.00  0.00     0.186 C 
BRANCH   5   6
ATOM      6  N   MOL d          20.677  35.865  50.750  0.00  0.00    -0.345 N 
ATOM      7  C   MOL d          20.869  36.211  49.498  0.00  0.00     0.241 C 
ATOM      8  O   MOL d          21.002  35.347  48.611  0.00  0.00    -0.271 OA
ATOM      9  H29 MOL d          20.631  36.609  51.416  0.00  0.00     0.163 HD
BRANCH   7  10
ATOM     10  CA  MOL d          20.927  37.701  49.218  0.00  0.00     0.180 C 
BRANCH  10  11
ATOM     11  N   MOL d          21.516  37.982  47.894  0.00  0.00    -0.346 N 
ATOM     12  C   MOL d          22.756  38.392  47.740  0.00  0.00     0.241 C 
ATOM     13  O   MOL d          23.464  38.593  48.708  0.00  0.00    -0.271 OA
ATOM     14  H20 MOL d          20.949  37.855  47.080  0.00  0.00     0.163 HD
BRANCH  12  15
ATOM     15  CA  MOL d          23.209  38.598  46.313  0.00  0.00     0.185 C 
BRANCH  15  16
ATOM     16  N   MOL d          24.547  39.122  46.252  0.00  0.00    -0.346 N 
ATOM     17  C   MOL d          24.915  40.321  46.672  0.00  0.00     0.249 C 
ATOM     18  O   MOL d          24.147  41.117  47.187  0.00  0.00    -0.271 OA
ATOM     19  H14 MOL d          25.255  38.533  45.861  0.00  0.00     0.163 HD
BRANCH  17  20
ATOM     20  CA  MOL d          26.390  40.641  46.432  0.00  0.00     0.278 C 
BRANCH  20  21
ATOM     21  N   MOL d          26.609  42.053  46.062  0.00  0.00    -0.066 N 
ATOM     22  H1  MOL d          27.593  42.213  45.915  0.00  0.00     0.275 HD
ATOM     23  H2  MOL d          26.279  42.650  46.804  0.00  0.00     0.275 HD
ATOM     24  H3  MOL d          26.105  42.260  45.214  0.00  0.00     0.275 HD
ENDBRANCH  20  21
BRANCH  20  25
ATOM     25  CB  MOL d          27.194  40.264  47.688  0.00  0.00     0.021 C 
ATOM     26  CG2 MOL d          28.648  40.565  47.373  0.00  0.00     0.012 C 
BRANCH  25  27
ATOM     27  CG1 MOL d          26.732  41.111  48.866  0.00  0.00     0.002 C 
ATOM     28  CD1 MOL d          27.491  40.801  50.128  0.00  0.00     0.005 C 
ENDBRANCH  25  27
ENDBRANCH  20  25
ENDBRANCH  17  20
ENDBRANCH  15  16
BRANCH  15  29
ATOM     29  CB  MOL d          23.128  37.296  45.500  0.00  0.00     0.137 C 
BRANCH  29  30
ATOM     30  CG  MOL d          21.750  36.980  44.977  0.00  0.00     0.217 C 
ATOM     31  ND2 MOL d          21.594  35.980  44.129  0.00  0.00    -0.370 N 
ATOM     32  H18 MOL d          20.684  35.761  43.776  0.00  0.00     0.159 HD
ATOM     33  H19 MOL d          22.385  35.441  43.840  0.00  0.00     0.159 HD
ATOM     34  OD1 MOL d          20.752  37.625  45.315  0.00  0.00    -0.274 OA
ENDBRANCH  29  30
ENDBRANCH  15  29
ENDBRANCH  12  15
ENDBRANCH  10  11
BRANCH  10  35
ATOM     35  CB  MOL d          19.532  38.286  49.119  0.00  0.00     0.073 C 
BRANCH  35  36
ATOM     36  CG  MOL d          18.549  38.070  50.199  0.00  0.00    -0.056 A 
ATOM     37  CD1 MOL d          18.589  38.700  51.426  0.00  0.00     0.007 A 
ATOM     38  CE1 MOL d          17.606  38.491  52.381  0.00  0.00     0.001 A 
ATOM     39  CZ  MOL d          16.558  37.647  52.075  0.00  0.00     0.000 A 
ATOM     40  CE2 MOL d          16.495  37.026  50.850  0.00  0.00     0.001 A 
ATOM     41  CD2 MOL d          17.476  37.224  49.915  0.00  0.00     0.007 A 
ENDBRANCH  35  36
ENDBRANCH  10  35
ENDBRANCH   7  10
ENDBRANCH   5   6
BRANCH   5  42
ATOM     42  CB  MOL d          21.006  34.481  52.752  0.00  0.00     0.147 C 
BRANCH  42  43
ATOM     43  CG  MOL d          22.530  34.494  52.706  0.00  0.00     0.175 C 
ATOM     44  OD1 MOL d          23.110  35.485  53.184  0.00  0.00    -0.648 OA
ATOM     45  OD2 MOL d          23.062  33.517  52.131  0.00  0.00    -0.648 OA
ENDBRANCH  42  43
ENDBRANCH   5  42
ENDBRANCH   1   5
BRANCH   3  46
ATOM     46  CA  MOL d          17.194  33.149  50.156  0.00  0.00     0.180 C 
BRANCH  46  47
ATOM     47  CB  MOL d          16.903  32.722  48.696  0.00  0.00     0.073 C 
BRANCH  47  48
ATOM     48  CG  MOL d          17.035  33.866  47.733  0.00  0.00    -0.056 A 
ATOM     49  CD1 MOL d          15.977  34.758  47.517  0.00  0.00     0.007 A 
ATOM     50  CE1 MOL d          16.101  35.818  46.668  0.00  0.00     0.001 A 
ATOM     51  CZ  MOL d          17.300  36.028  46.005  0.00  0.00     0.000 A 
ATOM     52  CE2 MOL d          18.364  35.177  46.225  0.00  0.00     0.001 A 
ATOM     53  CD2 MOL d          18.230  34.094  47.073  0.00  0.00     0.007 A 
ENDBRANCH  47  48
ENDBRANCH  46  47
BRANCH  46  54
ATOM     54  C   MOL d          16.739  31.997  51.039  0.00  0.00     0.241 C 
ATOM     55  O   MOL d          17.331  30.916  51.068  0.00  0.00    -0.271 OA
ATOM     56  N   MOL d          15.636  32.232  51.732  0.00  0.00    -0.346 N 
ATOM     57  H42 MOL d          15.228  33.144  51.702  0.00  0.00     0.163 HD
BRANCH  56  58
ATOM     58  CA  MOL d          15.005  31.203  52.532  0.00  0.00     0.185 C 
BRANCH  58  59
ATOM     59  CB  MOL d          14.243  31.851  53.674  0.00  0.00     0.137 C 
BRANCH  59  60
ATOM     60  CG  MOL d          15.017  31.643  54.973  0.00  0.00     0.217 C 
ATOM     61  ND2 MOL d          14.904  32.606  55.872  0.00  0.00    -0.370 N 
ATOM     62  H46 MOL d          15.385  32.533  56.746  0.00  0.00     0.159 HD
ATOM     63  H47 MOL d          14.337  33.407  55.678  0.00  0.00     0.159 HD
ATOM     64  OD1 MOL d          15.693  30.611  55.081  0.00  0.00    -0.274 OA
ENDBRANCH  59  60
ENDBRANCH  58  59
BRANCH  58  65
ATOM     65  C   MOL d          14.090  30.434  51.595  0.00  0.00     0.241 C 
ATOM     66  O   MOL d          14.219  30.594  50.362  0.00  0.00    -0.271 OA
ATOM     67  N   MOL d          13.172  29.607  52.080  0.00  0.00    -0.344 N 
ATOM     68  H48 MOL d          13.032  29.492  53.063  0.00  0.00     0.163 HD
BRANCH  67  69
ATOM     69  CA  MOL d          12.374  28.871  51.092  0.00  0.00     0.205 C 
BRANCH  69  70
ATOM     70  CB  MOL d          12.430  27.363  51.401  0.00  0.00     0.146 C 
ATOM     71  CG2 MOL d          13.859  26.849  51.313  0.00  0.00     0.042 C 
BRANCH  70  72
ATOM     72  OG1 MOL d          11.952  27.115  52.734  0.00  0.00    -0.393 OA
ATOM     73  H51 MOL d          11.059  27.429  52.812  0.00  0.00     0.210 HD
ENDBRANCH  70  72
ENDBRANCH  69  70
BRANCH  69  74
ATOM     74  C   MOL d          10.947  29.334  51.172  0.00  0.00     0.243 C 
ATOM     75  O   MOL d          10.552  30.014  52.102  0.00  0.00    -0.271 OA
ATOM     76  N   MOL d          10.132  28.883  50.251  0.00  0.00    -0.344 N 
ATOM     77  H55 MOL d          10.484  28.301  49.518  0.00  0.00     0.163 HD
BRANCH  76  78
ATOM     78  CA  MOL d           8.715  29.224  50.288  0.00  0.00     0.189 C 
BRANCH  78  79
ATOM     79  CB  MOL d           8.202  29.343  48.838  0.00  0.00     0.014 C 
ATOM     80  CG2 MOL d           8.849  30.448  48.092  0.00  0.00     0.012 C 
BRANCH  79  81
ATOM     81  CG1 MOL d           8.409  27.965  48.182  0.00  0.00     0.002 C 
ATOM     82  CD1 MOL d           7.829  27.967  46.819  0.00  0.00     0.005 C 
ENDBRANCH  79  81
ENDBRANCH  78  79
BRANCH  78  83
ATOM     83  C   MOL d           7.902  28.061  50.907  0.00  0.00     0.197 C 
ATOM     84  O   MOL d           6.635  28.237  50.900  0.00  0.00    -0.646 OA
ATOM     85  OXT MOL d           8.544  27.043  51.301  0.00  0.00    -0.646 OA
ENDBRANCH  78  83
ENDBRANCH  76  78
ENDBRANCH  69  74
ENDBRANCH  67  69
ENDBRANCH  58  65
ENDBRANCH  56  58
ENDBRANCH  46  54
ENDBRANCH   3  46
TORSDOF 32
