REMARK  7 active torsions:
REMARK  status: ('A' for Active; 'I' for Inactive)
REMARK    1  A    between atoms: N_1  and  CA_2 
REMARK    2  A    between atoms: CA_2  and  CB_3 
REMARK    3  A    between atoms: CA_2  and  C_9 
REMARK    4  A    between atoms: CB_3  and  CG_4 
REMARK    5  A    between atoms: CG_4  and  CD_5 
REMARK    6  A    between atoms: CD_5  and  CE_6 
REMARK    7  A    between atoms: CE_6  and  NZ_7 
ROOT
ATOM      1  CA  MLZ d          17.370  41.658  49.388  0.00  0.00     0.283 C 
ENDROOT
BRANCH   1   2
ATOM      2  N   MLZ d          17.683  40.297  48.973  0.00  0.00    -0.065 N 
ATOM      3  H1  MLZ d          16.907  39.692  49.192  0.00  0.00     0.275 HD
ATOM      4  H2  MLZ d          18.506  39.978  49.460  0.00  0.00     0.275 HD
ATOM      5  H3  MLZ d          17.852  40.279  47.980  0.00  0.00     0.275 HD
ENDBRANCH   1   2
BRANCH   1   6
ATOM      6  CB  MLZ d          17.069  41.690  50.888  0.00  0.00     0.044 C 
BRANCH   6   7
ATOM      7  CG  MLZ d          16.725  43.064  51.430  0.00  0.00     0.004 C 
BRANCH   7   8
ATOM      8  CD  MLZ d          16.224  42.958  52.856  0.00  0.00     0.027 C 
BRANCH   8   9
ATOM      9  CE  MLZ d          15.876  44.321  53.421  0.00  0.00     0.231 C 
BRANCH   9  10
ATOM     10  NZ  MLZ d          15.335  44.216  54.809  0.00  0.00    -0.079 N 
ATOM     11  CM  MLZ d          15.119  45.616  55.269  0.00  0.00     0.266 C 
ATOM     12  H13 MLZ d          15.996  43.748  55.409  0.00  0.00     0.276 HD
ATOM     13  H14 MLZ d          14.464  43.709  54.809  0.00  0.00     0.276 HD
ENDBRANCH   9  10
ENDBRANCH   8   9
ENDBRANCH   7   8
ENDBRANCH   6   7
ENDBRANCH   1   6
BRANCH   1  14
ATOM     14  C   MLZ d          18.523  42.601  49.071  0.00  0.00     0.204 C 
ATOM     15  O   MLZ d          18.246  43.707  48.555  0.00  0.00    -0.646 OA
ATOM     16  OXT MLZ d          19.686  42.224  49.341  0.00  0.00    -0.646 OA
ENDBRANCH   1  14
TORSDOF 7
