REMARK  18 active torsions:
REMARK  status: ('A' for Active; 'I' for Inactive)
REMARK    1  A    between atoms: C21_2  and  O23_3 
REMARK       I    between atoms: C21_2  and  N20_11 
REMARK    2  A    between atoms: O23_3  and  C22_4 
REMARK    3  A    between atoms: C22_4  and  C23_5 
REMARK    4  A    between atoms: C23_5  and  C25_7 
REMARK    5  A    between atoms: C25_7  and  O27_9 
REMARK    6  A    between atoms: N20_11  and  C19_12 
REMARK    7  A    between atoms: C19_12  and  C32_13 
REMARK    8  A    between atoms: C19_12  and  C17_20 
REMARK    9  A    between atoms: C32_13  and  C38_14 
REMARK   10  A    between atoms: C17_20  and  O18_21 
REMARK   11  A    between atoms: C17_20  and  C16_22 
REMARK   12  A    between atoms: C16_22  and  N11_23 
REMARK   13  A    between atoms: N11_23  and  C12_24 
REMARK   14  A    between atoms: N11_23  and  S8_29 
REMARK   15  A    between atoms: C12_24  and  C13_25 
REMARK   16  A    between atoms: C13_25  and  C15_27 
REMARK   17  A    between atoms: S8_29  and  C5_32 
REMARK   18  A    between atoms: C2_37  and  O1_38 
ROOT
ATOM      1  C17 M73 d          19.882  29.491  15.706  0.00  0.00     0.155 C 
ENDROOT
BRANCH   1   2
ATOM      2  C19 M73 d          19.486  29.029  14.302  0.00  0.00     0.120 C 
BRANCH   2   3
ATOM      3  N20 M73 d          20.570  28.248  13.716  0.00  0.00    -0.329 N 
ATOM      4  C21 M73 d          21.040  28.535  12.521  0.00  0.00     0.360 C 
ATOM      5  O22 M73 d          20.829  29.530  11.851  0.00  0.00    -0.239 OA
ATOM      6  H10 M73 d          20.961  27.484  14.229  0.00  0.00     0.165 HD
BRANCH   4   7
ATOM      7  O23 M73 d          21.791  27.477  11.962  0.00  0.00    -0.303 OA
BRANCH   7   8
ATOM      8  C22 M73 d          22.028  27.561  10.551  0.00  0.00     0.194 C 
BRANCH   8   9
ATOM      9  C23 M73 d          22.789  26.311  10.139  0.00  0.00     0.106 C 
ATOM     10  C24 M73 d          21.937  25.063  10.285  0.00  0.00     0.022 C 
BRANCH   9  11
ATOM     11  C25 M73 d          24.020  26.266  10.970  0.00  0.00     0.264 C 
ATOM     12  O26 M73 d          24.335  25.332  11.687  0.00  0.00    -0.265 OA
BRANCH  11  13
ATOM     13  O27 M73 d          24.871  27.389  10.913  0.00  0.00    -0.326 OA
ATOM     14  C28 M73 d          26.062  27.460  11.711  0.00  0.00     0.213 C 
ENDBRANCH  11  13
ENDBRANCH   9  11
ENDBRANCH   8   9
ENDBRANCH   7   8
ENDBRANCH   4   7
ENDBRANCH   2   3
BRANCH   2  15
ATOM     15  C32 M73 d          18.192  28.199  14.211  0.00  0.00     0.066 C 
BRANCH  15  16
ATOM     16  C38 M73 d          17.907  27.895  12.751  0.00  0.00    -0.056 A 
ATOM     17  C37 M73 d          17.326  28.862  11.947  0.00  0.00     0.007 A 
ATOM     18  C36 M73 d          17.131  28.611  10.595  0.00  0.00     0.001 A 
ATOM     19  C35 M73 d          17.491  27.379  10.054  0.00  0.00     0.000 A 
ATOM     20  C34 M73 d          18.061  26.400  10.852  0.00  0.00     0.001 A 
ATOM     21  C33 M73 d          18.266  26.660  12.200  0.00  0.00     0.007 A 
ENDBRANCH  15  16
ENDBRANCH   2  15
ENDBRANCH   1   2
BRANCH   1  22
ATOM     22  O18 M73 d          19.847  28.348  16.593  0.00  0.00    -0.392 OA
ATOM     23  H20 M73 d          20.091  28.621  17.470  0.00  0.00     0.210 HD
ENDBRANCH   1  22
BRANCH   1  24
ATOM     24  C16 M73 d          18.964  30.575  16.300  0.00  0.00     0.141 C 
BRANCH  24  25
ATOM     25  N11 M73 d          19.143  31.806  15.505  0.00  0.00    -0.204 NA
BRANCH  25  26
ATOM     26  C12 M73 d          19.952  32.837  16.206  0.00  0.00     0.112 C 
BRANCH  26  27
ATOM     27  C13 M73 d          21.455  32.540  16.141  0.00  0.00    -0.005 C 
ATOM     28  C14 M73 d          21.951  32.493  14.697  0.00  0.00     0.011 C 
BRANCH  27  29
ATOM     29  C15 M73 d          22.205  33.559  17.011  0.00  0.00     0.001 C 
ATOM     30  C18 M73 d          22.017  34.994  16.572  0.00  0.00     0.005 C 
ENDBRANCH  27  29
ENDBRANCH  26  27
ENDBRANCH  25  26
BRANCH  25  31
ATOM     31  S8  M73 d          17.834  32.397  14.751  0.00  0.00     0.243 S 
ATOM     32  O9  M73 d          18.348  33.239  13.690  0.00  0.00    -0.206 OA
ATOM     33  O10 M73 d          17.048  31.299  14.343  0.00  0.00    -0.206 OA
BRANCH  31  34
ATOM     34  C5  M73 d          16.943  33.328  15.778  0.00  0.00     0.074 A 
ATOM     35  C4  M73 d          17.145  34.721  15.914  0.00  0.00     0.027 A 
ATOM     36  C3  M73 d          16.447  35.501  16.836  0.00  0.00     0.038 A 
ATOM     37  C2  M73 d          15.522  34.895  17.676  0.00  0.00     0.068 A 
ATOM     38  C7  M73 d          15.298  33.528  17.574  0.00  0.00     0.038 A 
ATOM     39  C6  M73 d          15.983  32.755  16.624  0.00  0.00     0.027 A 
BRANCH  37  40
ATOM     40  O1  M73 d          14.816  35.609  18.619  0.00  0.00    -0.356 OA
ATOM     41  C1  M73 d          15.122  36.994  18.816  0.00  0.00     0.210 C 
ENDBRANCH  37  40
ENDBRANCH  31  34
ENDBRANCH  25  31
ENDBRANCH  24  25
ENDBRANCH   1  24
TORSDOF 18
