REMARK  1 active torsions:
REMARK  status: ('A' for Active; 'I' for Inactive)
REMARK    1  A    between atoms: C3_3  and  O3_4 
ROOT
ATOM      1  C1  AE2 d          22.980  -7.539  41.090  0.00  0.00     0.012 C 
ATOM      2  C2  AE2 d          24.385  -8.106  40.777  0.00  0.00     0.032 C 
ATOM      3  C3  AE2 d          25.009  -8.776  42.023  0.00  0.00     0.118 C 
ATOM      4  C4  AE2 d          24.089  -9.780  42.671  0.00  0.00     0.037 C 
ATOM      5  C5  AE2 d          22.679  -9.206  42.983  0.00  0.00    -0.004 C 
ATOM      6  C6  AE2 d          21.746 -10.266  43.646  0.00  0.00     0.006 C 
ATOM      7  C7  AE2 d          20.383  -9.681  43.947  0.00  0.00     0.006 C 
ATOM      8  C8  AE2 d          19.674  -9.099  42.699  0.00  0.00    -0.004 C 
ATOM      9  C9  AE2 d          20.590  -8.013  42.041  0.00  0.00    -0.002 C 
ATOM     10  C10 AE2 d          22.006  -8.622  41.667  0.00  0.00    -0.036 C 
ATOM     11  C11 AE2 d          19.858  -7.411  40.793  0.00  0.00     0.007 C 
ATOM     12  C12 AE2 d          18.448  -6.811  41.135  0.00  0.00     0.018 C 
ATOM     13  C13 AE2 d          17.561  -7.871  41.802  0.00  0.00     0.021 C 
ATOM     14  C14 AE2 d          18.314  -8.470  43.042  0.00  0.00     0.006 C 
ATOM     15  C15 AE2 d          17.199  -9.305  43.714  0.00  0.00     0.013 C 
ATOM     16  C16 AE2 d          16.041  -8.304  43.702  0.00  0.00     0.079 C 
ATOM     17  C17 AE2 d          16.294  -7.378  42.503  0.00  0.00     0.135 C 
ATOM     18  O17 AE2 d          15.604  -6.450  42.202  0.00  0.00    -0.297 OA
ATOM     19  C18 AE2 d          17.097  -8.947  40.753  0.00  0.00     0.024 C 
ATOM     20  C19 AE2 d          21.831  -9.735  40.569  0.00  0.00     0.016 C 
ENDROOT
BRANCH   3  21
ATOM     21  O3  AE2 d          25.352  -7.713  42.943  0.00  0.00    -0.396 OA
ATOM     22  H6  AE2 d          25.740  -8.086  43.726  0.00  0.00     0.210 HD
ENDBRANCH   3  21
TORSDOF 1
