2jdk_ligand

Created by X-TOOL on Fri Sep 26 17:34:35 2014
 61 63  0  0  0  0  0  0  0  0999 V2000
   38.8400    4.5800   -3.5280  C 0  0  0  2  0  4
   37.4890    4.3580   -2.8660  C 0  0  0  2  0  4
   36.6660    3.3830   -3.6420  C 0  0  0  2  0  4
   37.4240    2.0860   -3.8690  C 0  0  0  2  0  4
   38.8010    2.3680   -4.4740  C 0  0  0  2  0  4
   39.6740    1.1260   -4.5860  C 0  0  0  4  0  4
   36.6750    5.5510   -2.7300  O 0  0  0  2  0  2
   35.4580    3.0890   -2.9250  O 0  0  0  2  0  2
   37.5550    1.4640   -2.5450  O 0  0  0  2  0  2
   39.5200    3.3320   -3.6640  O 0  0  0  1  0  2
   40.9810    7.5790   -7.2470  C 0  0  0  2  0  4
   41.4030    6.1310   -7.1670  C 0  0  0  2  0  4
   40.2760    5.2640   -6.6000  C 0  0  0  2  0  4
   39.8090    5.8700   -5.2860  C 0  0  0  2  0  4
   39.4150    7.3430   -5.4790  C 0  0  0  2  0  4
   38.9790    8.0390   -4.2510  C 0  0  0  3  0  4
   43.0160    5.4540   -8.8610  C 0  0  0  1  0  3
   43.2760    5.0810  -10.2950  C 0  0  0  4  0  4
   41.7400    5.6490   -8.4950  N 0  0  0  2  0  3
   40.8010    3.9530   -6.3550  O 0  0  0  2  0  2
   38.6370    5.2040   -4.7840  O 0  0  0  1  0  2
   40.5530    8.0630   -6.0070  O 0  0  0  1  0  2
   39.8450    7.9140   -3.2270  O 0  0  0  2  0  2
   43.9830    5.5600   -8.0690  O 0  0  0  1  0  1
   46.1150    9.4730   -7.0350  O 0  0  0  1  0  1
   45.2450   10.0550   -7.6840  C 0  0  0  1  0  3
   45.5710   11.3210   -8.3270  O 0  0  0  1  0  2
   46.1470   11.4240   -9.6360  C 0  0  0  4  0  4
   43.8700    9.4780   -7.8690  C 0  0  0  1  0  3
   43.1590    9.6660   -8.9920  N 0  0  0  1  0  2
   41.9420    8.9930   -8.8790  N 0  0  0  1  0  2
   41.9590    8.3610   -7.6440  N 0  0  0  1  0  3
   43.1090    8.6620   -7.0150  C 0  0  0  2  0  3
   39.4476    5.2444   -2.8961  H 0  0  0  1  0  1
   37.6778    3.9512   -1.8616  H 0  0  0  1  0  1
   36.4129    3.8270   -4.6161  H 0  0  0  1  0  1
   36.8585    1.4272   -4.5444  H 0  0  0  1  0  1
   38.6512    2.7832   -5.4816  H 0  0  0  1  0  1
   40.6444    1.3985   -5.0265  H 0  0  0  1  0  1
   39.1757    0.3841   -5.2273  H 0  0  0  1  0  1
   39.8328    0.6980   -3.5852  H 0  0  0  1  0  1
   35.8731    5.3350   -2.2688  H 0  0  0  1  0  1
   35.6754    2.6909   -2.0903  H 0  0  0  1  0  1
   36.6906    1.2975   -2.1876  H 0  0  0  1  0  1
   40.1518    7.6516   -7.9661  H 0  0  0  1  0  1
   42.2843    6.0502   -6.5137  H 0  0  0  1  0  1
   39.4388    5.2117   -7.3115  H 0  0  0  1  0  1
   40.6231    5.7934   -4.5502  H 0  0  0  1  0  1
   38.5897    7.3802   -6.2053  H 0  0  0  1  0  1
   38.0096    7.6224   -3.9401  H 0  0  0  1  0  1
   38.8622    9.1086   -4.4797  H 0  0  0  1  0  1
   44.3575    4.9537  -10.4504  H 0  0  0  1  0  1
   42.9021    5.8778  -10.9547  H 0  0  0  1  0  1
   42.7586    4.1388  -10.5284  H 0  0  0  1  0  1
   41.0074    5.4590   -9.1486  H 0  0  0  1  0  1
   40.1225    3.4073   -5.9752  H 0  0  0  1  0  1
   40.6855    8.2785   -3.4783  H 0  0  0  1  0  1
   46.2952   12.4842   -9.8890  H 0  0  0  1  0  1
   45.4714   10.9626  -10.3713  H 0  0  0  1  0  1
   47.1164   10.9043   -9.6520  H 0  0  0  1  0  1
   43.3994    8.3314   -6.0188  H 0  0  0  1  0  1
  1  2  1  0  0  1
  1 10  1  0  0  1
 21  1  1  0  0  2
  2  3  1  0  0  1
  2  7  1  0  0  2
  3  4  1  0  0  1
  3  8  1  0  0  2
  5  4  1  0  0  1
  4  9  1  0  0  2
  5  6  1  0  0  2
 10  5  1  0  0  1
 11 12  1  0  0  1
 11 22  1  0  0  1
 32 11  1  0  0  2
 12 13  1  0  0  1
 12 19  1  0  0  2
 13 14  1  0  0  1
 13 20  1  0  0  2
 15 14  1  0  0  1
 14 21  1  0  0  2
 15 16  1  0  0  2
 22 15  1  0  0  1
 16 23  1  0  0  2
 17 18  1  0  0  2
 19 17  1  0  0  2
 17 24  2  0  0  2
 26 25  2  0  0  2
 26 27  1  0  0  2
 29 26  1  0  0  2
 27 28  1  0  0  2
 30 29  1  0  0  1
 29 33  2  0  0  1
 31 30  2  0  0  1
 31 32  1  0  0  1
 32 33  1  0  0  1
  1 34  1  0  0  2
  2 35  1  0  0  2
  3 36  1  0  0  2
  4 37  1  0  0  2
  5 38  1  0  0  2
  6 39  1  0  0  2
  6 40  1  0  0  2
  6 41  1  0  0  2
  7 42  1  0  0  2
  8 43  1  0  0  2
  9 44  1  0  0  2
 11 45  1  0  0  2
 12 46  1  0  0  2
 13 47  1  0  0  2
 14 48  1  0  0  2
 15 49  1  0  0  2
 16 50  1  0  0  2
 16 51  1  0  0  2
 18 52  1  0  0  2
 18 53  1  0  0  2
 18 54  1  0  0  2
 19 55  1  0  0  2
 20 56  1  0  0  2
 23 57  1  0  0  2
 28 58  1  0  0  2
 28 59  1  0  0  2
 28 60  1  0  0  2
 33 61  1  0  0  2
M  END
> <MOLECULAR_FORMULA>
C18H28N4O11

> <MOLECULAR_WEIGHT>
476.2

> <NUM_HB_ATOMS>
15 

> <NUM_ROTOR>
6  

> <XLOGP2>
-3.33

$$$$
