REMARK  12 active torsions:
REMARK  status: ('A' for Active; 'I' for Inactive)
REMARK    1  A    between atoms: O4_21  and  C1_1 
REMARK    2  A    between atoms: C2_2  and  O2_7 
REMARK    3  A    between atoms: C3_3  and  O3_8 
REMARK    4  A    between atoms: C4_4  and  O4_9 
REMARK    5  A    between atoms: N1_32  and  C1_11 
REMARK    6  A    between atoms: C2_12  and  N2_19 
REMARK    7  A    between atoms: C3_13  and  O3_20 
REMARK    8  A    between atoms: C4_14  and  O4_21 
REMARK    9  A    between atoms: C5_15  and  C6_16 
REMARK   10  A    between atoms: C6_16  and  O6_23 
REMARK       I    between atoms: N2_19  and  C7_17 
REMARK   11  A    between atoms: C3_26  and  O_27 
REMARK   12  A    between atoms: C2_29  and  C3_26 
ROOT
ATOM      1  C1  FUC d          40.981   7.579  -7.247  0.00  0.00     0.267 C 
ATOM      2  C2  FUC d          41.403   6.131  -7.167  0.00  0.00     0.166 C 
ATOM      3  C3  FUC d          40.276   5.264  -6.600  0.00  0.00     0.176 C 
ATOM      4  C4  FUC d          39.809   5.870  -5.286  0.00  0.00     0.186 C 
ATOM      5  C5  FUC d          39.415   7.343  -5.479  0.00  0.00     0.179 C 
ATOM      6  O5  FUC d          40.553   8.063  -6.007  0.00  0.00    -0.353 OA
ENDROOT
BRANCH   4   7
ATOM      7  O4  FUC d          38.637   5.204  -4.784  0.00  0.00    -0.348 OA
BRANCH   7   8
ATOM      8  C1  FUC d          38.840   4.580  -3.528  0.00  0.00     0.292 C 
ATOM      9  C2  FUC d          37.489   4.358  -2.866  0.00  0.00     0.204 C 
ATOM     10  C3  FUC d          36.666   3.383  -3.642  0.00  0.00     0.183 C 
ATOM     11  C4  FUC d          37.424   2.086  -3.869  0.00  0.00     0.178 C 
ATOM     12  C5  FUC d          38.801   2.368  -4.474  0.00  0.00     0.152 C 
ATOM     13  C6  FUC d          39.674   1.126  -4.586  0.00  0.00     0.042 C 
ATOM     14  O5  FUC d          39.520   3.332  -3.664  0.00  0.00    -0.351 OA
BRANCH   9  15
ATOM     15  O2  FUC d          36.675   5.551  -2.730  0.00  0.00    -0.388 OA
ATOM     16  H9  FUC d          35.873   5.335  -2.269  0.00  0.00     0.210 HD
ENDBRANCH   9  15
BRANCH  10  17
ATOM     17  O3  FUC d          35.458   3.089  -2.925  0.00  0.00    -0.390 OA
ATOM     18  H10 FUC d          35.675   2.691  -2.090  0.00  0.00     0.210 HD
ENDBRANCH  10  17
BRANCH  11  19
ATOM     19  O4  FUC d          37.555   1.464  -2.545  0.00  0.00    -0.390 OA
ATOM     20  H11 FUC d          36.691   1.298  -2.188  0.00  0.00     0.210 HD
ENDBRANCH  11  19
ENDBRANCH   7   8
ENDBRANCH   4   7
BRANCH   3  21
ATOM     21  O3  FUC d          40.801   3.953  -6.355  0.00  0.00    -0.391 OA
ATOM     22  H23 FUC d          40.123   3.407  -5.975  0.00  0.00     0.210 HD
ENDBRANCH   3  21
BRANCH   5  23
ATOM     23  C6  FUC d          38.979   8.039  -4.251  0.00  0.00     0.198 C 
BRANCH  23  24
ATOM     24  O6  FUC d          39.845   7.914  -3.227  0.00  0.00    -0.398 OA
ATOM     25  H24 FUC d          40.685   8.278  -3.478  0.00  0.00     0.209 HD
ENDBRANCH  23  24
ENDBRANCH   5  23
BRANCH   2  26
ATOM     26  N2  FUC d          41.740   5.649  -8.495  0.00  0.00    -0.350 N 
ATOM     27  C7  FUC d          43.016   5.454  -8.861  0.00  0.00     0.214 C 
ATOM     28  C8  FUC d          43.276   5.081 -10.295  0.00  0.00     0.117 C 
ATOM     29  O7  FUC d          43.983   5.560  -8.069  0.00  0.00    -0.274 OA
ATOM     30  H22 FUC d          41.007   5.459  -9.149  0.00  0.00     0.163 HD
ENDBRANCH   2  26
BRANCH   1  31
ATOM     31  N1  FUC d          41.959   8.361  -7.644  0.00  0.00    -0.252 N 
ATOM     32  N2  FUC d          41.942   8.993  -8.879  0.00  0.00     0.007 NA
ATOM     33  N3  FUC d          43.159   9.666  -8.992  0.00  0.00    -0.152 NA
ATOM     34  C2  FUC d          43.870   9.478  -7.869  0.00  0.00     0.166 A 
ATOM     35  C1  FUC d          43.109   8.662  -7.015  0.00  0.00     0.150 A 
BRANCH  34  36
ATOM     36  C3  FUC d          45.245  10.055  -7.684  0.00  0.00     0.314 C 
ATOM     37  O1  FUC d          46.115   9.473  -7.035  0.00  0.00    -0.257 OA
BRANCH  36  38
ATOM     38  O   FUC d          45.571  11.321  -8.327  0.00  0.00    -0.321 OA
ATOM     39  C4  FUC d          46.147  11.424  -9.636  0.00  0.00     0.213 C 
ENDBRANCH  36  38
ENDBRANCH  34  36
ENDBRANCH   1  31
TORSDOF 12
