REMARK  11 active torsions:
REMARK  status: ('A' for Active; 'I' for Inactive)
REMARK    1  A    between atoms: N3B_8  and  PG_1 
REMARK    2  A    between atoms: PB_5  and  N3B_8 
REMARK    3  A    between atoms: O3A_12  and  PB_5 
REMARK    4  A    between atoms: PA_9  and  O3A_12 
REMARK    5  A    between atoms: PA_9  and  O5'_13 
REMARK    6  A    between atoms: O5'_13  and  C5'_14 
REMARK    7  A    between atoms: C5'_14  and  C4'_15 
REMARK    8  A    between atoms: C3'_17  and  O3'_18 
REMARK    9  A    between atoms: C2'_19  and  O2'_20 
REMARK   10  A    between atoms: C1'_21  and  N9_22 
REMARK   11  A    between atoms: C6_26  and  N6_27 
ROOT
ATOM      1  C4' ANP d         -26.051 -11.990  -6.387  0.00  0.00     0.180 C 
ATOM      2  O4' ANP d         -25.071 -11.206  -7.094  0.00  0.00    -0.353 OA
ATOM      3  C3' ANP d         -25.899 -11.602  -4.905  0.00  0.00     0.182 C 
ATOM      4  C2' ANP d         -24.375 -11.537  -4.797  0.00  0.00     0.198 C 
ATOM      5  C1' ANP d         -24.003 -10.905  -6.162  0.00  0.00     0.262 C 
ENDROOT
BRANCH   1   6
ATOM      6  C5' ANP d         -27.434 -11.664  -6.896  0.00  0.00     0.216 C 
BRANCH   6   7
ATOM      7  O5' ANP d         -27.612 -10.257  -6.836  0.00  0.00    -0.287 OA
BRANCH   7   8
ATOM      8  PA  ANP d         -29.017  -9.566  -7.150  0.00  0.00     0.417 P 
ATOM      9  O1A ANP d         -29.109  -9.486  -8.696  0.00  0.00    -0.624 OA
ATOM     10  O2A ANP d         -29.000  -8.169  -6.500  0.00  0.00    -0.624 OA
BRANCH   8  11
ATOM     11  O3A ANP d         -30.212 -10.462  -6.525  0.00  0.00    -0.186 OA
BRANCH  11  12
ATOM     12  PB  ANP d         -30.987 -10.512  -5.112  0.00  0.00     0.379 P 
ATOM     13  O1B ANP d         -30.678  -9.167  -4.393  0.00  0.00    -0.629 OA
ATOM     14  O2B ANP d         -30.498 -11.694  -4.279  0.00  0.00    -0.629 OA
BRANCH  12  15
ATOM     15  N3B ANP d         -32.641 -10.718  -5.323  0.00  0.00    -0.218 N 
ATOM     16  H1  ANP d         -33.112 -11.531  -4.980  0.00  0.00     0.179 HD
BRANCH  15  17
ATOM     17  PG  ANP d         -33.484  -9.485  -6.145  0.00  0.00     0.381 P 
ATOM     18  O1G ANP d         -34.403  -8.714  -5.125  0.00  0.00    -0.622 OA
ATOM     19  O2G ANP d         -32.511  -8.512  -6.871  0.00  0.00    -0.622 OA
ATOM     20  O3G ANP d         -34.400 -10.201  -7.193  0.00  0.00    -0.622 OA
ENDBRANCH  15  17
ENDBRANCH  12  15
ENDBRANCH  11  12
ENDBRANCH   8  11
ENDBRANCH   7   8
ENDBRANCH   6   7
ENDBRANCH   1   6
BRANCH   3  21
ATOM     21  O3' ANP d         -26.440 -12.604  -4.048  0.00  0.00    -0.390 OA
ATOM     22  H6  ANP d         -25.984 -13.424  -4.194  0.00  0.00     0.210 HD
ENDBRANCH   3  21
BRANCH   5  23
ATOM     23  N9  ANP d         -23.770  -9.452  -6.066  0.00  0.00    -0.294 N 
ATOM     24  C8  ANP d         -24.664  -8.425  -6.294  0.00  0.00     0.214 A 
ATOM     25  N7  ANP d         -24.066  -7.281  -6.140  0.00  0.00    -0.236 NA
ATOM     26  C5  ANP d         -22.769  -7.496  -5.793  0.00  0.00     0.149 A 
ATOM     27  C6  ANP d         -21.656  -6.689  -5.454  0.00  0.00     0.155 A 
ATOM     28  C4  ANP d         -22.579  -8.891  -5.728  0.00  0.00     0.167 A 
ATOM     29  N1  ANP d         -20.525  -7.302  -5.097  0.00  0.00    -0.222 NA
ATOM     30  C2  ANP d         -20.384  -8.606  -5.077  0.00  0.00     0.237 A 
ATOM     31  N3  ANP d         -21.389  -9.389  -5.380  0.00  0.00    -0.222 NA
BRANCH  27  32
ATOM     32  N6  ANP d         -21.691  -5.295  -5.487  0.00  0.00    -0.382 N 
ATOM     33  H11 ANP d         -20.854  -4.753  -5.231  0.00  0.00     0.157 HD
ATOM     34  H12 ANP d         -22.554  -4.808  -5.767  0.00  0.00     0.157 HD
ENDBRANCH  27  32
ENDBRANCH   5  23
BRANCH   4  35
ATOM     35  O2' ANP d         -23.787 -12.850  -4.699  0.00  0.00    -0.388 OA
ATOM     36  H8  ANP d         -24.122 -13.289  -3.926  0.00  0.00     0.210 HD
ENDBRANCH   4  35
TORSDOF 11
