REMARK  3 active torsions:
REMARK  status: ('A' for Active; 'I' for Inactive)
REMARK    1  A    between atoms: C14_5  and  S_6 
REMARK    2  A    between atoms: C9_14  and  N_15 
REMARK    3  A    between atoms: N_15  and  C6_16 
ROOT
ATOM      1  C7  MOL d          21.743  20.051   3.632  0.00  0.00     0.041 A 
ATOM      2  C8  MOL d          23.101  20.428   3.397  0.00  0.00    -0.024 A 
ATOM      3  C16 MOL d          23.642  20.816   2.097  0.00  0.00     0.014 A 
ATOM      4  C15 MOL d          24.978  21.109   1.909  0.00  0.00     0.027 A 
ATOM      5  C14 MOL d          25.792  21.055   3.094  0.00  0.00     0.081 A 
ATOM      6  C13 MOL d          25.269  20.754   4.378  0.00  0.00     0.038 A 
ATOM      7  C12 MOL d          23.931  20.417   4.525  0.00  0.00    -0.024 A 
ATOM      8  C11 MOL d          23.388  20.124   5.814  0.00  0.00     0.014 A 
ATOM      9  C10 MOL d          22.053  19.814   6.062  0.00  0.00     0.030 A 
ATOM     10  C9  MOL d          21.209  19.734   4.933  0.00  0.00     0.033 A 
ENDROOT
BRANCH  10  11
ATOM     11  N   MOL d          19.975  19.448   5.192  0.00  0.00    -0.356 N 
ATOM     12  H7  MOL d          19.657  19.538   6.168  0.00  0.00     0.166 HD
BRANCH  11  13
ATOM     13  C6  MOL d          19.014  19.012   4.212  0.00  0.00     0.032 A 
ATOM     14  C1  MOL d          17.608  19.171   4.366  0.00  0.00     0.029 A 
ATOM     15  C2  MOL d          16.598  18.775   3.493  0.00  0.00     0.002 A 
ATOM     16  C3  MOL d          16.946  18.128   2.320  0.00  0.00     0.000 A 
ATOM     17  C4  MOL d          18.338  17.936   2.072  0.00  0.00     0.002 A 
ATOM     18  C5  MOL d          19.352  18.327   3.021  0.00  0.00     0.029 A 
ENDBRANCH  11  13
ENDBRANCH  10  11
BRANCH   5  19
ATOM     19  S   MOL d          27.497  21.409   2.934  0.00  0.00     0.137 S 
ATOM     20  O3  MOL d          27.705  22.481   1.849  0.00  0.00    -0.591 OA
ATOM     21  O1  MOL d          28.141  20.161   2.317  0.00  0.00    -0.591 OA
ATOM     22  O2  MOL d          28.147  21.715   4.293  0.00  0.00    -0.591 OA
ENDBRANCH   5  19
TORSDOF 3
