REMARK  5 active torsions:
REMARK  status: ('A' for Active; 'I' for Inactive)
REMARK    1  A    between atoms: C1'_19  and  N1_4 
REMARK    2  A    between atoms: C5'_12  and  NBA_11 
REMARK    3  A    between atoms: C4'_13  and  C5'_12 
REMARK    4  A    between atoms: C3'_15  and  O3'_16 
REMARK    5  A    between atoms: C2'_17  and  O2'_18 
ROOT
ATOM      1  C4' U2S d          38.557  -0.835  13.849  0.00  0.00     0.181 C 
ATOM      2  O4' U2S d          38.709  -1.355  12.477  0.00  0.00    -0.354 OA
ATOM      3  C3' U2S d          38.016   0.536  13.534  0.00  0.00     0.181 C 
ATOM      4  C2' U2S d          36.865   0.155  12.634  0.00  0.00     0.198 C 
ATOM      5  C1' U2S d          37.390  -1.108  11.906  0.00  0.00     0.263 C 
ENDROOT
BRANCH   5   6
ATOM      6  N1  U2S d          36.533  -2.331  12.082  0.00  0.00    -0.280 N 
ATOM      7  C6  U2S d          36.910  -3.382  12.962  0.00  0.00     0.104 A 
ATOM      8  C5  U2S d          36.119  -4.523  13.123  0.00  0.00     0.092 A 
ATOM      9  C4  U2S d          34.941  -4.630  12.385  0.00  0.00     0.250 A 
ATOM     10  N3  U2S d          34.590  -3.611  11.494  0.00  0.00    -0.275 N 
ATOM     11  O4  U2S d          34.221  -5.621  12.475  0.00  0.00    -0.268 OA
ATOM     12  C2  U2S d          35.363  -2.462  11.334  0.00  0.00     0.331 A 
ATOM     13  H3  U2S d          33.755  -3.710  10.953  0.00  0.00     0.173 HD
ATOM     14  O2  U2S d          34.978  -1.579  10.568  0.00  0.00    -0.246 OA
ENDBRANCH   5   6
BRANCH   4  15
ATOM     15  O2' U2S d          36.788   1.258  11.753  0.00  0.00    -0.388 OA
ATOM     16  H19 U2S d          36.082   1.118  11.133  0.00  0.00     0.210 HD
ENDBRANCH   4  15
BRANCH   1  17
ATOM     17  C5' U2S d          39.752  -0.729  14.812  0.00  0.00     0.269 C 
BRANCH  17  18
ATOM     18  NBA U2S d          40.917  -1.468  14.328  0.00  0.00    -0.065 N 
ATOM     19  CAM U2S d          41.390  -2.310  15.441  0.00  0.00     0.261 C 
ATOM     20  CAK U2S d          42.780  -2.888  15.126  0.00  0.00     0.195 C 
ATOM     21  OAM U2S d          43.670  -1.800  14.801  0.00  0.00    -0.388 OA
ATOM     22  CAJ U2S d          43.245  -1.111  13.604  0.00  0.00     0.195 C 
ATOM     23  CAL U2S d          41.900  -0.448  13.918  0.00  0.00     0.261 C 
ATOM     24  H12 U2S d          40.677  -2.050  13.541  0.00  0.00     0.280 HD
ENDBRANCH  17  18
ENDBRANCH   1  17
BRANCH   3  25
ATOM     25  O3' U2S d          37.512   1.254  14.655  0.00  0.00    -0.390 OA
ATOM     26  H17 U2S d          37.193   2.102  14.369  0.00  0.00     0.210 HD
ENDBRANCH   3  25
TORSDOF 5
