REMARK  4 active torsions:
REMARK  status: ('A' for Active; 'I' for Inactive)
REMARK    1  A    between atoms: N_1  and  CA_2 
REMARK    2  A    between atoms: CA_2  and  CB_5 
REMARK    3  A    between atoms: CA_2  and  C_3 
REMARK    4  A    between atoms: CB_5  and  SG_6 
ROOT
ATOM      1  CA  DCY d           9.835  -9.750  23.203  0.00  0.00     0.292 C 
ENDROOT
BRANCH   1   2
ATOM      2  N   DCY d          10.380 -11.139  23.139  0.00  0.00    -0.065 N 
ATOM      3  H1  DCY d          10.424 -11.438  22.178  0.00  0.00     0.275 HD
ATOM      4  H2  DCY d           9.778 -11.760  23.657  0.00  0.00     0.275 HD
ATOM      5  H3  DCY d          11.305 -11.156  23.539  0.00  0.00     0.275 HD
ENDBRANCH   1   2
BRANCH   1   6
ATOM      6  CB  DCY d          10.742  -8.821  22.398  0.00  0.00     0.114 C 
BRANCH   6   7
ATOM      7  SG  DCY d          12.422  -8.587  23.046  0.00  0.00    -0.180 SA
ATOM      8  H7  DCY d          12.930  -7.960  22.442  0.00  0.00     0.101 HD
ENDBRANCH   6   7
ENDBRANCH   1   6
BRANCH   1   9
ATOM      9  C   DCY d           9.754  -9.262  24.656  0.00  0.00     0.205 C 
ATOM     10  OXT DCY d          10.282  -9.969  25.533  0.00  0.00    -0.646 OA
ATOM     11  O   DCY d           9.179  -8.183  24.900  0.00  0.00    -0.646 OA
ENDBRANCH   1   9
TORSDOF 4
