REMARK  4 active torsions:
REMARK  status: ('A' for Active; 'I' for Inactive)
REMARK       I    between atoms: N1_1  and  C7_5 
REMARK    1  A    between atoms: C4_2  and  O2_21 
REMARK    2  A    between atoms: C6_4  and  O1_22 
REMARK    3  A    between atoms: C7_5  and  C1_15 
REMARK    4  A    between atoms: C12_16  and  C8_6 
ROOT
ATOM      1  N1  PY9 d          17.114  -3.712  51.065  0.00  0.00    -0.339 N 
ATOM      2  C7  PY9 d          16.829  -3.119  49.805  0.00  0.00     0.257 C 
ATOM      3  C8  PY9 d          16.938  -3.163  52.449  0.00  0.00     0.121 C 
ATOM      4  C10 PY9 d          17.868  -5.404  52.588  0.00  0.00     0.022 C 
ATOM      5  C9  PY9 d          17.884  -4.044  53.282  0.00  0.00     0.032 C 
ATOM      6  C11 PY9 d          17.681  -5.066  51.114  0.00  0.00     0.127 C 
ATOM      7  O3  PY9 d          17.028  -3.666  48.717  0.00  0.00    -0.267 OA
ENDROOT
BRANCH   2   8
ATOM      8  C1  PY9 d          16.267  -1.739  49.758  0.00  0.00     0.065 A 
ATOM      9  C6  PY9 d          17.103  -0.646  49.404  0.00  0.00     0.084 A 
ATOM     10  C5  PY9 d          16.582   0.677  49.370  0.00  0.00     0.074 A 
ATOM     11  C4  PY9 d          15.217   0.897  49.693  0.00  0.00     0.068 A 
ATOM     12  C3  PY9 d          14.369  -0.182  50.043  0.00  0.00     0.037 A 
ATOM     13  C2  PY9 d          14.893  -1.500  50.074  0.00  0.00     0.022 A 
BRANCH   9  14
ATOM     14  O1  PY9 d          18.418  -0.803  49.088  0.00  0.00    -0.360 OA
ATOM     15  H19 PY9 d          18.797   0.044  48.883  0.00  0.00     0.217 HD
ENDBRANCH   9  14
BRANCH  11  16
ATOM     16  O2  PY9 d          14.689   2.150  49.681  0.00  0.00    -0.361 OA
ATOM     17  H18 PY9 d          15.361   2.773  49.431  0.00  0.00     0.217 HD
ENDBRANCH  11  16
ENDBRANCH   2   8
BRANCH   3  18
ATOM     18  C12 PY9 d          15.487  -3.132  53.013  0.00  0.00    -0.029 A 
ATOM     19  C13 PY9 d          14.490  -4.078  52.568  0.00  0.00     0.010 A 
ATOM     20  C14 PY9 d          13.162  -4.053  53.073  0.00  0.00     0.001 A 
ATOM     21  C15 PY9 d          12.788  -3.089  54.034  0.00  0.00     0.001 A 
ATOM     22  C16 PY9 d          13.735  -2.143  54.496  0.00  0.00     0.007 A 
ATOM     23  C17 PY9 d          15.082  -2.140  54.006  0.00  0.00    -0.054 A 
ATOM     24  C18 PY9 d          16.025  -1.088  54.557  0.00  0.00     0.049 C 
ENDBRANCH   3  18
TORSDOF 4
