REMARK  5 active torsions:
REMARK  status: ('A' for Active; 'I' for Inactive)
REMARK    1  A    between atoms: N2_2  and  C11_11 
REMARK    2  A    between atoms: C5_5  and  C7_7 
REMARK       I    between atoms: C7_7  and  N10_10 
REMARK    3  A    between atoms: C11_11  and  C14_14 
REMARK    4  A    between atoms: C14_14  and  C17_17 
REMARK    5  A    between atoms: C17_17  and  O16_16 
ROOT
ATOM      1  C1  FSU d           8.063  14.636  58.789  0.00  0.00     0.255 A 
ATOM      2  N2  FSU d           8.013  13.766  59.809  0.00  0.00    -0.344 N 
ATOM      3  C3  FSU d           9.283  15.479  58.787  0.00  0.00     0.055 A 
ATOM      4  C4  FSU d           9.904  14.996  59.914  0.00  0.00    -0.024 A 
ATOM      5  C5  FSU d           9.874  16.494  58.021  0.00  0.00     0.048 A 
ATOM      6  C6  FSU d           9.157  13.932  60.548  0.00  0.00     0.165 A 
ATOM      7  O8  FSU d           7.127  14.747  57.909  0.00  0.00    -0.267 OA
ATOM      8  C12 FSU d          11.140  15.518  60.303  0.00  0.00     0.010 A 
ATOM      9  C13 FSU d          11.107  17.020  58.439  0.00  0.00     0.018 A 
ATOM     10  C15 FSU d          11.749  16.527  59.577  0.00  0.00     0.002 A 
ENDROOT
BRANCH   2  11
ATOM     11  C11 FSU d           6.944  12.797  60.065  0.00  0.00     0.128 C 
BRANCH  11  12
ATOM     12  C14 FSU d           5.955  13.355  61.064  0.00  0.00     0.046 C 
BRANCH  12  13
ATOM     13  C17 FSU d           5.009  12.241  61.520  0.00  0.00     0.168 C 
BRANCH  13  14
ATOM     14  O16 FSU d           4.204  11.882  60.396  0.00  0.00    -0.396 OA
ATOM     15  C18 FSU d           3.399  10.730  60.691  0.00  0.00     0.201 C 
ENDBRANCH  13  14
ENDBRANCH  12  13
ENDBRANCH  11  12
ENDBRANCH   2  11
BRANCH   5  16
ATOM     16  C7  FSU d           9.265  17.046  56.766  0.00  0.00     0.250 C 
ATOM     17  O9  FSU d           9.933  17.796  56.075  0.00  0.00    -0.268 OA
ATOM     18  N10 FSU d           8.064  16.654  56.341  0.00  0.00    -0.366 N 
ATOM     19  H3  FSU d           7.681  17.038  55.501  0.00  0.00     0.159 HD
ATOM     20  H4  FSU d           7.546  15.976  56.862  0.00  0.00     0.159 HD
ENDBRANCH   5  16
TORSDOF 5
