REMARK  4 active torsions:
REMARK  status: ('A' for Active; 'I' for Inactive)
REMARK    1  A    between atoms: C1_1  and  O17_16 
REMARK    2  A    between atoms: C5_5  and  C18_17 
REMARK    3  A    between atoms: C6_6  and  O16_15 
REMARK    4  A    between atoms: C15_14  and  O20_19 
ROOT
ATOM      1  C1  MOL d          -8.306 -25.213  16.785  0.00  0.00     0.102 C 
ATOM      2  C2  MOL d          -8.767 -26.236  15.955  0.00  0.00     0.077 C 
ATOM      3  C3  MOL d          -8.971 -27.503  16.499  0.00  0.00     0.093 C 
ATOM      4  C4  MOL d          -8.653 -27.758  17.847  0.00  0.00     0.069 C 
ATOM      5  C5  MOL d          -7.863 -26.811  18.552  0.00  0.00     0.093 C 
ATOM      6  C6  MOL d          -7.767 -25.498  18.038  0.00  0.00     0.117 C 
ATOM      7  O8  MOL d          -9.495 -28.497  15.700  0.00  0.00    -0.313 OA
ATOM      8  C9  MOL d          -9.699 -29.777  16.173  0.00  0.00     0.071 C 
ATOM      9  C10 MOL d          -9.588 -30.098  17.485  0.00  0.00     0.077 C 
ATOM     10  C11 MOL d          -9.180 -29.007  18.439  0.00  0.00     0.199 C 
ATOM     11  C12 MOL d         -10.050 -30.785  15.108  0.00  0.00     0.097 C 
ATOM     12  C13 MOL d          -9.715 -32.213  15.565  0.00  0.00     0.127 C 
ATOM     13  O14 MOL d         -10.167 -32.443  16.904  0.00  0.00    -0.352 OA
ATOM     14  C15 MOL d          -9.873 -31.519  17.960  0.00  0.00     0.300 C 
ATOM     15  C26 MOL d         -10.334 -33.288  14.662  0.00  0.00     0.040 C 
ATOM     16  O31 MOL d          -9.319 -29.195  19.626  0.00  0.00    -0.287 OA
ENDROOT
BRANCH   5  17
ATOM     17  C18 MOL d          -7.133 -27.142  19.791  0.00  0.00     0.213 C 
ATOM     18  O19 MOL d          -7.736 -26.754  20.926  0.00  0.00    -0.644 OA
ATOM     19  O30 MOL d          -6.075 -27.727  19.782  0.00  0.00    -0.644 OA
ENDBRANCH   5  17
BRANCH   6  20
ATOM     20  O16 MOL d          -7.164 -24.437  18.695  0.00  0.00    -0.357 OA
ATOM     21  H6  MOL d          -7.222 -23.657  18.155  0.00  0.00     0.217 HD
ENDBRANCH   6  20
BRANCH   1  22
ATOM     22  O17 MOL d          -8.370 -23.885  16.415  0.00  0.00    -0.358 OA
ATOM     23  H7  MOL d          -7.494 -23.517  16.405  0.00  0.00     0.217 HD
ENDBRANCH   1  22
BRANCH  14  24
ATOM     24  O20 MOL d          -8.877 -32.028  18.846  0.00  0.00    -0.362 OA
ATOM     25  C22 MOL d          -7.654 -32.545  18.369  0.00  0.00     0.205 C 
ENDBRANCH  14  24
TORSDOF 4
