REMARK  6 active torsions:
REMARK  status: ('A' for Active; 'I' for Inactive)
REMARK    1  A    between atoms: C1_2  and  O1_3 
REMARK    2  A    between atoms: C2_4  and  N2_5 
REMARK       I    between atoms: N2_5  and  C7_13 
REMARK    3  A    between atoms: C3_6  and  O3_7 
REMARK    4  A    between atoms: C4_8  and  O4_9 
REMARK    5  A    between atoms: C5_10  and  C6_11 
REMARK    6  A    between atoms: C6_11  and  O6_12 
ROOT
ATOM      1  O   A2G d         -38.142 -30.968  -4.499  0.00  0.00    -0.349 OA
ATOM      2  C1  A2G d         -39.571 -31.037  -4.482  0.00  0.00     0.282 C 
ATOM      3  C2  A2G d         -40.101 -29.657  -4.058  0.00  0.00     0.170 C 
ATOM      4  C3  A2G d         -39.582 -28.581  -5.016  0.00  0.00     0.177 C 
ATOM      5  C4  A2G d         -38.060 -28.661  -5.153  0.00  0.00     0.180 C 
ATOM      6  C5  A2G d         -37.637 -30.081  -5.503  0.00  0.00     0.179 C 
ENDROOT
BRANCH   3   7
ATOM      7  N2  A2G d         -41.546 -29.686  -4.215  0.00  0.00    -0.349 N 
ATOM      8  C7  A2G d         -42.366 -29.198  -3.266  0.00  0.00     0.214 C 
ATOM      9  O7  A2G d         -41.958 -28.705  -2.226  0.00  0.00    -0.274 OA
ATOM     10  C8  A2G d         -43.837 -29.293  -3.550  0.00  0.00     0.117 C 
ATOM     11  H4  A2G d         -41.940 -30.077  -5.047  0.00  0.00     0.163 HD
ENDBRANCH   3   7
BRANCH   2  12
ATOM     12  O1  A2G d         -40.024 -31.378  -5.810  0.00  0.00    -0.369 OA
ATOM     13  H2  A2G d         -39.737 -30.711  -6.422  0.00  0.00     0.212 HD
ENDBRANCH   2  12
BRANCH   4  14
ATOM     14  O3  A2G d         -39.942 -27.292  -4.534  0.00  0.00    -0.391 OA
ATOM     15  H6  A2G d         -39.560 -27.159  -3.674  0.00  0.00     0.210 HD
ENDBRANCH   4  14
BRANCH   5  16
ATOM     16  O4  A2G d         -37.480 -28.316  -3.890  0.00  0.00    -0.390 OA
ATOM     17  H8  A2G d         -37.742 -27.434  -3.653  0.00  0.00     0.210 HD
ENDBRANCH   5  16
BRANCH   6  18
ATOM     18  C6  A2G d         -36.123 -30.221  -5.558  0.00  0.00     0.198 C 
BRANCH  18  19
ATOM     19  O6  A2G d         -35.842 -31.031  -6.693  0.00  0.00    -0.398 OA
ATOM     20  H12 A2G d         -34.903 -31.149  -6.772  0.00  0.00     0.209 HD
ENDBRANCH  18  19
ENDBRANCH   6  18
TORSDOF 6
