REMARK  7 active torsions:
REMARK  status: ('A' for Active; 'I' for Inactive)
REMARK    1  A    between atoms: C2_2  and  C1_1 
REMARK    2  A    between atoms: C3_3  and  C2_2 
REMARK    3  A    between atoms: CS1_22  and  C3_3 
REMARK    4  A    between atoms: N8_7  and  C9_8 
REMARK       I    between atoms: N8_7  and  CS1_22 
REMARK    5  A    between atoms: C10_9  and  C14_13 
REMARK    6  A    between atoms: C12_11  and  C18_17 
REMARK    7  A    between atoms: C14_13  and  O15_14 
ROOT
ATOM      1  C9  B64 d          12.956  19.352  -7.487  0.00  0.00     0.059 A 
ATOM      2  C10 B64 d          13.935  18.742  -8.387  0.00  0.00     0.107 A 
ATOM      3  S11 B64 d          13.961  19.659  -9.882  0.00  0.00    -0.081 SA
ATOM      4  C12 B64 d          12.622  20.675  -9.311  0.00  0.00     0.025 A 
ATOM      5  C13 B64 d          12.185  20.413  -8.003  0.00  0.00     0.051 A 
ENDROOT
BRANCH   1   6
ATOM      6  N8  B64 d          12.807  18.719  -6.289  0.00  0.00    -0.326 N 
ATOM      7  CS1 B64 d          12.034  19.187  -5.251  0.00  0.00     0.222 C 
ATOM      8  O7  B64 d          11.312  20.201  -5.340  0.00  0.00    -0.273 OA
ATOM      9  H5  B64 d          13.293  17.855  -6.155  0.00  0.00     0.169 HD
BRANCH   7  10
ATOM     10  C3  B64 d          11.965  18.115  -4.093  0.00  0.00     0.113 C 
BRANCH  10  11
ATOM     11  C2  B64 d          11.538  18.623  -2.728  0.00  0.00     0.122 C 
BRANCH  11  12
ATOM     12  C1  B64 d          10.287  19.468  -2.760  0.00  0.00     0.172 C 
ATOM     13  O1  B64 d          10.395  20.569  -2.200  0.00  0.00    -0.648 OA
ATOM     14  O2  B64 d           9.225  19.074  -3.322  0.00  0.00    -0.648 OA
ENDBRANCH  11  12
ENDBRANCH  10  11
ENDBRANCH   7  10
ENDBRANCH   1   6
BRANCH   2  15
ATOM     15  C14 B64 d          14.862  17.637  -8.127  0.00  0.00     0.302 C 
ATOM     16  O17 B64 d          14.924  17.103  -7.020  0.00  0.00    -0.259 OA
BRANCH  15  17
ATOM     17  O15 B64 d          15.754  17.244  -9.179  0.00  0.00    -0.322 OA
ATOM     18  C16 B64 d          16.657  16.179  -8.882  0.00  0.00     0.213 C 
ENDBRANCH  15  17
ENDBRANCH   2  15
BRANCH   4  19
ATOM     19  C18 B64 d          12.109  21.739 -10.214  0.00  0.00     0.022 A 
ATOM     20  C19 B64 d          11.158  22.711  -9.901  0.00  0.00     0.021 A 
ATOM     21  C20 B64 d          10.947  23.553 -11.024  0.00  0.00     0.008 A 
ATOM     22  C21 B64 d          11.701  23.296 -12.191  0.00  0.00     0.050 A 
ATOM     23  S22 B64 d          12.666  21.829 -11.887  0.00  0.00    -0.101 SA
ENDBRANCH   4  19
TORSDOF 7
