REMARK  18 active torsions:
REMARK  status: ('A' for Active; 'I' for Inactive)
REMARK    1  A    between atoms: NA1_2  and  OA7_3 
REMARK    2  A    between atoms: CA2_4  and  OA2_5 
REMARK    3  A    between atoms: CA3_6  and  OA3_7 
REMARK    4  A    between atoms: CA4_8  and  OA4_9 
REMARK    5  A    between atoms: OA4_9  and  CB1_14 
REMARK    6  A    between atoms: CA5_10  and  CA6_12 
REMARK    7  A    between atoms: CA6_12  and  OA6_13 
REMARK    8  A    between atoms: CB2_15  and  OB2_20 
REMARK    9  A    between atoms: CB3_16  and  OB3_21 
REMARK   10  A    between atoms: CB4_17  and  OB4_22 
REMARK   11  A    between atoms: CB5_18  and  CB6_19 
REMARK   12  A    between atoms: CB6_19  and  OB6_24 
REMARK   13  A    between atoms: OB4_22  and  CD1_25 
REMARK   14  A    between atoms: CD2_26  and  OD2_31 
REMARK   15  A    between atoms: CD3_27  and  OD3_32 
REMARK   16  A    between atoms: CD4_28  and  OD4_33 
REMARK   17  A    between atoms: CD5_29  and  CD6_30 
REMARK   18  A    between atoms: CD6_30  and  OD6_35 
ROOT
ATOM      1  CB1 MOL d          13.591  17.686  40.172  0.00  0.00     0.292 C 
ATOM      2  CB2 MOL d          13.243  17.925  38.626  0.00  0.00     0.204 C 
ATOM      3  CB3 MOL d          13.291  16.600  37.780  0.00  0.00     0.183 C 
ATOM      4  CB4 MOL d          14.735  16.016  37.919  0.00  0.00     0.187 C 
ATOM      5  CB5 MOL d          14.982  15.698  39.537  0.00  0.00     0.180 C 
ATOM      6  OB5 MOL d          14.886  16.970  40.291  0.00  0.00    -0.348 OA
ENDROOT
BRANCH   1   7
ATOM      7  OA4 MOL d          12.515  16.967  40.758  0.00  0.00    -0.348 OA
BRANCH   7   8
ATOM      8  CA4 MOL d          12.468  17.069  42.079  0.00  0.00     0.181 C 
ATOM      9  CA3 MOL d          11.625  18.338  42.468  0.00  0.00     0.185 C 
ATOM     10  CA2 MOL d          11.109  18.214  43.945  0.00  0.00     0.220 C 
ATOM     11  CA1 MOL d          10.336  16.889  44.086  0.00  0.00     0.159 C 
ATOM     12  NA1 MOL d           9.288  16.853  44.895  0.00  0.00    -0.120 NA
ATOM     13  NA5 MOL d          10.744  15.713  43.383  0.00  0.00    -0.365 N 
ATOM     14  CA5 MOL d          11.866  15.744  42.426  0.00  0.00     0.138 C 
ATOM     15  H8  MOL d          10.245  14.827  43.548  0.00  0.00     0.161 HD
BRANCH   9  16
ATOM     16  OA3 MOL d          12.306  19.468  42.324  0.00  0.00    -0.390 OA
ATOM     17  H5  MOL d          11.740  20.205  42.523  0.00  0.00     0.210 HD
ENDBRANCH   9  16
BRANCH  10  18
ATOM     18  OA2 MOL d          10.390  19.263  44.375  0.00  0.00    -0.385 OA
ATOM     19  H3  MOL d          10.899  20.058  44.272  0.00  0.00     0.210 HD
ENDBRANCH  10  18
BRANCH  12  20
ATOM     20  OA7 MOL d           8.636  15.706  44.999  0.00  0.00    -0.265 OA
ATOM     21  H1  MOL d           7.911  15.809  45.604  0.00  0.00     0.247 HD
ENDBRANCH  12  20
BRANCH  14  22
ATOM     22  CA6 MOL d          12.978  14.844  43.054  0.00  0.00     0.191 C 
BRANCH  22  23
ATOM     23  OA6 MOL d          13.442  15.389  44.224  0.00  0.00    -0.399 OA
ATOM     24  H11 MOL d          14.116  14.827  44.588  0.00  0.00     0.209 HD
ENDBRANCH  22  23
ENDBRANCH  14  22
ENDBRANCH   7   8
ENDBRANCH   1   7
BRANCH   2  25
ATOM     25  OB2 MOL d          11.950  18.571  38.559  0.00  0.00    -0.388 OA
ATOM     26  H19 MOL d          11.285  17.982  38.895  0.00  0.00     0.210 HD
ENDBRANCH   2  25
BRANCH   3  27
ATOM     27  OB3 MOL d          12.989  16.923  36.400  0.00  0.00    -0.390 OA
ATOM     28  H20 MOL d          13.051  16.136  35.871  0.00  0.00     0.210 HD
ENDBRANCH   3  27
BRANCH   5  29
ATOM     29  CB6 MOL d          16.354  15.118  39.818  0.00  0.00     0.198 C 
BRANCH  29  30
ATOM     30  OB6 MOL d          17.349  15.947  39.321  0.00  0.00    -0.398 OA
ATOM     31  H21 MOL d          17.285  16.800  39.735  0.00  0.00     0.209 HD
ENDBRANCH  29  30
ENDBRANCH   5  29
BRANCH   4  32
ATOM     32  OB4 MOL d          14.815  14.820  37.162  0.00  0.00    -0.348 OA
BRANCH  32  33
ATOM     33  CD1 MOL d          16.064  14.759  36.395  0.00  0.00     0.292 C 
ATOM     34  CD2 MOL d          15.874  14.787  34.825  0.00  0.00     0.204 C 
ATOM     35  CD3 MOL d          15.046  13.497  34.401  0.00  0.00     0.183 C 
ATOM     36  CD4 MOL d          15.867  12.228  34.795  0.00  0.00     0.183 C 
ATOM     37  CD5 MOL d          16.096  12.236  36.416  0.00  0.00     0.179 C 
ATOM     38  OD5 MOL d          16.810  13.505  36.782  0.00  0.00    -0.348 OA
BRANCH  34  39
ATOM     39  OD2 MOL d          15.170  16.002  34.499  0.00  0.00    -0.388 OA
ATOM     40  H29 MOL d          14.337  16.017  34.956  0.00  0.00     0.210 HD
ENDBRANCH  34  39
BRANCH  35  41
ATOM     41  OD3 MOL d          14.868  13.495  33.007  0.00  0.00    -0.390 OA
ATOM     42  H30 MOL d          14.398  12.710  32.750  0.00  0.00     0.210 HD
ENDBRANCH  35  41
BRANCH  36  43
ATOM     43  OD4 MOL d          15.138  11.007  34.426  0.00  0.00    -0.385 OA
ATOM     44  CD7 MOL d          15.847  10.133  33.507  0.00  0.00     0.202 C 
ENDBRANCH  36  43
BRANCH  37  45
ATOM     45  CD6 MOL d          16.937  11.005  36.865  0.00  0.00     0.198 C 
BRANCH  45  46
ATOM     46  OD6 MOL d          18.247  11.020  36.286  0.00  0.00    -0.398 OA
ATOM     47  H31 MOL d          18.702  11.809  36.556  0.00  0.00     0.209 HD
ENDBRANCH  45  46
ENDBRANCH  37  45
ENDBRANCH  32  33
ENDBRANCH   4  32
TORSDOF 18
