REMARK  18 active torsions:
REMARK  status: ('A' for Active; 'I' for Inactive)
REMARK    1  A    between atoms: C2_4  and  C1_1 
REMARK    2  A    between atoms: C2_4  and  O2_16 
REMARK    3  A    between atoms: O4_7  and  C4_6 
REMARK    4  A    between atoms: C2_23  and  O4_7 
REMARK    5  A    between atoms: C5_8  and  O5_9 
REMARK    6  A    between atoms: C6_10  and  C7_12 
REMARK    7  A    between atoms: C7_12  and  O7_13 
REMARK    8  A    between atoms: C7_12  and  C8_14 
REMARK    9  A    between atoms: C8_14  and  O8_15 
REMARK   10  A    between atoms: O2_16  and  C9_17 
REMARK   11  A    between atoms: C9_17  and  C10_18 
REMARK   12  A    between atoms: C1_20  and  C2_23 
REMARK   13  A    between atoms: C4_25  and  O4_26 
REMARK   14  A    between atoms: C5_27  and  O5_28 
REMARK   15  A    between atoms: C6_29  and  C7_31 
REMARK   16  A    between atoms: C7_31  and  O7_32 
REMARK   17  A    between atoms: C7_31  and  C8_33 
REMARK   18  A    between atoms: C8_33  and  O8_34 
ROOT
ATOM      1  C2  KDA d           7.811   0.035  -5.578  0.00  0.00     0.259 C 
ATOM      2  C3  KDA d           7.495  -0.186  -4.081  0.00  0.00     0.115 C 
ATOM      3  C4  KDA d           8.495   0.514  -3.146  0.00  0.00     0.162 C 
ATOM      4  C5  KDA d           9.903   0.026  -3.508  0.00  0.00     0.179 C 
ATOM      5  C6  KDA d          10.182   0.362  -4.965  0.00  0.00     0.187 C 
ATOM      6  O6  KDA d           9.195  -0.311  -5.807  0.00  0.00    -0.336 OA
ENDROOT
BRANCH   3   7
ATOM      7  O4  KDA d           8.105   0.254  -1.766  0.00  0.00    -0.338 OA
BRANCH   7   8
ATOM      8  C2  KDA d           8.999   0.694  -0.702  0.00  0.00     0.259 C 
ATOM      9  C3  KDA d           8.178   0.680   0.604  0.00  0.00     0.115 C 
ATOM     10  C4  KDA d           6.987   1.647   0.453  0.00  0.00     0.155 C 
ATOM     11  C5  KDA d           7.586   3.023   0.190  0.00  0.00     0.178 C 
ATOM     12  C6  KDA d           8.427   3.001  -1.088  0.00  0.00     0.187 C 
ATOM     13  O6  KDA d           9.472   2.033  -0.995  0.00  0.00    -0.336 OA
BRANCH   8  14
ATOM     14  C1  KDA d          10.238  -0.188  -0.500  0.00  0.00     0.239 C 
ATOM     15  O1A KDA d          10.164  -1.384  -0.862  0.00  0.00    -0.644 OA
ATOM     16  O1B KDA d          11.233   0.365   0.025  0.00  0.00    -0.644 OA
ENDBRANCH   8  14
BRANCH  10  17
ATOM     17  O4  KDA d           6.234   1.719   1.673  0.00  0.00    -0.393 OA
ATOM     18  H20 KDA d           6.796   2.030   2.373  0.00  0.00     0.210 HD
ENDBRANCH  10  17
BRANCH  11  19
ATOM     19  O5  KDA d           8.405   3.392   1.286  0.00  0.00    -0.390 OA
ATOM     20  H22 KDA d           7.880   3.418   2.077  0.00  0.00     0.210 HD
ENDBRANCH  11  19
BRANCH  12  21
ATOM     21  C7  KDA d           9.075   4.354  -1.418  0.00  0.00     0.173 C 
BRANCH  21  22
ATOM     22  O7  KDA d           8.162   5.444  -1.292  0.00  0.00    -0.391 OA
ATOM     23  H25 KDA d           8.608   6.255  -1.506  0.00  0.00     0.210 HD
ENDBRANCH  21  22
BRANCH  21  24
ATOM     24  C8  KDA d           9.696   4.258  -2.826  0.00  0.00     0.198 C 
BRANCH  24  25
ATOM     25  O8  KDA d          10.346   5.473  -3.197  0.00  0.00    -0.398 OA
ATOM     26  H28 KDA d           9.714   6.182  -3.195  0.00  0.00     0.209 HD
ENDBRANCH  24  25
ENDBRANCH  21  24
ENDBRANCH  12  21
ENDBRANCH   7   8
ENDBRANCH   3   7
BRANCH   4  27
ATOM     27  O5  KDA d           9.956  -1.394  -3.387  0.00  0.00    -0.390 OA
ATOM     28  H5  KDA d           9.753  -1.642  -2.493  0.00  0.00     0.210 HD
ENDBRANCH   4  27
BRANCH   1  29
ATOM     29  C1  KDA d           6.831  -0.874  -6.372  0.00  0.00     0.239 C 
ATOM     30  O1A KDA d           7.279  -1.959  -6.790  0.00  0.00    -0.644 OA
ATOM     31  O1B KDA d           5.633  -0.532  -6.474  0.00  0.00    -0.644 OA
ENDBRANCH   1  29
BRANCH   1  32
ATOM     32  O2  KDA d           7.758   1.467  -5.848  0.00  0.00    -0.343 OA
BRANCH  32  33
ATOM     33  C9  KDA d           6.412   1.907  -6.159  0.00  0.00     0.198 C 
BRANCH  33  34
ATOM     34  C10 KDA d           5.306   1.718  -5.330  0.00  0.00    -0.011 C 
ATOM     35  C11 KDA d           4.063   2.187  -5.740  0.00  0.00     0.009 C 
ENDBRANCH  33  34
ENDBRANCH  32  33
ENDBRANCH   1  32
BRANCH   5  36
ATOM     36  C7  KDA d          11.663   0.300  -5.434  0.00  0.00     0.173 C 
BRANCH  36  37
ATOM     37  O7  KDA d          12.584   0.698  -4.400  0.00  0.00    -0.391 OA
ATOM     38  H8  KDA d          13.473   0.644  -4.731  0.00  0.00     0.210 HD
ENDBRANCH  36  37
BRANCH  36  39
ATOM     39  C8  KDA d          11.862   1.144  -6.698  0.00  0.00     0.198 C 
BRANCH  39  40
ATOM     40  O8  KDA d          11.015   0.678  -7.739  0.00  0.00    -0.398 OA
ATOM     41  H11 KDA d          10.109   0.743  -7.461  0.00  0.00     0.209 HD
ENDBRANCH  39  40
ENDBRANCH  36  39
ENDBRANCH   5  36
TORSDOF 18
