REMARK  7 active torsions:
REMARK  status: ('A' for Active; 'I' for Inactive)
REMARK    1  A    between atoms: C1_1  and  C7_7 
REMARK    2  A    between atoms: C7_7  and  N1_8 
REMARK    3  A    between atoms: C8_12  and  C1'_13 
REMARK    4  A    between atoms: C5'_17  and  O5'_20 
REMARK    5  A    between atoms: C6'_18  and  O6'_19 
REMARK    6  A    between atoms: O5'_20  and  C10_21 
REMARK    7  A    between atoms: C10_21  and  C20_22 
ROOT
ATOM      1  C1  MOL d           8.702   1.906  24.721  0.00  0.00     0.048 A 
ATOM      2  C2  MOL d           9.502   1.701  23.546  0.00  0.00     0.132 A 
ATOM      3  C3  MOL d          10.089   2.746  22.809  0.00  0.00     0.077 A 
ATOM      4  C4  MOL d           9.894   3.985  23.327  0.00  0.00     0.088 A 
ATOM      5  C5  MOL d           9.143   4.222  24.436  0.00  0.00     0.064 A 
ATOM      6  C6  MOL d           8.561   3.236  25.176  0.00  0.00     0.050 A 
ATOM      7  N3  MOL d          10.280   5.133  22.905  0.00  0.00    -0.228 NA
ATOM      8  N4  MOL d           9.073   5.487  24.759  0.00  0.00    -0.338 N 
ATOM      9  C8  MOL d           9.789   5.975  23.763  0.00  0.00     0.142 A 
ATOM     10  F2  MOL d           9.723   0.474  23.074  0.00  0.00    -0.205 F 
ATOM     11  H7  MOL d           8.604   5.957  25.547  0.00  0.00     0.167 HD
ENDROOT
BRANCH   9  12
ATOM     12  C1' MOL d          10.024   7.330  23.661  0.00  0.00     0.046 A 
ATOM     13  C6' MOL d          10.619   7.869  22.509  0.00  0.00     0.113 A 
ATOM     14  C5' MOL d          10.856   9.220  22.407  0.00  0.00     0.102 A 
ATOM     15  C4' MOL d          10.430  10.058  23.443  0.00  0.00     0.040 A 
ATOM     16  C3' MOL d           9.842   9.542  24.587  0.00  0.00     0.004 A 
ATOM     17  C2' MOL d           9.607   8.195  24.673  0.00  0.00     0.018 A 
BRANCH  13  18
ATOM     18  O6' MOL d          11.036   7.053  21.474  0.00  0.00    -0.357 OA
ATOM     19  H11 MOL d          10.811   6.152  21.673  0.00  0.00     0.217 HD
ENDBRANCH  13  18
BRANCH  14  20
ATOM     20  O5' MOL d          11.457   9.700  21.255  0.00  0.00    -0.348 OA
BRANCH  20  21
ATOM     21  C10 MOL d          12.269  10.858  21.478  0.00  0.00     0.179 C 
BRANCH  21  22
ATOM     22  C20 MOL d          12.855  11.354  20.157  0.00  0.00     0.002 C 
ATOM     23  C40 MOL d          11.826  11.215  19.047  0.00  0.00     0.011 C 
ATOM     24  C30 MOL d          14.152  10.607  19.824  0.00  0.00     0.011 C 
ENDBRANCH  21  22
ENDBRANCH  20  21
ENDBRANCH  14  20
ENDBRANCH   9  12
BRANCH   1  25
ATOM     25  C7  MOL d           8.096   0.866  25.444  0.00  0.00     0.105 C 
ATOM     26  N2  MOL d           7.969  -0.341  24.955  0.00  0.00    -0.385 N 
ATOM     27  H5  MOL d           8.340  -0.559  24.019  0.00  0.00     0.157 HD
ATOM     28  H6  MOL d           7.498  -1.073  25.506  0.00  0.00     0.157 HD
BRANCH  25  29
ATOM     29  N1  MOL d           7.622   1.129  26.630  0.00  0.00    -0.385 N 
ATOM     30  H3  MOL d           7.173   0.384  27.182  0.00  0.00     0.157 HD
ATOM     31  H4  MOL d           7.697   2.081  27.015  0.00  0.00     0.157 HD
ENDBRANCH  25  29
ENDBRANCH   1  25
TORSDOF 7
