REMARK  4 active torsions:
REMARK  status: ('A' for Active; 'I' for Inactive)
REMARK    1  A    between atoms: CA_5  and  C_11 
REMARK    2  A    between atoms: CB_6  and  CB1_7 
REMARK    3  A    between atoms: CB1_7  and  CG1_9 
REMARK    4  A    between atoms: CG_8  and  CG2_10 
ROOT
ATOM      1  N   KAI d          19.628 -35.059  -7.820  0.00  0.00    -0.060 N 
ATOM      2  CD  KAI d          19.287 -33.735  -7.244  0.00  0.00     0.238 C 
ATOM      3  CA  KAI d          20.047 -35.924  -6.715  0.00  0.00     0.290 C 
ATOM      4  CB  KAI d          20.191 -35.032  -5.497  0.00  0.00     0.043 C 
ATOM      5  CG  KAI d          19.193 -33.941  -5.739  0.00  0.00     0.021 C 
ATOM      6  H1  KAI d          20.379 -34.962  -8.485  0.00  0.00     0.278 HD
ATOM      7  H2  KAI d          18.822 -35.453  -8.279  0.00  0.00     0.278 HD
ENDROOT
BRANCH   4   8
ATOM      8  CB1 KAI d          21.561 -34.361  -5.413  0.00  0.00     0.121 C 
BRANCH   8   9
ATOM      9  CG1 KAI d          22.678 -35.257  -4.922  0.00  0.00     0.172 C 
ATOM     10  OD1 KAI d          23.845 -34.818  -5.060  0.00  0.00    -0.648 OA
ATOM     11  OD2 KAI d          22.432 -36.378  -4.404  0.00  0.00    -0.648 OA
ENDBRANCH   8   9
ENDBRANCH   4   8
BRANCH   3  12
ATOM     12  C   KAI d          18.986 -36.955  -6.489  0.00  0.00     0.205 C 
ATOM     13  O   KAI d          18.142 -37.195  -7.375  0.00  0.00    -0.646 OA
ATOM     14  OXT KAI d          18.935 -37.561  -5.408  0.00  0.00    -0.646 OA
ENDBRANCH   3  12
BRANCH   5  15
ATOM     15  CG2 KAI d          19.566 -32.732  -4.878  0.00  0.00    -0.017 C 
ATOM     16  CD1 KAI d          19.239 -31.406  -5.537  0.00  0.00     0.010 C 
ATOM     17  CD2 KAI d          18.997 -32.856  -3.464  0.00  0.00     0.010 C 
ENDBRANCH   5  15
TORSDOF 4
