REMARK  5 active torsions:
REMARK  status: ('A' for Active; 'I' for Inactive)
REMARK    1  A    between atoms: N_1  and  CA_2 
REMARK    2  A    between atoms: CA_2  and  C_3 
REMARK    3  A    between atoms: CA_2  and  CB_5 
REMARK    4  A    between atoms: CB_5  and  CG_6 
REMARK    5  A    between atoms: CZ_11  and  OH_12 
ROOT
ATOM      1  CB  TYR d          94.560 -39.978 -19.806  0.00  0.00     0.082 C 
ENDROOT
BRANCH   1   2
ATOM      2  CA  TYR d          93.315 -40.078 -18.982  0.00  0.00     0.287 C 
BRANCH   2   3
ATOM      3  N   TYR d          92.952 -38.703 -18.469  0.00  0.00    -0.065 N 
ATOM      4  H1  TYR d          92.767 -38.092 -19.249  0.00  0.00     0.275 HD
ATOM      5  H2  TYR d          93.718 -38.334 -17.927  0.00  0.00     0.275 HD
ATOM      6  H3  TYR d          92.130 -38.767 -17.889  0.00  0.00     0.275 HD
ENDBRANCH   2   3
BRANCH   2   7
ATOM      7  C   TYR d          93.601 -41.020 -17.766  0.00  0.00     0.204 C 
ATOM      8  O   TYR d          93.815 -40.552 -16.650  0.00  0.00    -0.646 OA
ATOM      9  OXT TYR d          93.543 -42.244 -17.942  0.00  0.00    -0.646 OA
ENDBRANCH   2   7
ENDBRANCH   1   2
BRANCH   1  10
ATOM     10  CG  TYR d          95.820 -39.452 -19.093  0.00  0.00    -0.056 A 
ATOM     11  CD1 TYR d          95.987 -38.109 -18.805  0.00  0.00     0.010 A 
ATOM     12  CE1 TYR d          97.152 -37.619 -18.235  0.00  0.00     0.037 A 
ATOM     13  CZ  TYR d          98.185 -38.484 -18.022  0.00  0.00     0.065 A 
ATOM     14  CE2 TYR d          98.059 -39.796 -18.368  0.00  0.00     0.037 A 
ATOM     15  CD2 TYR d          96.892 -40.257 -18.932  0.00  0.00     0.010 A 
BRANCH  13  16
ATOM     16  OH  TYR d          99.400 -38.093 -17.532  0.00  0.00    -0.361 OA
ATOM     17  H11 TYR d          99.374 -37.166 -17.326  0.00  0.00     0.217 HD
ENDBRANCH  13  16
ENDBRANCH   1  10
TORSDOF 5
