REMARK  13 active torsions:
REMARK  status: ('A' for Active; 'I' for Inactive)
REMARK    1  A    between atoms: C3_3  and  C20_20 
REMARK    2  A    between atoms: C4_4  and  O8_8 
REMARK    3  A    between atoms: C6_6  and  C9_9 
REMARK    4  A    between atoms: C6_6  and  C12_12 
REMARK    5  A    between atoms: C9_9  and  C10_10 
REMARK    6  A    between atoms: C12_12  and  C13_13 
REMARK    7  A    between atoms: C13_13  and  C14_14 
REMARK    8  A    between atoms: C20_20  and  C21_21 
REMARK    9  A    between atoms: C20_20  and  C23_23 
REMARK   10  A    between atoms: C27_27  and  N28_28 
REMARK   11  A    between atoms: N28_28  and  S30_30 
REMARK   12  A    between atoms: S30_30  and  C33_33 
REMARK   13  A    between atoms: C36_36  and  C39_39 
ROOT
ATOM      1  C20 TPV d          10.953  19.268  18.270  0.00  0.00     0.060 C 
ENDROOT
BRANCH   1   2
ATOM      2  C3  TPV d          12.288  19.994  18.075  0.00  0.00     0.055 C 
ATOM      3  C2  TPV d          12.240  21.343  17.482  0.00  0.00     0.293 C 
ATOM      4  O1  TPV d          13.439  22.088  17.325  0.00  0.00    -0.306 OA
ATOM      5  O7  TPV d          11.228  21.917  17.100  0.00  0.00    -0.259 OA
ATOM      6  C6  TPV d          14.699  21.701  17.894  0.00  0.00     0.077 C 
ATOM      7  C5  TPV d          14.802  20.164  17.918  0.00  0.00     0.103 C 
ATOM      8  C4  TPV d          13.522  19.449  18.296  0.00  0.00     0.059 C 
BRANCH   6   9
ATOM      9  C9  TPV d          14.825  22.228  19.332  0.00  0.00     0.038 C 
BRANCH   9  10
ATOM     10  C10 TPV d          14.445  23.711  19.516  0.00  0.00    -0.002 C 
ATOM     11  C11 TPV d          14.599  24.038  21.003  0.00  0.00     0.005 C 
ENDBRANCH   9  10
ENDBRANCH   6   9
BRANCH   6  12
ATOM     12  C12 TPV d          15.795  22.333  17.018  0.00  0.00     0.043 C 
BRANCH  12  13
ATOM     13  C13 TPV d          15.639  22.037  15.517  0.00  0.00     0.041 C 
BRANCH  13  14
ATOM     14  C14 TPV d          16.767  22.717  14.750  0.00  0.00    -0.058 A 
ATOM     15  C15 TPV d          16.499  23.841  13.958  0.00  0.00     0.007 A 
ATOM     16  C16 TPV d          17.521  24.483  13.241  0.00  0.00     0.001 A 
ATOM     17  C17 TPV d          18.821  23.989  13.356  0.00  0.00     0.000 A 
ATOM     18  C18 TPV d          19.122  22.872  14.157  0.00  0.00     0.001 A 
ATOM     19  C19 TPV d          18.080  22.234  14.853  0.00  0.00     0.007 A 
ENDBRANCH  13  14
ENDBRANCH  12  13
ENDBRANCH   6  12
BRANCH   8  20
ATOM     20  O8  TPV d          13.687  18.229  18.782  0.00  0.00    -0.364 OA
ATOM     21  H3  TPV d          12.839  17.855  18.992  0.00  0.00     0.217 HD
ENDBRANCH   8  20
ENDBRANCH   1   2
BRANCH   1  22
ATOM     22  C21 TPV d          10.848  18.435  19.567  0.00  0.00     0.010 C 
ATOM     23  C22 TPV d          10.956  19.255  20.848  0.00  0.00     0.006 C 
ENDBRANCH   1  22
BRANCH   1  24
ATOM     24  C23 TPV d          10.634  18.407  17.085  0.00  0.00    -0.047 A 
ATOM     25  C24 TPV d          11.620  17.905  16.224  0.00  0.00     0.008 A 
ATOM     26  C25 TPV d          11.260  17.114  15.118  0.00  0.00     0.003 A 
ATOM     27  C26 TPV d           9.916  16.788  14.901  0.00  0.00     0.030 A 
ATOM     28  C27 TPV d           8.911  17.265  15.746  0.00  0.00     0.043 A 
ATOM     29  C29 TPV d           9.290  18.073  16.822  0.00  0.00     0.038 A 
BRANCH  28  30
ATOM     30  N28 TPV d           7.575  16.982  15.531  0.00  0.00    -0.279 N 
ATOM     31  H29 TPV d           7.023  17.620  14.994  0.00  0.00     0.179 HD
BRANCH  30  32
ATOM     32  S30 TPV d           6.881  15.648  16.124  0.00  0.00     0.280 S 
ATOM     33  O31 TPV d           7.678  14.519  15.697  0.00  0.00    -0.199 OA
ATOM     34  O32 TPV d           5.513  15.528  15.718  0.00  0.00    -0.199 OA
BRANCH  32  35
ATOM     35  C33 TPV d           6.950  15.874  17.735  0.00  0.00     0.171 A 
ATOM     36  N34 TPV d           8.050  15.461  18.417  0.00  0.00    -0.247 NA
ATOM     37  C35 TPV d           8.199  15.702  19.752  0.00  0.00     0.134 A 
ATOM     38  C36 TPV d           7.203  16.355  20.499  0.00  0.00     0.065 A 
ATOM     39  C37 TPV d           6.052  16.790  19.820  0.00  0.00     0.021 A 
ATOM     40  C38 TPV d           5.914  16.538  18.436  0.00  0.00     0.046 A 
BRANCH  38  41
ATOM     41  C39 TPV d           7.383  16.661  21.962  0.00  0.00     0.418 C 
ATOM     42  F40 TPV d           7.986  15.720  22.668  0.00  0.00    -0.166 F 
ATOM     43  F41 TPV d           6.252  17.063  22.493  0.00  0.00    -0.166 F 
ATOM     44  F42 TPV d           8.160  17.728  22.030  0.00  0.00    -0.166 F 
ENDBRANCH  38  41
ENDBRANCH  32  35
ENDBRANCH  30  32
ENDBRANCH  28  30
ENDBRANCH   1  24
TORSDOF 13
