REMARK  8 active torsions:
REMARK  status: ('A' for Active; 'I' for Inactive)
REMARK    1  A    between atoms: C3_1  and  C4_7 
REMARK    2  A    between atoms: C2_21  and  C3_1 
REMARK    3  A    between atoms: C11_4  and  N1_20 
REMARK    4  A    between atoms: S1_6  and  N2_11 
REMARK    5  A    between atoms: C7_14  and  S1_6 
REMARK    6  A    between atoms: C4_7  and  O1_22 
REMARK    7  A    between atoms: N1_20  and  C6_9 
REMARK    8  A    between atoms: N3_19  and  C2_21 
ROOT
ATOM      1  C9  BZ1 d          -0.214   3.841  85.074  0.00  0.00     0.006 A 
ATOM      2  C10 BZ1 d          -1.287   4.557  85.455  0.00  0.00     0.130 A 
ATOM      3  C11 BZ1 d           0.949   4.096  84.163  0.00  0.00     0.239 C 
ATOM      4  C12 BZ1 d           0.535   5.389  83.414  0.00  0.00     0.173 C 
ATOM      5  S2  BZ1 d          -2.323   3.737  86.475  0.00  0.00    -0.062 SA
ATOM      6  C7  BZ1 d          -1.412   2.292  86.538  0.00  0.00     0.121 A 
ATOM      7  C8  BZ1 d          -0.167   2.415  85.670  0.00  0.00     0.044 A 
ATOM      8  S3  BZ1 d          -1.512   6.168  84.907  0.00  0.00     0.268 S 
ATOM      9  O2  BZ1 d          -1.772   7.058  86.042  0.00  0.00    -0.200 OA
ATOM     10  O5  BZ1 d          -2.548   6.281  83.878  0.00  0.00    -0.200 OA
ATOM     11  N3  BZ1 d          -0.020   6.418  84.310  0.00  0.00    -0.304 N 
ENDROOT
BRANCH   6  12
ATOM     12  S1  BZ1 d          -1.947   0.964  87.510  0.00  0.00     0.263 S 
ATOM     13  O3  BZ1 d          -1.403   1.187  88.839  0.00  0.00    -0.200 OA
ATOM     14  O4  BZ1 d          -3.404   1.091  87.497  0.00  0.00    -0.200 OA
BRANCH  12  15
ATOM     15  N2  BZ1 d          -1.356  -0.386  86.872  0.00  0.00    -0.324 N 
ATOM     16  H13 BZ1 d          -0.368  -0.537  86.849  0.00  0.00     0.169 HD
ATOM     17  H14 BZ1 d          -1.976  -1.076  86.498  0.00  0.00     0.169 HD
ENDBRANCH  12  15
ENDBRANCH   6  12
BRANCH   3  18
ATOM     18  N1  BZ1 d           1.017   3.007  83.204  0.00  0.00    -0.066 N 
ATOM     19  H16 BZ1 d           0.160   2.993  82.673  0.00  0.00     0.278 HD
ATOM     20  H17 BZ1 d           1.114   2.140  83.709  0.00  0.00     0.278 HD
BRANCH  18  21
ATOM     21  C6  BZ1 d           2.117   3.130  82.292  0.00  0.00     0.228 C 
ATOM     22  C5  BZ1 d           2.347   1.988  81.353  0.00  0.00     0.034 C 
ENDBRANCH  18  21
ENDBRANCH   3  18
BRANCH  11  23
ATOM     23  C2  BZ1 d           1.161   6.993  84.881  0.00  0.00     0.137 C 
BRANCH  23  24
ATOM     24  C3  BZ1 d           1.640   8.300  84.346  0.00  0.00     0.047 C 
BRANCH  24  25
ATOM     25  C4  BZ1 d           0.724   9.468  84.492  0.00  0.00     0.168 C 
BRANCH  25  26
ATOM     26  O1  BZ1 d           1.268  10.717  84.682  0.00  0.00    -0.396 OA
ATOM     27  C1  BZ1 d           0.664  11.823  84.120  0.00  0.00     0.201 C 
ENDBRANCH  25  26
ENDBRANCH  24  25
ENDBRANCH  23  24
ENDBRANCH  11  23
TORSDOF 8
