REMARK  6 active torsions:
REMARK  status: ('A' for Active; 'I' for Inactive)
REMARK    1  A    between atoms: C6_6  and  S9_9 
REMARK    2  A    between atoms: S9_9  and  C10_10 
REMARK    3  A    between atoms: C10_10  and  C11_11 
REMARK    4  A    between atoms: C11_11  and  C13_13 
REMARK    5  A    between atoms: C16_16  and  S19_19 
REMARK    6  A    between atoms: S19_19  and  N22_22 
ROOT
ATOM      1  C11 E59 d          -4.138   5.383  13.365  0.00  0.00     0.169 C 
ATOM      2  O12 E59 d          -4.812   6.392  13.113  0.00  0.00    -0.291 OA
ENDROOT
BRANCH   1   3
ATOM      3  C10 E59 d          -2.778   5.119  12.824  0.00  0.00     0.166 C 
BRANCH   3   4
ATOM      4  S9  E59 d          -1.455   5.543  13.941  0.00  0.00    -0.084 SA
BRANCH   4   5
ATOM      5  C6  E59 d          -1.452   7.304  13.657  0.00  0.00     0.169 A 
ATOM      6  N1  E59 d          -1.989   7.779  12.539  0.00  0.00    -0.302 N 
ATOM      7  C2  E59 d          -2.006   9.079  12.285  0.00  0.00     0.249 A 
ATOM      8  H1  E59 d          -2.388   7.144  11.877  0.00  0.00     0.171 HD
ATOM      9  C3  E59 d          -1.459   9.961  13.208  0.00  0.00     0.101 A 
ATOM     10  O7  E59 d          -2.513   9.488  11.238  0.00  0.00    -0.268 OA
ATOM     11  C4  E59 d          -0.908   9.431  14.364  0.00  0.00     0.038 A 
ATOM     12  N5  E59 d          -0.919   8.121  14.558  0.00  0.00    -0.229 NA
ATOM     13  C8  E59 d          -0.295  10.321  15.400  0.00  0.00     0.070 C 
ENDBRANCH   4   5
ENDBRANCH   3   4
ENDBRANCH   1   3
BRANCH   1  14
ATOM     14  C13 E59 d          -4.613   4.313  14.231  0.00  0.00     0.011 A 
ATOM     15  C14 E59 d          -5.904   4.295  14.723  0.00  0.00     0.017 A 
ATOM     16  C15 E59 d          -6.301   3.241  15.532  0.00  0.00     0.026 A 
ATOM     17  C16 E59 d          -5.407   2.224  15.838  0.00  0.00     0.079 A 
ATOM     18  C17 E59 d          -4.115   2.236  15.341  0.00  0.00     0.026 A 
ATOM     19  C18 E59 d          -3.718   3.290  14.534  0.00  0.00     0.017 A 
BRANCH  17  20
ATOM     20  S19 E59 d          -5.924   0.888  16.854  0.00  0.00     0.256 S 
ATOM     21  O20 E59 d          -7.438   0.878  16.825  0.00  0.00    -0.201 OA
ATOM     22  O21 E59 d          -5.388   1.058  18.258  0.00  0.00    -0.201 OA
BRANCH  20  23
ATOM     23  N22 E59 d          -5.331  -0.577  16.139  0.00  0.00    -0.324 N 
ATOM     24  H12 E59 d          -5.522  -1.458  16.572  0.00  0.00     0.169 HD
ATOM     25  H13 E59 d          -4.798  -0.541  15.293  0.00  0.00     0.169 HD
ENDBRANCH  20  23
ENDBRANCH  17  20
ENDBRANCH   1  14
TORSDOF 6
