3s8x_ligand

Created by X-TOOL on Fri Sep 26 17:34:53 2014
 35 36  0  0  0  0  0  0  0  0999 V2000
   -1.9890    7.7790   12.5390  N 0  0  0  2  0  3
   -2.0060    9.0790   12.2850  C 0  0  0  1  0  3
   -1.4590    9.9610   13.2080  C 0  0  0  2  0  3
   -0.9080    9.4310   14.3640  C 0  0  0  1  0  3
   -0.9190    8.1210   14.5580  N 0  0  0  1  0  2
   -1.4520    7.3040   13.6570  C 0  0  0  1  0  3
   -2.5130    9.4880   11.2380  O 0  0  0  1  0  1
   -0.2950   10.3210   15.4000  C 0  0  0  4  0  4
   -1.4550    5.5430   13.9410  S 0  0  0  1  0  2
   -2.7780    5.1190   12.8240  C 0  0  0  3  0  4
   -4.1380    5.3830   13.3650  C 0  0  0  1  0  3
   -4.8120    6.3920   13.1130  O 0  0  0  1  0  1
   -4.6130    4.3130   14.2310  C 0  0  0  1  0  3
   -5.9040    4.2950   14.7230  C 0  0  0  2  0  3
   -6.3010    3.2410   15.5320  C 0  0  0  2  0  3
   -5.4070    2.2240   15.8380  C 0  0  0  1  0  3
   -4.1150    2.2360   15.3410  C 0  0  0  2  0  3
   -3.7180    3.2900   14.5340  C 0  0  0  2  0  3
   -5.9240    0.8880   16.8540  S 0  0  0  1  0  4
   -7.4380    0.8780   16.8250  O 0  0  0  1  0  1
   -5.3880    1.0580   18.2580  O 0  0  0  1  0  1
   -5.3310   -0.5770   16.1390  N 0  0  0  3  0  3
   -2.3876    7.1440   11.8772  H 0  0  0  1  0  1
   -1.4629   11.0352   13.0290  H 0  0  0  1  0  1
    0.0818    9.7089   16.2327  H 0  0  0  1  0  1
   -1.0537   11.0235   15.7754  H 0  0  0  1  0  1
    0.5374   10.8845   14.9533  H 0  0  0  1  0  1
   -2.7018    4.0470   12.5894  H 0  0  0  1  0  1
   -2.6531    5.7059   11.9021  H 0  0  0  1  0  1
   -6.5963    5.0930   14.4802  H 0  0  0  1  0  1
   -7.3105    3.2112   15.9259  H 0  0  0  1  0  1
   -3.4255    1.4342   15.5792  H 0  0  0  1  0  1
   -2.7093    3.3183   14.1379  H 0  0  0  1  0  1
   -5.5219   -1.4578   16.5723  H 0  0  0  1  0  1
   -4.7983   -0.5407   15.2935  H 0  0  0  1  0  1
  1  2  1  0  0  1
  1  6  1  0  0  1
  2  3  1  0  0  1
  2  7  2  0  0  2
  3  4  2  0  0  1
  4  5  1  0  0  1
  4  8  1  0  0  2
  5  6  2  0  0  1
  6  9  1  0  0  2
  9 10  1  0  0  2
 10 11  1  0  0  2
 11 12  2  0  0  2
 11 13  1  0  0  2
 13 14  4  0  0  1
 13 18  4  0  0  1
 14 15  4  0  0  1
 15 16  4  0  0  1
 16 17  4  0  0  1
 16 19  1  0  0  2
 17 18  4  0  0  1
 19 20  2  0  0  2
 19 21  2  0  0  2
 19 22  1  0  0  2
  1 23  1  0  0  2
  3 24  1  0  0  2
  8 25  1  0  0  2
  8 26  1  0  0  2
  8 27  1  0  0  2
 10 28  1  0  0  2
 10 29  1  0  0  2
 14 30  1  0  0  2
 15 31  1  0  0  2
 17 32  1  0  0  2
 18 33  1  0  0  2
 22 34  1  0  0  2
 22 35  1  0  0  2
M  END
> <MOLECULAR_FORMULA>
C13H13N3O4S2

> <MOLECULAR_WEIGHT>
339.3

> <NUM_HB_ATOMS>
8  

> <NUM_ROTOR>
4  

> <XLOGP2>
0.34 

$$$$
