REMARK  9 active torsions:
REMARK  status: ('A' for Active; 'I' for Inactive)
REMARK    1  A    between atoms: CAK_11  and  OAD_4 
REMARK    2  A    between atoms: CAW_23  and  OAE_5 
REMARK    3  A    between atoms: CAL_12  and  CAK_11 
REMARK    4  A    between atoms: CAM_13  and  CAL_12 
REMARK    5  A    between atoms: CAN_14  and  NAP_16 
REMARK    6  A    between atoms: CAY_25  and  CAN_14 
REMARK    7  A    between atoms: CAO_15  and  OAS_19 
REMARK    8  A    between atoms: CAV_22  and  CAO_15 
REMARK    9  A    between atoms: OAS_19  and  PBA_27 
ROOT
ATOM      1  CAA PL8 d          22.748 -11.574 -28.081  0.00  0.00     0.073 C 
ATOM      2  CAJ PL8 d          24.898  -8.611 -28.121  0.00  0.00     0.127 A 
ATOM      3  NAR PL8 d          24.467  -9.945 -28.049  0.00  0.00    -0.262 NA
ATOM      4  CAT PL8 d          23.166 -10.245 -28.156  0.00  0.00     0.064 A 
ATOM      5  CAV PL8 d          23.975  -7.589 -28.300  0.00  0.00    -0.006 A 
ATOM      6  CAW PL8 d          22.244  -9.223 -28.343  0.00  0.00     0.098 A 
ATOM      7  CAY PL8 d          22.631  -7.886 -28.421  0.00  0.00     0.007 A 
ENDROOT
BRANCH   7   8
ATOM      8  CAN PL8 d          21.792  -6.787 -28.613  0.00  0.00     0.191 C 
BRANCH   8   9
ATOM      9  NAP PL8 d          20.358  -7.072 -28.720  0.00  0.00    -0.280 NA
ATOM     10  CAX PL8 d          19.575  -6.144 -29.267  0.00  0.00     0.121 A 
ATOM     11  CAI PL8 d          20.106  -4.940 -29.719  0.00  0.00     0.039 A 
ATOM     12  CAZ PL8 d          18.209  -6.395 -29.319  0.00  0.00     0.295 A 
ATOM     13  CAH PL8 d          19.275  -3.974 -30.274  0.00  0.00     0.029 A 
ATOM     14  CAU PL8 d          17.905  -4.208 -30.344  0.00  0.00     0.038 A 
ATOM     15  CAM PL8 d          17.060  -3.254 -30.902  0.00  0.00     0.061 C 
ATOM     16  NAQ PL8 d          17.369  -5.418 -29.872  0.00  0.00    -0.213 NA
ATOM     17  OAB PL8 d          17.739  -7.454 -28.902  0.00  0.00    -0.264 OA
BRANCH  15  18
ATOM     18  CAL PL8 d          16.462  -2.366 -29.815  0.00  0.00     0.032 C 
BRANCH  18  19
ATOM     19  CAK PL8 d          15.518  -1.343 -30.460  0.00  0.00     0.164 C 
BRANCH  19  20
ATOM     20  OAD PL8 d          14.947  -0.517 -29.434  0.00  0.00    -0.401 OA
ATOM     21  H4  PL8 d          14.362   0.118 -29.830  0.00  0.00     0.209 HD
ENDBRANCH  19  20
ENDBRANCH  18  19
ENDBRANCH  15  18
ENDBRANCH   8   9
ENDBRANCH   7   8
BRANCH   5  22
ATOM     22  CAO PL8 d          24.365  -6.253 -28.395  0.00  0.00     0.223 C 
BRANCH  22  23
ATOM     23  OAS PL8 d          24.397  -5.612 -27.114  0.00  0.00    -0.278 OA
BRANCH  23  24
ATOM     24  PBA PL8 d          24.018  -4.033 -27.027  0.00  0.00     0.422 P 
ATOM     25  OAC PL8 d          22.825  -3.701 -28.044  0.00  0.00    -0.617 OA
ATOM     26  OAF PL8 d          25.319  -3.246 -27.544  0.00  0.00    -0.617 OA
ATOM     27  OAG PL8 d          23.674  -3.621 -25.637  0.00  0.00    -0.617 OA
ENDBRANCH  23  24
ENDBRANCH  22  23
ENDBRANCH   5  22
BRANCH   6  28
ATOM     28  OAE PL8 d          20.932  -9.562 -28.448  0.00  0.00    -0.358 OA
ATOM     29  H5  PL8 d          20.412  -8.777 -28.572  0.00  0.00     0.217 HD
ENDBRANCH   6  28
TORSDOF 9
