REMARK  6 active torsions:
REMARK  status: ('A' for Active; 'I' for Inactive)
REMARK    1  A    between atoms: C3_3  and  O3_4 
REMARK    2  A    between atoms: C4_5  and  O4_6 
REMARK    3  A    between atoms: O4_6  and  C1B_9 
REMARK    4  A    between atoms: C2B_10  and  O2B_14 
REMARK    5  A    between atoms: C3B_11  and  O3B_15 
REMARK    6  A    between atoms: C4B_12  and  O4B_16 
ROOT
ATOM      1  C1B XIF d           6.864  14.098  15.696  0.00  0.00     0.291 C 
ATOM      2  C2B XIF d           6.517  12.660  15.977  0.00  0.00     0.204 C 
ATOM      3  C3B XIF d           5.014  12.438  15.890  0.00  0.00     0.182 C 
ATOM      4  C4B XIF d           4.241  13.502  16.661  0.00  0.00     0.173 C 
ATOM      5  C5B XIF d           4.760  14.880  16.314  0.00  0.00     0.205 C 
ATOM      6  O5B XIF d           6.140  14.938  16.567  0.00  0.00    -0.356 OA
ENDROOT
BRANCH   1   7
ATOM      7  O4  XIF d           8.227  14.277  15.965  0.00  0.00    -0.351 OA
BRANCH   7   8
ATOM      8  C4  XIF d           8.716  15.576  15.560  0.00  0.00     0.156 C 
ATOM      9  C3  XIF d           9.942  15.897  16.365  0.00  0.00     0.172 C 
ATOM     10  C2  XIF d          10.445  17.294  16.017  0.00  0.00     0.266 C 
ATOM     11  N1  XIF d          10.708  17.419  14.575  0.00  0.00    -0.073 N 
ATOM     12  C6  XIF d           9.547  17.015  13.738  0.00  0.00     0.235 C 
ATOM     13  H1  XIF d          11.494  16.833  14.339  0.00  0.00     0.277 HD
ATOM     14  H2  XIF d          10.932  18.380  14.371  0.00  0.00     0.277 HD
ATOM     15  C5  XIF d           9.107  15.614  14.080  0.00  0.00     0.062 C 
BRANCH   9  16
ATOM     16  O3  XIF d           9.628  15.844  17.749  0.00  0.00    -0.391 OA
ATOM     17  H6  XIF d           9.314  14.975  17.968  0.00  0.00     0.210 HD
ENDBRANCH   9  16
ENDBRANCH   7   8
ENDBRANCH   1   7
BRANCH   2  18
ATOM     18  O2B XIF d           7.204  11.845  15.040  0.00  0.00    -0.388 OA
ATOM     19  H18 XIF d           8.139  12.000  15.112  0.00  0.00     0.210 HD
ENDBRANCH   2  18
BRANCH   3  20
ATOM     20  O3B XIF d           4.711  11.142  16.381  0.00  0.00    -0.390 OA
ATOM     21  H19 XIF d           5.202  10.495  15.888  0.00  0.00     0.210 HD
ENDBRANCH   3  20
BRANCH   4  22
ATOM     22  O4B XIF d           2.857  13.393  16.360  0.00  0.00    -0.391 OA
ATOM     23  H20 XIF d           2.553  12.522  16.585  0.00  0.00     0.210 HD
ENDBRANCH   4  22
TORSDOF 6
