REMARK  7 active torsions:
REMARK  status: ('A' for Active; 'I' for Inactive)
REMARK    1  A    between atoms: O4_21  and  C1_1 
REMARK    2  A    between atoms: C2_2  and  O2_6 
REMARK    3  A    between atoms: C3_3  and  O3_7 
REMARK    4  A    between atoms: C4_4  and  O4_8 
REMARK    5  A    between atoms: C2_11  and  O2_19 
REMARK    6  A    between atoms: C3_12  and  O3_20 
REMARK    7  A    between atoms: O4_21  and  C4_13 
ROOT
ATOM      1  C1  XYS d         -64.977  19.679  53.893  0.00  0.00     0.137 A 
ATOM      2  C2  XYS d         -65.795  19.730  55.236  0.00  0.00     0.219 C 
ATOM      3  C3  XYS d         -64.827  19.536  56.428  0.00  0.00     0.185 C 
ATOM      4  C4  XYS d         -63.719  18.524  56.095  0.00  0.00     0.174 C 
ATOM      5  C5  XYS d         -62.779  19.051  54.993  0.00  0.00     0.164 C 
ATOM      6  N1  XYS d         -63.624  19.365  53.880  0.00  0.00    -0.339 N 
ATOM      7  C17 XYS d         -63.329  19.426  52.539  0.00  0.00     0.112 A 
ATOM      8  C18 XYS d         -64.429  19.752  51.826  0.00  0.00     0.136 A 
ATOM      9  N21 XYS d         -65.462  19.912  52.661  0.00  0.00    -0.243 NA
ENDROOT
BRANCH   4  10
ATOM     10  O4  XYS d         -62.937  18.288  57.248  0.00  0.00    -0.349 OA
BRANCH  10  11
ATOM     11  C1  XYS d         -62.340  16.976  57.164  0.00  0.00     0.291 C 
ATOM     12  O5  XYS d         -63.376  15.988  57.257  0.00  0.00    -0.356 OA
ATOM     13  C5  XYS d         -62.866  14.649  57.097  0.00  0.00     0.205 C 
ATOM     14  C4  XYS d         -61.905  14.328  58.245  0.00  0.00     0.173 C 
ATOM     15  C3  XYS d         -60.770  15.361  58.297  0.00  0.00     0.182 C 
ATOM     16  C2  XYS d         -61.324  16.796  58.288  0.00  0.00     0.204 C 
BRANCH  14  17
ATOM     17  O4  XYS d         -61.373  13.020  58.077  0.00  0.00    -0.391 OA
ATOM     18  H9  XYS d         -60.800  12.816  58.807  0.00  0.00     0.210 HD
ENDBRANCH  14  17
BRANCH  15  19
ATOM     19  O3  XYS d         -60.017  15.162  59.483  0.00  0.00    -0.390 OA
ATOM     20  H8  XYS d         -59.673  14.277  59.493  0.00  0.00     0.210 HD
ENDBRANCH  15  19
BRANCH  16  21
ATOM     21  O2  XYS d         -60.262  17.720  58.098  0.00  0.00    -0.388 OA
ATOM     22  H7  XYS d         -60.607  18.605  58.114  0.00  0.00     0.210 HD
ENDBRANCH  16  21
ENDBRANCH  10  11
ENDBRANCH   4  10
BRANCH   3  23
ATOM     23  O3  XYS d         -65.556  19.087  57.552  0.00  0.00    -0.390 OA
ATOM     24  H18 XYS d         -64.964  18.967  58.285  0.00  0.00     0.210 HD
ENDBRANCH   3  23
BRANCH   2  25
ATOM     25  O2  XYS d         -66.553  20.904  55.446  0.00  0.00    -0.385 OA
ATOM     26  H17 XYS d         -67.008  20.841  56.277  0.00  0.00     0.210 HD
ENDBRANCH   2  25
TORSDOF 7
