REMARK  11 active torsions:
REMARK  status: ('A' for Active; 'I' for Inactive)
REMARK    1  A    between atoms: N_1  and  CA_2 
REMARK    2  A    between atoms: CA_2  and  CB_3 
REMARK    3  A    between atoms: CA_2  and  C_6 
REMARK    4  A    between atoms: CB_3  and  CG_4 
REMARK    5  A    between atoms: CG_4  and  SD_5 
REMARK    6  A    between atoms: SD_5  and  C5'_9 
REMARK    7  A    between atoms: C5'_9  and  C4'_10 
REMARK    8  A    between atoms: C3'_12  and  O3'_13 
REMARK    9  A    between atoms: C2'_14  and  O2'_15 
REMARK   10  A    between atoms: C1'_16  and  N9_17 
REMARK   11  A    between atoms: C6_21  and  N6_22 
ROOT
ATOM      1  C4' SAH d          14.419 -48.251   5.261  0.00  0.00     0.165 C 
ATOM      2  O4' SAH d          15.173 -47.875   6.433  0.00  0.00    -0.355 OA
ATOM      3  C3' SAH d          12.950 -48.105   5.699  0.00  0.00     0.180 C 
ATOM      4  C2' SAH d          13.022 -48.330   7.232  0.00  0.00     0.198 C 
ATOM      5  C1' SAH d          14.537 -48.489   7.543  0.00  0.00     0.262 C 
ENDROOT
BRANCH   1   6
ATOM      6  C5' SAH d          14.766 -47.307   4.141  0.00  0.00     0.108 C 
BRANCH   6   7
ATOM      7  SD  SAH d          14.558 -45.519   4.434  0.00  0.00    -0.166 SA
BRANCH   7   8
ATOM      8  CG  SAH d          16.290 -45.038   4.919  0.00  0.00     0.076 C 
BRANCH   8   9
ATOM      9  CB  SAH d          16.279 -43.640   5.535  0.00  0.00     0.054 C 
BRANCH   9  10
ATOM     10  CA  SAH d          17.673 -43.164   6.060  0.00  0.00     0.284 C 
BRANCH  10  11
ATOM     11  N   SAH d          17.503 -42.096   7.068  0.00  0.00    -0.065 N 
ATOM     12  H1  SAH d          16.959 -42.447   7.841  0.00  0.00     0.275 HD
ATOM     13  H2  SAH d          17.027 -41.312   6.650  0.00  0.00     0.275 HD
ATOM     14  H3  SAH d          18.408 -41.801   7.401  0.00  0.00     0.275 HD
ENDBRANCH  10  11
BRANCH  10  15
ATOM     15  C   SAH d          18.489 -42.676   4.877  0.00  0.00     0.204 C 
ATOM     16  O   SAH d          18.571 -41.445   4.654  0.00  0.00    -0.646 OA
ATOM     17  OXT SAH d          19.041 -43.562   4.193  0.00  0.00    -0.646 OA
ENDBRANCH  10  15
ENDBRANCH   9  10
ENDBRANCH   8   9
ENDBRANCH   7   8
ENDBRANCH   6   7
ENDBRANCH   1   6
BRANCH   3  18
ATOM     18  O3' SAH d          12.132 -49.051   5.020  0.00  0.00    -0.390 OA
ATOM     19  H13 SAH d          12.430 -49.930   5.224  0.00  0.00     0.210 HD
ENDBRANCH   3  18
BRANCH   5  20
ATOM     20  N9  SAH d          14.858 -47.620   8.712  0.00  0.00    -0.294 N 
ATOM     21  C8  SAH d          14.821 -46.261   8.753  0.00  0.00     0.214 A 
ATOM     22  N7  SAH d          15.172 -45.833   9.988  0.00  0.00    -0.236 NA
ATOM     23  C5  SAH d          15.450 -46.932  10.712  0.00  0.00     0.149 A 
ATOM     24  C6  SAH d          15.861 -47.098  12.041  0.00  0.00     0.155 A 
ATOM     25  C4  SAH d          15.281 -48.054   9.894  0.00  0.00     0.167 A 
ATOM     26  N1  SAH d          16.082 -48.350  12.482  0.00  0.00    -0.222 NA
ATOM     27  C2  SAH d          15.906 -49.419  11.679  0.00  0.00     0.237 A 
ATOM     28  N3  SAH d          15.538 -49.308  10.386  0.00  0.00    -0.222 NA
BRANCH  24  29
ATOM     29  N6  SAH d          16.019 -46.027  12.876  0.00  0.00    -0.382 N 
ATOM     30  H18 SAH d          16.322 -46.173  13.850  0.00  0.00     0.157 HD
ATOM     31  H19 SAH d          15.835 -45.074  12.532  0.00  0.00     0.157 HD
ENDBRANCH  24  29
ENDBRANCH   5  20
BRANCH   4  32
ATOM     32  O2' SAH d          12.276 -49.502   7.592  0.00  0.00    -0.388 OA
ATOM     33  H15 SAH d          11.368 -49.390   7.334  0.00  0.00     0.210 HD
ENDBRANCH   4  32
TORSDOF 11
