REMARK  5 active torsions:
REMARK  status: ('A' for Active; 'I' for Inactive)
REMARK    1  A    between atoms: C7_7  and  C1_1 
REMARK    2  A    between atoms: C4_4  and  N3_10 
REMARK    3  A    between atoms: C7_7  and  N1_8 
REMARK       I    between atoms: N3_10  and  C8_11 
REMARK    4  A    between atoms: C8_11  and  C9_13 
REMARK    5  A    between atoms: C14_18  and  O14_19 
ROOT
ATOM      1  C1  MOL d           8.609   0.527  25.373  0.00  0.00     0.007 A 
ATOM      2  C2  MOL d           9.440   0.678  24.251  0.00  0.00     0.017 A 
ATOM      3  C3  MOL d           9.888   1.915  23.839  0.00  0.00     0.030 A 
ATOM      4  C4  MOL d           9.505   3.028  24.550  0.00  0.00     0.035 A 
ATOM      5  C5  MOL d           8.690   2.955  25.656  0.00  0.00     0.030 A 
ATOM      6  C6  MOL d           8.241   1.703  26.061  0.00  0.00     0.017 A 
ENDROOT
BRANCH   4   7
ATOM      7  N3  MOL d          10.024   4.144  24.094  0.00  0.00    -0.323 N 
ATOM      8  C8  MOL d           9.592   5.367  24.310  0.00  0.00     0.259 C 
ATOM      9  O8  MOL d           8.610   5.668  24.977  0.00  0.00    -0.267 OA
ATOM     10  H9  MOL d          10.837   4.054  23.519  0.00  0.00     0.169 HD
BRANCH   8  11
ATOM     11  C9  MOL d          10.399   6.342  23.650  0.00  0.00     0.065 A 
ATOM     12  C14 MOL d          11.674   6.107  23.023  0.00  0.00     0.081 A 
ATOM     13  C13 MOL d          12.351   7.146  22.384  0.00  0.00     0.037 A 
ATOM     14  C12 MOL d          11.834   8.429  22.375  0.00  0.00     0.003 A 
ATOM     15  C11 MOL d          10.610   8.675  22.970  0.00  0.00     0.001 A 
ATOM     16  C10 MOL d           9.921   7.663  23.615  0.00  0.00     0.020 A 
BRANCH  12  17
ATOM     17  O14 MOL d          12.330   4.883  22.966  0.00  0.00    -0.360 OA
ATOM     18  H14 MOL d          11.814   4.227  23.419  0.00  0.00     0.217 HD
ENDBRANCH  12  17
ENDBRANCH   8  11
ENDBRANCH   4   7
BRANCH   1  19
ATOM     19  C7  MOL d           8.168  -0.736  25.788  0.00  0.00     0.102 C 
ATOM     20  N2  MOL d           8.410  -1.790  25.059  0.00  0.00    -0.385 N 
ATOM     21  H7  MOL d           8.924  -1.695  24.172  0.00  0.00     0.157 HD
ATOM     22  H8  MOL d           8.087  -2.717  25.371  0.00  0.00     0.157 HD
BRANCH  19  23
ATOM     23  N1  MOL d           7.516  -0.847  26.916  0.00  0.00    -0.385 N 
ATOM     24  H5  MOL d           7.187  -1.770  27.232  0.00  0.00     0.157 HD
ATOM     25  H6  MOL d           7.332  -0.011  27.489  0.00  0.00     0.157 HD
ENDBRANCH  19  23
ENDBRANCH   1  19
TORSDOF 5
