REMARK  4 active torsions:
REMARK  status: ('A' for Active; 'I' for Inactive)
REMARK    1  A    between atoms: C03_3  and  S11_11 
REMARK    2  A    between atoms: C06_6  and  C07_7 
REMARK       I    between atoms: C07_7  and  N09_9 
REMARK    3  A    between atoms: N09_9  and  C10_10 
REMARK    4  A    between atoms: S11_11  and  NP2_12 
ROOT
ATOM      1  C01 INV d          -3.788   2.957  14.913  0.00  0.00     0.018 A 
ATOM      2  C02 INV d          -4.225   1.845  15.621  0.00  0.00     0.026 A 
ATOM      3  C03 INV d          -5.613   1.756  16.018  0.00  0.00     0.079 A 
ATOM      4  C04 INV d          -6.477   2.804  15.680  0.00  0.00     0.026 A 
ATOM      5  C05 INV d          -5.999   3.912  14.968  0.00  0.00     0.018 A 
ATOM      6  C06 INV d          -4.660   4.001  14.577  0.00  0.00     0.032 A 
ENDROOT
BRANCH   6   7
ATOM      7  C07 INV d          -4.100   5.198  13.786  0.00  0.00     0.251 C 
ATOM      8  O08 INV d          -4.914   6.118  13.501  0.00  0.00    -0.268 OA
ATOM      9  N09 INV d          -2.712   5.296  13.369  0.00  0.00    -0.353 N 
ATOM     10  H5  INV d          -2.085   4.522  13.457  0.00  0.00     0.163 HD
BRANCH   9  11
ATOM     11  C10 INV d          -2.278   6.559  12.822  0.00  0.00     0.161 C 
ATOM     12  C15 INV d          -1.564   7.461  13.609  0.00  0.00    -0.040 A 
ATOM     13  C16 INV d          -2.064   7.755  14.939  0.00  0.00     0.012 A 
ATOM     14  C20 INV d          -0.336   8.095  13.089  0.00  0.00     0.012 A 
ATOM     15  C17 INV d          -1.329   8.703  15.759  0.00  0.00     0.043 A 
ATOM     16  C18 INV d          -0.109   9.343  15.253  0.00  0.00     0.116 A 
ATOM     17  C19 INV d           0.378   9.030  13.921  0.00  0.00     0.043 A 
ATOM     18  F21 INV d           0.574  10.235  16.039  0.00  0.00    -0.206 F 
ENDBRANCH   9  11
ENDBRANCH   6   7
BRANCH   3  19
ATOM     19  S11 INV d          -6.083   0.274  16.931  0.00  0.00     0.256 S 
ATOM     20  O13 INV d          -7.513   0.488  17.122  0.00  0.00    -0.201 OA
ATOM     21  O14 INV d          -5.378   0.555  18.212  0.00  0.00    -0.201 OA
BRANCH  19  22
ATOM     22  NP2 INV d          -5.621  -1.168  16.160  0.00  0.00    -0.324 N 
ATOM     23  H8  INV d          -5.833  -2.050  16.581  0.00  0.00     0.169 HD
ATOM     24  H9  INV d          -5.137  -1.135  15.285  0.00  0.00     0.169 HD
ENDBRANCH  19  22
ENDBRANCH   3  19
TORSDOF 4
