REMARK  4 active torsions:
REMARK  status: ('A' for Active; 'I' for Inactive)
REMARK    1  A    between atoms: C1_1  and  O1_6 
REMARK    2  A    between atoms: C2_2  and  O2_7 
REMARK    3  A    between atoms: C3_3  and  O3_8 
REMARK    4  A    between atoms: C4_4  and  O4_9 
ROOT
ATOM      1  C1  RIP d          50.123  34.014  43.280  0.00  0.00     0.288 C 
ATOM      2  C2  RIP d          49.407  33.466  44.517  0.00  0.00     0.204 C 
ATOM      3  C3  RIP d          49.013  34.599  45.431  0.00  0.00     0.182 C 
ATOM      4  C4  RIP d          50.229  35.474  45.760  0.00  0.00     0.173 C 
ATOM      5  C5  RIP d          50.929  35.919  44.486  0.00  0.00     0.205 C 
ATOM      6  O5  RIP d          51.251  34.794  43.666  0.00  0.00    -0.356 OA
ENDROOT
BRANCH   1   7
ATOM      7  O1  RIP d          50.547  32.969  42.436  0.00  0.00    -0.369 OA
ATOM      8  H7  RIP d          50.961  33.336  41.663  0.00  0.00     0.212 HD
ENDBRANCH   1   7
BRANCH   2   9
ATOM      9  O2  RIP d          48.246  32.768  44.146  0.00  0.00    -0.388 OA
ATOM     10  H8  RIP d          47.659  33.355  43.684  0.00  0.00     0.210 HD
ENDBRANCH   2   9
BRANCH   3  11
ATOM     11  O3  RIP d          48.023  35.357  44.777  0.00  0.00    -0.390 OA
ATOM     12  H9  RIP d          47.272  34.805  44.594  0.00  0.00     0.210 HD
ENDBRANCH   3  11
BRANCH   4  13
ATOM     13  O4  RIP d          49.841  36.615  46.486  0.00  0.00    -0.391 OA
ATOM     14  H10 RIP d          49.227  37.124  45.970  0.00  0.00     0.210 HD
ENDBRANCH   4  13
TORSDOF 4
