REMARK  7 active torsions:
REMARK  status: ('A' for Active; 'I' for Inactive)
REMARK    1  A    between atoms: N_1  and  CA_2 
REMARK    2  A    between atoms: CA_2  and  C_3 
REMARK    3  A    between atoms: CA_2  and  CB_5 
REMARK       I    between atoms: C_3  and  N_8 
REMARK    4  A    between atoms: N_8  and  CA_9 
REMARK    5  A    between atoms: CA_9  and  C_10 
REMARK    6  A    between atoms: CA_9  and  CB_12 
REMARK    7  A    between atoms: CB_12  and  OG1_13 
ROOT
ATOM      1  C   VAL d          13.095   6.301 -10.241  0.00  0.00     0.249 C 
ATOM      2  O   VAL d          13.386   7.103  -9.359  0.00  0.00    -0.271 OA
ATOM      3  N   VAL d          12.061   5.470 -10.144  0.00  0.00    -0.343 N 
ATOM      4  H12 VAL d          11.824   4.894 -10.926  0.00  0.00     0.163 HD
ENDROOT
BRANCH   1   5
ATOM      5  CA  VAL d          13.926   6.185 -11.511  0.00  0.00     0.278 C 
BRANCH   5   6
ATOM      6  N   VAL d          14.849   7.307 -11.652  0.00  0.00    -0.066 N 
ATOM      7  H1  VAL d          14.326   8.167 -11.710  0.00  0.00     0.275 HD
ATOM      8  H2  VAL d          15.396   7.189 -12.491  0.00  0.00     0.275 HD
ATOM      9  H3  VAL d          15.462   7.340 -10.853  0.00  0.00     0.275 HD
ENDBRANCH   5   6
BRANCH   5  10
ATOM     10  CB  VAL d          14.678   4.848 -11.418  0.00  0.00     0.017 C 
ATOM     11  CG1 VAL d          15.453   4.553 -12.699  0.00  0.00     0.012 C 
ATOM     12  CG2 VAL d          15.611   4.858 -10.212  0.00  0.00     0.012 C 
ENDBRANCH   5  10
ENDBRANCH   1   5
BRANCH   3  13
ATOM     13  CA  VAL d          11.265   5.378  -8.927  0.00  0.00     0.214 C 
BRANCH  13  14
ATOM     14  C   VAL d          11.817   4.267  -8.033  0.00  0.00     0.199 C 
ATOM     15  O   VAL d          11.455   4.124  -6.852  0.00  0.00    -0.646 OA
ATOM     16  OXT VAL d          12.640   3.470  -8.494  0.00  0.00    -0.646 OA
ENDBRANCH  13  14
BRANCH  13  17
ATOM     17  CB  VAL d           9.792   5.079  -9.249  0.00  0.00     0.147 C 
ATOM     18  CG2 VAL d           9.141   6.274  -9.948  0.00  0.00     0.042 C 
BRANCH  17  19
ATOM     19  OG1 VAL d           9.724   3.940 -10.112  0.00  0.00    -0.393 OA
ATOM     20  H15 VAL d           8.815   3.751 -10.314  0.00  0.00     0.210 HD
ENDBRANCH  17  19
ENDBRANCH  13  17
ENDBRANCH   3  13
TORSDOF 7
