REMARK  11 active torsions:
REMARK  status: ('A' for Active; 'I' for Inactive)
REMARK    1  A    between atoms: C2_1  and  C3_3 
REMARK    2  A    between atoms: C4_4  and  C2_1 
REMARK    3  A    between atoms: C2_1  and  N_19 
REMARK    4  A    between atoms: C5_2  and  C4_4 
REMARK    5  A    between atoms: P6_16  and  C5_2 
REMARK    6  A    between atoms: CA_12  and  C1_5 
REMARK    7  A    between atoms: C1_5  and  P6_16 
REMARK    8  A    between atoms: CG_10  and  CD_8 
REMARK    9  A    between atoms: CB_11  and  CG_10 
REMARK   10  A    between atoms: CB_11  and  CA_12 
REMARK   11  A    between atoms: CA_12  and  C_13 
ROOT
ATOM      1  P6  BIX d          19.895  44.749  19.005  0.00  0.00     0.107 P 
ATOM      2  O61 BIX d          20.568  43.833  19.982  0.00  0.00    -0.667 OA
ATOM      3  O6  BIX d          19.241  45.878  19.666  0.00  0.00    -0.667 OA
ENDROOT
BRANCH   1   4
ATOM      4  C5  BIX d          21.093  45.289  17.779  0.00  0.00     0.106 C 
BRANCH   4   5
ATOM      5  C4  BIX d          21.576  44.204  16.794  0.00  0.00     0.054 C 
BRANCH   5   6
ATOM      6  C2  BIX d          22.711  44.676  15.831  0.00  0.00     0.283 C 
BRANCH   6   7
ATOM      7  C3  BIX d          22.411  45.954  15.115  0.00  0.00     0.204 C 
ATOM      8  O1  BIX d          22.848  46.996  15.641  0.00  0.00    -0.646 OA
ATOM      9  O3  BIX d          21.707  45.964  14.065  0.00  0.00    -0.646 OA
ENDBRANCH   6   7
BRANCH   6  10
ATOM     10  N   BIX d          23.931  44.787  16.596  0.00  0.00    -0.065 N 
ATOM     11  H13 BIX d          24.679  45.091  15.993  0.00  0.00     0.275 HD
ATOM     12  H14 BIX d          24.162  43.889  16.992  0.00  0.00     0.275 HD
ATOM     13  H15 BIX d          23.803  45.458  17.337  0.00  0.00     0.275 HD
ENDBRANCH   6  10
ENDBRANCH   5   6
ENDBRANCH   4   5
ENDBRANCH   1   4
BRANCH   1  14
ATOM     14  C1  BIX d          18.542  43.828  18.131  0.00  0.00     0.119 C 
BRANCH  14  15
ATOM     15  CA  BIX d          18.130  42.516  18.798  0.00  0.00     0.097 C 
BRANCH  15  16
ATOM     16  CB  BIX d          16.812  41.987  18.183  0.00  0.00     0.026 C 
BRANCH  16  17
ATOM     17  CG  BIX d          16.851  41.873  16.649  0.00  0.00     0.114 C 
BRANCH  17  18
ATOM     18  CD  BIX d          15.640  41.213  16.028  0.00  0.00     0.172 C 
ATOM     19  OE2 BIX d          14.881  40.564  16.722  0.00  0.00    -0.648 OA
ATOM     20  OE1 BIX d          15.479  41.371  14.806  0.00  0.00    -0.648 OA
ENDBRANCH  17  18
ENDBRANCH  16  17
ENDBRANCH  15  16
BRANCH  15  21
ATOM     21  C   BIX d          19.150  41.440  18.588  0.00  0.00     0.177 C 
ATOM     22  OC  BIX d          19.190  40.459  19.350  0.00  0.00    -0.648 OA
ATOM     23  O   BIX d          19.994  41.529  17.628  0.00  0.00    -0.648 OA
ENDBRANCH  15  21
ENDBRANCH  14  15
ENDBRANCH   1  14
TORSDOF 11
