REMARK  3 active torsions:
REMARK  status: ('A' for Active; 'I' for Inactive)
REMARK       I    between atoms: C_1  and  N_4 
REMARK    1  A    between atoms: N_4  and  CA_5 
REMARK    2  A    between atoms: CA_5  and  CB_6 
REMARK    3  A    between atoms: CB_6  and  CG_7 
ROOT
ATOM      1  CB  AHN d         -13.984   2.539  21.803  0.00  0.00     0.080 C 
ENDROOT
BRANCH   1   2
ATOM      2  CA  AHN d         -13.059   3.554  22.520  0.00  0.00     0.128 C 
BRANCH   2   3
ATOM      3  N   AHN d         -11.710   3.028  22.642  0.00  0.00    -0.361 N 
ATOM      4  C   AHN d         -10.634   3.704  22.228  0.00  0.00     0.213 C 
ATOM      5  O   AHN d          -9.445   3.268  22.336  0.00  0.00    -0.274 OA
ATOM      6  CT  AHN d         -10.925   5.050  21.586  0.00  0.00     0.117 C 
ATOM      7  H4  AHN d         -11.582   2.125  23.052  0.00  0.00     0.162 HD
ENDBRANCH   2   3
ENDBRANCH   1   2
BRANCH   1   8
ATOM      8  CG  AHN d         -15.440   2.898  21.879  0.00  0.00     0.052 A 
ATOM      9  CD2 AHN d         -16.061   4.082  22.086  0.00  0.00     0.116 A 
ATOM     10  NE2 AHN d         -17.418   3.848  22.027  0.00  0.00    -0.359 N 
ATOM     11  CE1 AHN d         -17.621   2.561  21.805  0.00  0.00     0.207 A 
ATOM     12  H11 AHN d         -18.154   4.560  22.138  0.00  0.00     0.166 HD
ATOM     13  ND1 AHN d         -16.443   1.967  21.719  0.00  0.00    -0.247 NA
ENDBRANCH   1   8
TORSDOF 3
