REMARK  10 active torsions:
REMARK  status: ('A' for Active; 'I' for Inactive)
REMARK       I    between atoms: N33_1  and  C31_2 
REMARK       I    between atoms: C31_2  and  N29_4 
REMARK    1  A    between atoms: C24_9  and  C23_10 
REMARK    2  A    between atoms: C23_10  and  C22_11 
REMARK       I    between atoms: C22_11  and  N21_13 
REMARK    3  A    between atoms: N21_13  and  C16_14 
REMARK    4  A    between atoms: C16_14  and  C15_19 
REMARK    5  A    between atoms: C16_14  and  C17_15 
REMARK    6  A    between atoms: C17_15  and  O18_17 
REMARK    7  A    between atoms: C15_19  and  C12_20 
REMARK    8  A    between atoms: C9_25  and  C8_26 
REMARK    9  A    between atoms: C8_26  and  C7_27 
REMARK   10  A    between atoms: C7_27  and  C4_28 
ROOT
ATOM      1  C16 FRG d           0.917  18.464  -8.903  0.00  0.00     0.188 C 
ENDROOT
BRANCH   1   2
ATOM      2  N21 FRG d           0.813  18.252  -7.455  0.00  0.00    -0.347 N 
ATOM      3  C22 FRG d           1.864  18.424  -6.630  0.00  0.00     0.218 C 
ATOM      4  O25 FRG d           2.929  18.879  -7.009  0.00  0.00    -0.274 OA
ATOM      5  H16 FRG d          -0.065  17.971  -7.068  0.00  0.00     0.163 HD
BRANCH   3   6
ATOM      6  C23 FRG d           1.701  18.040  -5.172  0.00  0.00     0.109 C 
BRANCH   6   7
ATOM      7  C24 FRG d           1.780  19.279  -4.256  0.00  0.00     0.013 C 
ATOM      8  C30 FRG d           1.544  18.891  -2.796  0.00  0.00     0.146 C 
ATOM      9  N29 FRG d           1.464  20.010  -1.816  0.00  0.00    -0.218 N 
ATOM     10  C31 FRG d           2.603  20.115  -0.924  0.00  0.00     0.667 C 
ATOM     11  C28 FRG d           0.777  21.259  -2.263  0.00  0.00     0.141 C 
ATOM     12  N33 FRG d           2.564  20.965   0.102  0.00  0.00    -0.235 N 
ATOM     13  N32 FRG d           3.664  19.309  -1.006  0.00  0.00    -0.235 N 
ATOM     14  H1  FRG d           3.371  21.042   0.738  0.00  0.00     0.174 HD
ATOM     15  H2  FRG d           1.727  21.544   0.259  0.00  0.00     0.174 HD
ATOM     16  H3  FRG d           4.449  19.423  -0.349  0.00  0.00     0.174 HD
ATOM     17  H4  FRG d           3.697  18.573  -1.726  0.00  0.00     0.174 HD
ATOM     18  C27 FRG d           0.792  21.555  -3.768  0.00  0.00     0.021 C 
ATOM     19  C26 FRG d           0.765  20.334  -4.685  0.00  0.00     0.008 C 
ENDBRANCH   6   7
ENDBRANCH   3   6
ENDBRANCH   1   2
BRANCH   1  20
ATOM     20  C15 FRG d          -0.045  17.556  -9.642  0.00  0.00     0.074 C 
BRANCH  20  21
ATOM     21  C12 FRG d          -0.043  16.092  -9.422  0.00  0.00    -0.056 A 
ATOM     22  C11 FRG d           0.972  15.336  -9.994  0.00  0.00     0.009 A 
ATOM     23  C10 FRG d           0.993  13.971  -9.821  0.00  0.00     0.021 A 
ATOM     24  C9  FRG d          -0.010  13.371  -9.072  0.00  0.00     0.018 A 
ATOM     25  C14 FRG d          -1.044  14.091  -8.507  0.00  0.00     0.021 A 
ATOM     26  C13 FRG d          -1.043  15.467  -8.680  0.00  0.00     0.009 A 
BRANCH  24  27
ATOM     27  C8  FRG d           0.045  11.930  -8.932  0.00  0.00    -0.061 C 
BRANCH  27  28
ATOM     28  C7  FRG d           0.114  10.638  -8.862  0.00  0.00    -0.061 C 
BRANCH  28  29
ATOM     29  C4  FRG d           0.160   9.195  -8.824  0.00  0.00     0.018 A 
ATOM     30  C3  FRG d           1.016   8.567  -7.956  0.00  0.00     0.020 A 
ATOM     31  C2  FRG d           1.023   7.189  -7.948  0.00  0.00     0.001 A 
ATOM     32  C1  FRG d           0.168   6.479  -8.783  0.00  0.00     0.000 A 
ATOM     33  C6  FRG d          -0.693   7.128  -9.658  0.00  0.00     0.001 A 
ATOM     34  C5  FRG d          -0.699   8.509  -9.669  0.00  0.00     0.020 A 
ENDBRANCH  28  29
ENDBRANCH  27  28
ENDBRANCH  24  27
ENDBRANCH  20  21
ENDBRANCH   1  20
BRANCH   1  35
ATOM     35  C17 FRG d           0.797  19.910  -9.327  0.00  0.00     0.281 C 
ATOM     36  O19 FRG d           1.472  20.379 -10.235  0.00  0.00    -0.263 OA
BRANCH  35  37
ATOM     37  O18 FRG d          -0.109  20.801  -8.619  0.00  0.00    -0.325 OA
ATOM     38  C20 FRG d          -0.440  22.088  -9.140  0.00  0.00     0.213 C 
ENDBRANCH  35  37
ENDBRANCH   1  35
TORSDOF 10
