REMARK  4 active torsions:
REMARK  status: ('A' for Active; 'I' for Inactive)
REMARK    1  A    between atoms: N1_1  and  C7_10 
REMARK    2  A    between atoms: C7_10  and  C8_11 
REMARK    3  A    between atoms: C8_11  and  N8_12 
REMARK    4  A    between atoms: C8_11  and  C9_13 
ROOT
ATOM      1  N1  CWD d         -19.949  -1.105 -19.307  0.00  0.00    -0.305 N 
ATOM      2  C2  CWD d         -18.710  -0.652 -19.512  0.00  0.00     0.328 A 
ATOM      3  O2  CWD d         -17.815  -1.422 -19.654  0.00  0.00    -0.246 OA
ATOM      4  N3  CWD d         -18.456   0.702 -19.521  0.00  0.00    -0.285 N 
ATOM      5  C4  CWD d         -19.478   1.592 -19.326  0.00  0.00     0.206 A 
ATOM      6  O4  CWD d         -19.200   2.951 -19.370  0.00  0.00    -0.170 OA
ATOM      7  C5  CWD d         -20.774   1.133 -19.114  0.00  0.00     0.103 A 
ATOM      8 CL5  CWD d         -22.179   2.236 -18.890  0.00  0.00    -0.078 Cl
ATOM      9  C6  CWD d         -21.001  -0.194 -19.107  0.00  0.00     0.124 A 
ATOM     10  H1  CWD d         -17.525   1.035 -19.670  0.00  0.00     0.172 HD
ENDROOT
BRANCH   1  11
ATOM     11  C7  CWD d         -20.187  -2.531 -19.361  0.00  0.00     0.177 C 
BRANCH  11  12
ATOM     12  C8  CWD d         -20.194  -3.121 -20.774  0.00  0.00     0.301 C 
BRANCH  12  13
ATOM     13  N8  CWD d         -21.332  -2.712 -21.577  0.00  0.00    -0.064 N 
ATOM     14  H6  CWD d         -21.270  -3.137 -22.489  0.00  0.00     0.275 HD
ATOM     15  H7  CWD d         -21.332  -1.709 -21.673  0.00  0.00     0.275 HD
ATOM     16  H8  CWD d         -22.184  -3.007 -21.127  0.00  0.00     0.275 HD
ENDBRANCH  12  13
BRANCH  12  17
ATOM     17  C9  CWD d         -19.783  -4.592 -20.881  0.00  0.00     0.206 C 
ATOM     18  O91 CWD d         -20.538  -5.375 -21.356  0.00  0.00    -0.646 OA
ATOM     19  O92 CWD d         -18.685  -5.016 -20.122  0.00  0.00    -0.646 OA
ENDBRANCH  12  17
ENDBRANCH  11  12
ENDBRANCH   1  11
TORSDOF 4
