2wqp_ligand

Created by X-TOOL on Fri Sep 26 17:34:43 2014
 44 43  0  0  0  0  0  0  0  0999 V2000
   95.7180  -19.7390   55.4620  O 0  0  0  1  0  1
   96.2220  -18.8830   54.3400  P 0  0  0  1  0  4
   96.6930  -17.4820   54.7370  O 0  0  0  1  0  1
   95.3710  -19.0110   53.0950  O 0  0  0  1  0  1
   97.6280  -19.5900   53.9530  O 0  0  0  1  0  2
   97.9380  -20.3200   52.7920  C 0  0  0  2  0  4
   99.4330  -20.4590   52.7460  C 0  5  0  1  0  3
  100.1020  -19.6700   53.4430  O 0  0  0  1  0  1
   99.9400  -21.3300   52.0000  O 0  0  0  1  0  1
   97.2590  -21.6850   52.7730  C 0  0  0  3  0  4
   96.5660  -21.8730   51.4250  C 0  0  0  2  0  4
   95.4130  -21.0130   51.4280  O 0  0  0  2  0  2
   96.1790  -23.3480   51.1770  C 0  0  0  2  0  4
   95.2390  -23.7710   52.2060  N 0  0  0  2  0  3
   95.5590  -24.6390   53.1650  C 0  0  0  1  0  3
   94.4740  -24.9830   54.1330  C 0  0  0  4  0  4
   96.6610  -25.1380   53.2590  O 0  0  0  1  0  1
   95.5570  -23.5740   49.7890  C 0  0  0  2  0  4
   96.3020  -22.9300   48.7410  O 0  0  0  2  0  2
   95.4180  -25.0540   49.4470  C 0  0  0  2  0  4
   96.7320  -25.6300   49.2750  O 0  0  0  2  0  2
   94.5900  -25.2840   48.1710  C 0  0  0  2  0  4
   93.3600  -24.5370   48.1780  O 0  0  0  2  0  2
   94.2630  -26.7630   48.0570  C 0  0  0  3  0  4
   93.2800  -26.9750   47.0410  O 0  0  0  2  0  2
   97.5990  -19.7546   51.9114  H 0  0  0  1  0  1
   96.5151  -21.7389   53.5815  H 0  0  0  1  0  1
   98.0121  -22.4742   52.9144  H 0  0  0  1  0  1
   97.2487  -21.5585   50.6219  H 0  0  0  1  0  1
   95.6917  -20.1120   51.5421  H 0  0  0  1  0  1
   97.0892  -23.9614   51.2501  H 0  0  0  1  0  1
   94.3131  -23.3935   52.1922  H 0  0  0  1  0  1
   94.8563  -25.7029   54.8716  H 0  0  0  1  0  1
   93.6269  -25.4287   53.5911  H 0  0  0  1  0  1
   94.1401  -24.0707   54.6490  H 0  0  0  1  0  1
   94.5490  -23.1340   49.8085  H 0  0  0  1  0  1
   97.1871  -23.2747   48.7254  H 0  0  0  1  0  1
   94.9128  -25.5579   50.2841  H 0  0  0  1  0  1
   97.1835  -25.1812   48.5698  H 0  0  0  1  0  1
   95.1875  -24.9733   47.3013  H 0  0  0  1  0  1
   92.8823  -24.7081   47.3748  H 0  0  0  1  0  1
   93.8735  -27.1242   49.0202  H 0  0  0  1  0  1
   95.1770  -27.3183   47.7996  H 0  0  0  1  0  1
   92.4892  -26.4975   47.2625  H 0  0  0  1  0  1
  1  2  2  0  0  2
  2  3  2  0  0  2
  2  4  2  0  0  2
  2  5  1  0  0  2
  5  6  1  0  0  2
  6  7  1  0  0  2
  6 10  1  0  0  2
  7  8  2  0  0  2
  7  9  2  0  0  2
 10 11  1  0  0  2
 11 12  1  0  0  2
 11 13  1  0  0  2
 13 14  1  0  0  2
 13 18  1  0  0  2
 14 15  1  0  0  2
 15 16  1  0  0  2
 15 17  2  0  0  2
 18 19  1  0  0  2
 18 20  1  0  0  2
 20 21  1  0  0  2
 20 22  1  0  0  2
 22 23  1  0  0  2
 22 24  1  0  0  2
 24 25  1  0  0  2
  6 26  1  0  0  2
 10 27  1  0  0  2
 10 28  1  0  0  2
 11 29  1  0  0  2
 12 30  1  0  0  2
 13 31  1  0  0  2
 14 32  1  0  0  2
 16 33  1  0  0  2
 16 34  1  0  0  2
 16 35  1  0  0  2
 18 36  1  0  0  2
 19 37  1  0  0  2
 20 38  1  0  0  2
 21 39  1  0  0  2
 22 40  1  0  0  2
 23 41  1  0  0  2
 24 42  1  0  0  2
 24 43  1  0  0  2
 25 44  1  0  0  2
M  END
> <MOLECULAR_FORMULA>
C11H19NO12P

> <MOLECULAR_WEIGHT>
388.1

> <NUM_HB_ATOMS>
13 

> <NUM_ROTOR>
9  

> <XLOGP2>
-5.27

$$$$
