4qiz_ligand

Created by X-TOOL on Sun Nov 13 14:28:31 2016
 56 58  0  0  0  0  0  0  0  0999 V2000
    3.6710  -25.2900  -13.5270  O 0  0  0  1  0  1
    4.6410  -24.1940  -14.1330  S 0  0  0  1  0  4
    3.7810  -22.9340  -14.4500  O 0  0  0  1  0  1
    6.8870  -24.4360  -15.7820  C 0  0  0  3  0  4
    6.7740  -23.0440  -15.7910  O 0  0  0  2  0  2
    5.4150  -24.8770  -15.6260  C 0  0  0  3  0  4
    5.5700  -23.8580  -12.6010  C 0  0  0  1  0  3
    6.0890  -25.0680  -12.0710  C 0  0  0  1  0  3
    5.9530  -26.3750  -12.7820  F 0  0  0  1  0  1
    6.8620  -24.9590  -10.8330  C 0  0  0  1  0  3
    7.3050  -26.1550  -10.4240  F 0  0  0  1  0  1
    5.7170  -22.5270  -11.9910  C 0  0  0  1  0  3
    6.4280  -22.6000  -10.7860  C 0  0  0  1  0  3
    6.6140  -21.4820  -10.0030  F 0  0  0  1  0  1
    7.0100  -23.7370  -10.1340  C 0  0  0  1  0  3
    7.8740  -23.7330   -8.4150  S 0  0  0  1  0  4
    9.1550  -22.9800   -8.1190  O 0  0  0  1  0  1
    8.2010  -25.3730   -8.1690  N 0  0  0  3  0  3
    6.9740  -23.3610   -7.2890  O 0  0  0  1  0  1
    5.0760  -21.2360  -12.6140  N 0  0  0  2  0  3
    5.4130  -20.0420  -13.4120  C 0  0  0  2  0  4
    5.1270  -20.0440  -14.9160  C 0  0  0  1  0  3
    3.8230  -20.2960  -15.4390  C 0  0  0  2  0  3
    3.5770  -20.3280  -16.8470  C 0  0  0  2  0  3
    4.6280  -20.1220  -17.7780  C 0  0  0  2  0  3
    5.9370  -19.8760  -17.3190  C 0  0  0  2  0  3
    6.1560  -19.8550  -15.9180  C 0  0  0  2  0  3
    6.8690  -19.8020  -13.4040  C 0  0  0  2  0  4
    7.5110  -20.8510  -14.0730  O 0  0  0  2  0  2
    7.2560  -18.3980  -13.8520  C 0  0  0  1  0  3
    8.6320  -18.1430  -14.0650  C 0  0  0  2  0  3
    9.1010  -16.8580  -14.3570  C 0  0  0  2  0  3
    8.2390  -15.8140  -14.5210  C 0  0  0  2  0  3
    6.8670  -16.0620  -14.3710  C 0  0  0  2  0  3
    6.3320  -17.3150  -14.0250  C 0  0  0  2  0  3
    7.4995  -24.7818  -14.9363  H 0  0  0  1  0  1
    7.3180  -24.8081  -16.7232  H 0  0  0  1  0  1
    7.6370  -22.6580  -15.8843  H 0  0  0  1  0  1
    4.8490  -24.5351  -16.5050  H 0  0  0  1  0  1
    5.3794  -25.9751  -15.5713  H 0  0  0  1  0  1
    8.6591  -25.6714   -7.3317  H 0  0  0  1  0  1
    7.9364  -26.0449   -8.8608  H 0  0  0  1  0  1
    4.0716  -21.2159  -12.3865  H 0  0  0  1  0  1
    4.8821  -19.1940  -12.9548  H 0  0  0  1  0  1
    3.0009  -20.4669  -14.7534  H 0  0  0  1  0  1
    2.5720  -20.5125  -17.2090  H 0  0  0  1  0  1
    4.4237  -20.1539  -18.8421  H 0  0  0  1  0  1
    6.7511  -19.7081  -18.0147  H 0  0  0  1  0  1
    7.1688  -19.6849  -15.5711  H 0  0  0  1  0  1
    7.1906  -19.8688  -12.3542  H 0  0  0  1  0  1
    7.1986  -20.8918  -14.9692  H 0  0  0  1  0  1
    9.3386  -18.9625  -14.0003  H 0  0  0  1  0  1
   10.1673  -16.6892  -14.4546  H 0  0  0  1  0  1
    8.6037  -14.8216  -14.7603  H 0  0  0  1  0  1
    6.1790  -15.2397  -14.5312  H 0  0  0  1  0  1
    5.2653  -17.4568  -13.8944  H 0  0  0  1  0  1
  2  1  2  0  0  2
  2  3  2  0  0  2
  6  2  1  0  0  2
  2  7  1  0  0  2
  4  5  1  0  0  2
  4  6  1  0  0  2
  7  8  4  0  0  1
  7 12  4  0  0  1
  8  9  1  0  0  2
  8 10  4  0  0  1
 10 11  1  0  0  2
 10 15  4  0  0  1
 12 13  4  0  0  1
 12 20  1  0  0  2
 13 14  1  0  0  2
 13 15  4  0  0  1
 15 16  1  0  0  2
 16 17  2  0  0  2
 16 18  1  0  0  2
 16 19  2  0  0  2
 20 21  1  0  0  2
 21 22  1  0  0  2
 21 28  1  0  0  2
 22 23  4  0  0  1
 22 27  4  0  0  1
 23 24  4  0  0  1
 24 25  4  0  0  1
 25 26  4  0  0  1
 26 27  4  0  0  1
 28 29  1  0  0  2
 28 30  1  0  0  2
 30 31  4  0  0  1
 30 35  4  0  0  1
 31 32  4  0  0  1
 32 33  4  0  0  1
 33 34  4  0  0  1
 34 35  4  0  0  1
  4 36  1  0  0  2
  4 37  1  0  0  2
  5 38  1  0  0  2
  6 39  1  0  0  2
  6 40  1  0  0  2
 18 41  1  0  0  2
 18 42  1  0  0  2
 20 43  1  0  0  2
 21 44  1  0  0  2
 23 45  1  0  0  2
 24 46  1  0  0  2
 25 47  1  0  0  2
 26 48  1  0  0  2
 27 49  1  0  0  2
 28 50  1  0  0  2
 29 51  1  0  0  2
 31 52  1  0  0  2
 32 53  1  0  0  2
 33 54  1  0  0  2
 34 55  1  0  0  2
 35 56  1  0  0  2
M  END
> <MOLECULAR_FORMULA>
C22H21N2O6S2F3

> <MOLECULAR_WEIGHT>
530.4

> <NUM_HB_ATOMS>
8  

> <NUM_ROTOR>
8  

> <XLOGP2>
2.99 

$$$$
