REMARK  5 active torsions:
REMARK  status: ('A' for Active; 'I' for Inactive)
REMARK    1  A    between atoms: C5'_7  and  S_6 
REMARK    2  A    between atoms: C4'_8  and  C5'_7 
REMARK    3  A    between atoms: C10_11  and  N1'_10 
REMARK    4  A    between atoms: C10_11  and  C9_12 
REMARK    5  A    between atoms: C3'_19  and  O3'_20 
ROOT
ATOM      1  C2  MOL d         -25.043   2.500 -21.942  0.00  0.00     0.236 A 
ATOM      2  C4  MOL d         -23.199   1.302 -22.589  0.00  0.00     0.098 A 
ATOM      3  C5  MOL d         -22.456   2.522 -22.897  0.00  0.00     0.107 A 
ATOM      4  C6  MOL d         -23.164   3.781 -22.624  0.00  0.00     0.151 A 
ATOM      5  C9  MOL d         -22.330   0.189 -22.911  0.00  0.00     0.014 A 
ATOM      6  C8  MOL d         -21.146   0.772 -23.369  0.00  0.00     0.099 A 
ATOM      7  N7  MOL d         -21.229   2.141 -23.350  0.00  0.00    -0.360 N 
ATOM      8  N6  MOL d         -22.582   4.992 -22.855  0.00  0.00    -0.382 N 
ATOM      9  N1  MOL d         -24.441   3.687 -22.171  0.00  0.00    -0.223 NA
ATOM     10  N3  MOL d         -24.472   1.300 -22.132  0.00  0.00    -0.239 NA
ATOM     11  H14 MOL d         -20.477   2.784 -23.635  0.00  0.00     0.165 HD
ATOM     12  H15 MOL d         -23.101   5.859 -22.655  0.00  0.00     0.157 HD
ATOM     13  H16 MOL d         -21.624   5.040 -23.230  0.00  0.00     0.157 HD
ENDROOT
BRANCH   5  14
ATOM     14  C10 MOL d         -22.697  -1.262 -22.792  0.00  0.00     0.277 C 
BRANCH  14  15
ATOM     15  N1' MOL d         -22.744  -1.867 -24.142  0.00  0.00    -0.064 N 
ATOM     16  C1' MOL d         -23.678  -1.186 -25.036  0.00  0.00     0.243 C 
ATOM     17  C4' MOL d         -25.016  -1.810 -24.737  0.00  0.00     0.051 C 
ATOM     18  C3' MOL d         -24.711  -3.116 -23.993  0.00  0.00     0.150 C 
ATOM     19  C2' MOL d         -23.208  -3.262 -24.067  0.00  0.00     0.267 C 
ATOM     20  H10 MOL d         -21.818  -1.835 -24.538  0.00  0.00     0.280 HD
BRANCH  17  21
ATOM     21  C5' MOL d         -25.785  -1.996 -26.045  0.00  0.00     0.082 C 
BRANCH  21  22
ATOM     22  S   MOL d         -26.186  -0.427 -26.788  0.00  0.00    -0.173 SA
ATOM     23  CS5 MOL d         -26.783  -0.572 -28.436  0.00  0.00     0.089 C 
ENDBRANCH  21  22
ENDBRANCH  17  21
BRANCH  18  24
ATOM     24  O3' MOL d         -25.090  -3.058 -22.603  0.00  0.00    -0.393 OA
ATOM     25  H20 MOL d         -24.817  -3.857 -22.168  0.00  0.00     0.210 HD
ENDBRANCH  18  24
ENDBRANCH  14  15
ENDBRANCH   5  14
TORSDOF 5
