REMARK  2 active torsions:
REMARK  status: ('A' for Active; 'I' for Inactive)
REMARK    1  A    between atoms: S1_2  and  N4_4 
REMARK    2  A    between atoms: S1_2  and  C5_11 
ROOT
ATOM      1  O1  M77 d          26.994  26.954   9.283  0.00  0.00    -0.200 OA
ATOM      2  S1  M77 d          27.186  25.792   8.408  0.00  0.00     0.261 S 
ATOM      3  O2  M77 d          27.986  26.050   7.228  0.00  0.00    -0.200 OA
ENDROOT
BRANCH   2   4
ATOM      4  N4  M77 d          27.908  24.603   9.249  0.00  0.00    -0.305 N 
ATOM      5  C22 M77 d          27.413  24.284  10.635  0.00  0.00     0.163 C 
ATOM      6  C21 M77 d          28.479  24.017  11.723  0.00  0.00     0.252 C 
ATOM      7  N17 M77 d          29.722  24.850  11.475  0.00  0.00    -0.074 N 
ATOM      8  C16 M77 d          30.646  24.175  10.464  0.00  0.00     0.234 C 
ATOM      9  H5  M77 d          30.217  24.969  12.345  0.00  0.00     0.277 HD
ATOM     10  H6  M77 d          29.448  25.752  11.119  0.00  0.00     0.277 HD
ATOM     11  C20 M77 d          30.329  24.574   9.012  0.00  0.00     0.048 C 
ATOM     12  C15 M77 d          29.021  23.890   8.577  0.00  0.00     0.137 C 
ENDBRANCH   2   4
BRANCH   2  13
ATOM     13  C5  M77 d          25.724  24.881   7.965  0.00  0.00     0.090 A 
ATOM     14  C6  M77 d          25.780  23.494   7.852  0.00  0.00     0.026 A 
ATOM     15  C7  M77 d          24.613  22.733   7.517  0.00  0.00     0.002 A 
ATOM     16  C8  M77 d          23.399  23.361   7.321  0.00  0.00     0.014 A 
ATOM     17  C9  M77 d          23.333  24.772   7.413  0.00  0.00    -0.007 A 
ATOM     18  C10 M77 d          24.482  25.539   7.734  0.00  0.00     0.000 A 
ATOM     19  C14 M77 d          22.128  25.450   7.171  0.00  0.00     0.128 A 
ATOM     20  C11 M77 d          24.312  26.951   7.804  0.00  0.00     0.033 A 
ATOM     21  C12 M77 d          23.092  27.528   7.580  0.00  0.00     0.117 A 
ATOM     22  N13 M77 d          21.999  26.768   7.287  0.00  0.00    -0.272 NA
ENDBRANCH   2  13
TORSDOF 2
