3obq_ligand

Created by X-TOOL on Fri Sep 26 17:34:48 2014
129132  0  0  0  0  0  0  0  0999 V2000
   -6.1050   -3.1100    3.8210  N 0  3  0  3  0  4
   -5.8500   -1.9030    3.0020  C 0  0  0  2  0  4
   -4.3940   -1.7900    2.5640  C 0  0  0  1  0  3
   -3.9180   -0.7000    2.2520  O 0  0  0  1  0  1
   -6.2650   -0.7130    3.8500  C 0  0  0  3  0  4
   -7.3780   -1.3250    4.6840  C 0  0  0  3  0  4
   -6.8610   -2.7400    5.0330  C 0  0  0  3  0  4
   -3.6980   -2.9230    2.5420  N 0  0  0  2  0  3
   -2.3020   -2.9560    2.1220  C 0  0  0  2  0  4
   -2.1910   -3.6680    0.7790  C 0  0  0  1  0  3
   -2.7610   -4.7440    0.5920  O 0  0  0  1  0  1
   -1.4120   -3.7030    3.1460  C 0  0  0  2  0  4
   -1.9200   -5.0290    3.3490  O 0  0  0  2  0  2
   -1.3800   -2.9620    4.4700  C 0  0  0  4  0  4
   -1.4650   -3.0680   -0.1760  N 0  0  0  1  0  3
   -1.2950   -3.6710   -1.4990  C 0  0  0  2  0  4
   -0.7360   -5.0840   -1.4000  C 0  0  0  1  0  3
    0.2190   -5.3350   -0.6620  O 0  0  0  1  0  1
   -0.3280   -2.7160   -2.1900  C 0  0  0  3  0  4
   -0.6860   -1.3980   -1.5830  C 0  0  0  3  0  4
   -0.8240   -1.7430   -0.1220  C 0  0  0  3  0  4
   -1.3360   -6.0060   -2.1440  N 0  0  0  2  0  3
   -0.8920   -7.3950   -2.1340  C 0  0  0  2  0  4
   -0.9870   -7.9950   -3.5280  C 0  0  0  1  0  3
   -1.7530   -7.5270   -4.3700  O 0  0  0  1  0  1
   -1.7360   -8.2120   -1.1520  C 0  0  0  3  0  4
   -3.1110   -8.1770   -1.4900  O 0  0  0  2  0  2
   -0.1970   -9.0350   -3.7610  N 0  0  0  2  0  3
   -0.1730   -9.7150   -5.0460  C 0  0  0  2  0  4
    0.0410  -11.2040   -4.8010  C 0  0  0  1  0  3
    0.6890  -11.5900   -3.8300  O 0  0  0  1  0  1
    0.9450   -9.1560   -5.9120  C 0  0  0  4  0  4
   -0.5010  -12.0600   -5.6810  N 0  0  0  1  0  3
   -0.3450  -13.5100   -5.5210  C 0  0  0  2  0  4
    1.0900  -13.9890   -5.7320  C 0  0  0  1  0  3
    1.8950  -13.3180   -6.3780  O 0  0  0  1  0  1
   -1.3030  -14.0700   -6.5650  C 0  0  0  3  0  4
   -1.2330  -13.0440   -7.6550  C 0  0  0  3  0  4
   -1.3020  -11.7460   -6.8790  C 0  0  0  3  0  4
    1.4030  -15.1530   -5.1720  N 0  0  0  2  0  3
    2.7310  -15.7320   -5.3050  C 0  0  0  2  0  4
    2.9060  -16.2840   -6.7180  C 0  0  0  1  0  3
    1.9410  -16.7240   -7.3430  O 0  0  0  1  0  1
    2.9450  -16.8780   -4.2970  C 0  0  0  2  0  4
    2.7950  -16.3590   -2.8770  C 0  0  0  4  0  4
    1.9470  -17.9960   -4.5610  C 0  0  0  4  0  4
    4.1390  -16.2560   -7.2130  N 0  0  0  1  0  3
    4.4410  -16.7540   -8.5590  C 0  0  0  2  0  4
    4.2680  -18.2660   -8.6560  C 0  0  0  1  0  3
    4.3420  -18.9620   -7.6430  O 0  0  0  1  0  1
    5.9130  -16.3800   -8.7430  C 0  0  0  3  0  4
    6.1010  -15.1840   -7.8800  C 0  0  0  3  0  4
    5.2110  -15.3930   -6.6870  C 0  0  0  3  0  4
    4.0410  -18.7640   -9.8670  N 0  0  0  2  0  3
    3.8590  -20.1930  -10.0870  C 0  0  0  2  0  4
    5.1990  -20.9200  -10.1200  C 0  5  0  1  0  3
    6.2310  -20.3270  -10.4340  O 0  0  0  1  0  1
    3.0930  -20.4430  -11.3880  C 0  0  0  3  0  4
    1.5820  -20.2050  -11.3410  C 0  0  0  2  0  4
    1.2740  -18.7170  -11.2730  C 0  0  0  4  0  4
    0.9000  -20.8440  -12.5410  C 0  0  0  4  0  4
    5.1810  -22.1390   -9.8490  O 0  0  0  1  0  1
   -5.2262   -3.5250    4.0883  H 0  0  0  1  0  1
   -6.6398   -3.7733    3.2824  H 0  0  0  1  0  1
   -6.4767   -1.9426    2.0989  H 0  0  0  1  0  1
   -6.6349    0.1162    3.2290  H 0  0  0  1  0  1
   -5.4366   -0.3577    4.4804  H 0  0  0  1  0  1
   -8.3116   -1.3832    4.1052  H 0  0  0  1  0  1
   -7.5490   -0.7365    5.5975  H 0  0  0  1  0  1
   -6.2080   -2.7178    5.9179  H 0  0  0  1  0  1
   -7.6946   -3.4356    5.2097  H 0  0  0  1  0  1
   -4.1433   -3.7739    2.8206  H 0  0  0  1  0  1
   -1.9390   -1.9227    2.0194  H 0  0  0  1  0  1
   -0.3883   -3.7665    2.7486  H 0  0  0  1  0  1
   -1.9144   -5.4989    2.5234  H 0  0  0  1  0  1
   -0.7434   -3.5090    5.1810  H 0  0  0  1  0  1
   -2.4006   -2.8879    4.8735  H 0  0  0  1  0  1
   -0.9727   -1.9520    4.3152  H 0  0  0  1  0  1
   -2.2540   -3.7047   -2.0367  H 0  0  0  1  0  1
   -0.4864   -2.7085   -3.2785  H 0  0  0  1  0  1
    0.7170   -2.9827   -1.9734  H 0  0  0  1  0  1
   -1.6322   -1.0147   -1.9927  H 0  0  0  1  0  1
    0.1103   -0.6562   -1.7435  H 0  0  0  1  0  1
    0.1583   -1.7946    0.3703  H 0  0  0  1  0  1
   -1.4590   -1.0135    0.4020  H 0  0  0  1  0  1
   -2.1078   -5.7425   -2.7227  H 0  0  0  1  0  1
    0.1581   -7.4262   -1.8081  H 0  0  0  1  0  1
   -1.6066   -7.7988   -0.1408  H 0  0  0  1  0  1
   -1.3912   -9.2564   -1.1683  H 0  0  0  1  0  1
   -3.6035   -8.6924   -0.8621  H 0  0  0  1  0  1
    0.4012   -9.3618   -3.0293  H 0  0  0  1  0  1
   -1.1345   -9.5636   -5.5584  H 0  0  0  1  0  1
    0.9539   -9.6771   -6.8807  H 0  0  0  1  0  1
    1.9103   -9.3057   -5.4063  H 0  0  0  1  0  1
    0.7795   -8.0809   -6.0756  H 0  0  0  1  0  1
   -0.6627  -13.8137   -4.5126  H 0  0  0  1  0  1
   -2.3236  -14.1538   -6.1633  H 0  0  0  1  0  1
   -0.9682  -15.0544   -6.9240  H 0  0  0  1  0  1
   -2.0820  -13.1398   -8.3478  H 0  0  0  1  0  1
   -0.2906  -13.1229   -8.2168  H 0  0  0  1  0  1
   -0.8594  -10.9159   -7.4491  H 0  0  0  1  0  1
   -2.3391  -11.4953   -6.6116  H 0  0  0  1  0  1
    0.7081  -15.6432   -4.6459  H 0  0  0  1  0  1
    3.4814  -14.9486   -5.1227  H 0  0  0  1  0  1
    3.9630  -17.2755   -4.4224  H 0  0  0  1  0  1
    2.9496  -17.1845   -2.1667  H 0  0  0  1  0  1
    1.7851  -15.9443   -2.7429  H 0  0  0  1  0  1
    3.5418  -15.5725   -2.6932  H 0  0  0  1  0  1
    2.0686  -18.3601   -5.5918  H 0  0  0  1  0  1
    0.9243  -17.6143   -4.4252  H 0  0  0  1  0  1
    2.1267  -18.8218   -3.8569  H 0  0  0  1  0  1
    3.8070  -16.2621   -9.3114  H 0  0  0  1  0  1
    6.1247  -16.1381   -9.7950  H 0  0  0  1  0  1
    6.5672  -17.2020   -8.4170  H 0  0  0  1  0  1
    5.8080  -14.2720   -8.4208  H 0  0  0  1  0  1
    7.1514  -15.1015   -7.5640  H 0  0  0  1  0  1
    5.7551  -15.8925   -5.8719  H 0  0  0  1  0  1
    4.8055  -14.4366   -6.3252  H 0  0  0  1  0  1
    3.9938  -18.1415  -10.6482  H 0  0  0  1  0  1
    3.2674  -20.5968   -9.2522  H 0  0  0  1  0  1
    3.2584  -21.4910  -11.6783  H 0  0  0  1  0  1
    3.5132  -19.7786  -12.1574  H 0  0  0  1  0  1
    1.1878  -20.6788  -10.4299  H 0  0  0  1  0  1
    0.1845  -18.5692  -11.2401  H 0  0  0  1  0  1
    1.6852  -18.2164  -12.1620  H 0  0  0  1  0  1
    1.7295  -18.2892  -10.3677  H 0  0  0  1  0  1
    1.1371  -21.9178  -12.5687  H 0  0  0  1  0  1
    1.2584  -20.3655  -13.4643  H 0  0  0  1  0  1
   -0.1887  -20.7110  -12.4578  H 0  0  0  1  0  1
  1  2  1  0  0  1
  1  7  1  0  0  1
  2  3  1  0  0  2
  2  5  1  0  0  1
  3  4  2  0  0  2
  3  8  1  0  0  2
  5  6  1  0  0  1
  6  7  1  0  0  1
  8  9  1  0  0  2
  9 10  1  0  0  2
  9 12  1  0  0  2
 10 11  2  0  0  2
 10 15  1  0  0  2
 12 13  1  0  0  2
 12 14  1  0  0  2
 15 16  1  0  0  1
 15 21  1  0  0  1
 16 17  1  0  0  2
 16 19  1  0  0  1
 17 18  2  0  0  2
 17 22  1  0  0  2
 19 20  1  0  0  1
 20 21  1  0  0  1
 22 23  1  0  0  2
 23 24  1  0  0  2
 23 26  1  0  0  2
 24 25  2  0  0  2
 24 28  1  0  0  2
 26 27  1  0  0  2
 28 29  1  0  0  2
 29 30  1  0  0  2
 29 32  1  0  0  2
 30 31  2  0  0  2
 30 33  1  0  0  2
 33 34  1  0  0  1
 33 39  1  0  0  1
 34 35  1  0  0  2
 34 37  1  0  0  1
 35 36  2  0  0  2
 35 40  1  0  0  2
 37 38  1  0  0  1
 38 39  1  0  0  1
 40 41  1  0  0  2
 41 42  1  0  0  2
 41 44  1  0  0  2
 42 43  2  0  0  2
 42 47  1  0  0  2
 44 45  1  0  0  2
 44 46  1  0  0  2
 47 48  1  0  0  1
 47 53  1  0  0  1
 48 49  1  0  0  2
 48 51  1  0  0  1
 49 50  2  0  0  2
 49 54  1  0  0  2
 51 52  1  0  0  1
 52 53  1  0  0  1
 54 55  1  0  0  2
 55 56  1  0  0  2
 55 58  1  0  0  2
 56 57  2  0  0  2
 56 62  2  0  0  2
 58 59  1  0  0  2
 59 60  1  0  0  2
 59 61  1  0  0  2
  1 63  1  0  0  2
  1 64  1  0  0  2
  2 65  1  0  0  2
  5 66  1  0  0  2
  5 67  1  0  0  2
  6 68  1  0  0  2
  6 69  1  0  0  2
  7 70  1  0  0  2
  7 71  1  0  0  2
  8 72  1  0  0  2
  9 73  1  0  0  2
 12 74  1  0  0  2
 13 75  1  0  0  2
 14 76  1  0  0  2
 14 77  1  0  0  2
 14 78  1  0  0  2
 16 79  1  0  0  2
 19 80  1  0  0  2
 19 81  1  0  0  2
 20 82  1  0  0  2
 20 83  1  0  0  2
 21 84  1  0  0  2
 21 85  1  0  0  2
 22 86  1  0  0  2
 23 87  1  0  0  2
 26 88  1  0  0  2
 26 89  1  0  0  2
 27 90  1  0  0  2
 28 91  1  0  0  2
 29 92  1  0  0  2
 32 93  1  0  0  2
 32 94  1  0  0  2
 32 95  1  0  0  2
 34 96  1  0  0  2
 37 97  1  0  0  2
 37 98  1  0  0  2
 38 99  1  0  0  2
 38100  1  0  0  2
 39101  1  0  0  2
 39102  1  0  0  2
 40103  1  0  0  2
 41104  1  0  0  2
 44105  1  0  0  2
 45106  1  0  0  2
 45107  1  0  0  2
 45108  1  0  0  2
 46109  1  0  0  2
 46110  1  0  0  2
 46111  1  0  0  2
 48112  1  0  0  2
 51113  1  0  0  2
 51114  1  0  0  2
 52115  1  0  0  2
 52116  1  0  0  2
 53117  1  0  0  2
 53118  1  0  0  2
 54119  1  0  0  2
 55120  1  0  0  2
 58121  1  0  0  2
 58122  1  0  0  2
 59123  1  0  0  2
 60124  1  0  0  2
 60125  1  0  0  2
 60126  1  0  0  2
 61127  1  0  0  2
 61128  1  0  0  2
 61129  1  0  0  2
M  END
> <MOLECULAR_FORMULA>
C41H67N9O12

> <MOLECULAR_WEIGHT>
877.5

> <NUM_HB_ATOMS>
18 

> <NUM_ROTOR>
18 

> <XLOGP2>
-1.90

$$$$
