REMARK  5 active torsions:
REMARK  status: ('A' for Active; 'I' for Inactive)
REMARK    1  A    between atoms: P_1  and  O1_5 
REMARK    2  A    between atoms: O1_5  and  C1_6 
REMARK    3  A    between atoms: C1_6  and  C2_7 
REMARK    4  A    between atoms: C2_7  and  C3_9 
REMARK    5  A    between atoms: C3_9  and  O3_10 
ROOT
ATOM      1  C1  MOL d          23.417  29.822  24.436  0.00  0.00     0.263 C 
ENDROOT
BRANCH   1   2
ATOM      2  O1  MOL d          22.889  28.510  24.771  0.00  0.00    -0.275 OA
BRANCH   2   3
ATOM      3  P   MOL d          23.058  27.232  23.781  0.00  0.00     0.422 P 
ATOM      4  O1P MOL d          23.274  25.761  24.431  0.00  0.00    -0.617 OA
ATOM      5  O2P MOL d          21.673  26.972  23.065  0.00  0.00    -0.617 OA
ATOM      6  O3P MOL d          24.079  27.541  22.652  0.00  0.00    -0.617 OA
ENDBRANCH   2   3
ENDBRANCH   1   2
BRANCH   1   7
ATOM      7  C2  MOL d          24.575  30.280  25.301  0.00  0.00     0.174 C 
ATOM      8  O2  MOL d          24.625  29.961  26.486  0.00  0.00    -0.293 OA
BRANCH   7   9
ATOM      9  C3  MOL d          25.662  31.146  24.694  0.00  0.00     0.244 C 
BRANCH   9  10
ATOM     10  O3  MOL d          25.875  30.777  23.343  0.00  0.00    -0.394 OA
ATOM     11  H5  MOL d          26.557  31.324  22.970  0.00  0.00     0.209 HD
ENDBRANCH   9  10
ENDBRANCH   7   9
ENDBRANCH   1   7
TORSDOF 5
