REMARK  14 active torsions:
REMARK  status: ('A' for Active; 'I' for Inactive)
REMARK    1  A    between atoms: C1'_11  and  N9_10 
REMARK    2  A    between atoms: C2'_12  and  O2'_13 
REMARK    3  A    between atoms: C3'_14  and  O3'_15 
REMARK    4  A    between atoms: C5'_18  and  C4'_17 
REMARK    5  A    between atoms: O5'_19  and  C5'_18 
REMARK    6  A    between atoms: PA_20  and  O5'_19 
REMARK    7  A    between atoms: O3A_23  and  PA_20 
REMARK    8  A    between atoms: PB_24  and  O3A_23 
REMARK    9  A    between atoms: O5D_27  and  PB_24 
REMARK   10  A    between atoms: C5D_28  and  O5D_27 
REMARK   11  A    between atoms: C4D_36  and  C5D_28 
REMARK   12  A    between atoms: C1D_31  and  O1D_30 
REMARK   13  A    between atoms: C2D_33  and  O2D_32 
REMARK   14  A    between atoms: C3D_35  and  O3D_34 
ROOT
ATOM      1  C5' APR d          11.345  45.851 -12.061  0.00  0.00     0.216 C 
ENDROOT
BRANCH   1   2
ATOM      2  C4' APR d          12.791  46.048 -11.616  0.00  0.00     0.180 C 
ATOM      3  C3' APR d          13.695  46.550 -12.731  0.00  0.00     0.182 C 
ATOM      4  C2' APR d          14.495  45.322 -13.146  0.00  0.00     0.198 C 
ATOM      5  C1' APR d          14.588  44.509 -11.862  0.00  0.00     0.262 C 
ATOM      6  O4' APR d          13.368  44.800 -11.153  0.00  0.00    -0.353 OA
BRANCH   3   7
ATOM      7  O3' APR d          14.582  47.541 -12.182  0.00  0.00    -0.390 OA
ATOM      8  H9  APR d          15.223  47.788 -12.838  0.00  0.00     0.210 HD
ENDBRANCH   3   7
BRANCH   4   9
ATOM      9  O2' APR d          15.782  45.685 -13.660  0.00  0.00    -0.388 OA
ATOM     10  H7  APR d          16.243  46.208 -13.015  0.00  0.00     0.210 HD
ENDBRANCH   4   9
BRANCH   5  11
ATOM     11  N9  APR d          14.549  43.033 -12.054  0.00  0.00    -0.294 N 
ATOM     12  C4  APR d          14.793  42.180 -11.066  0.00  0.00     0.167 A 
ATOM     13  N3  APR d          15.158  42.321  -9.770  0.00  0.00    -0.222 NA
ATOM     14  C5  APR d          14.614  40.830 -11.625  0.00  0.00     0.149 A 
ATOM     15  C2  APR d          15.364  41.245  -8.987  0.00  0.00     0.237 A 
ATOM     16  N1  APR d          15.207  39.984  -9.425  0.00  0.00    -0.222 NA
ATOM     17  C6  APR d          14.849  39.698 -10.701  0.00  0.00     0.155 A 
ATOM     18  N6  APR d          14.702  38.415 -11.111  0.00  0.00    -0.382 N 
ATOM     19  H2  APR d          14.430  38.213 -12.084  0.00  0.00     0.157 HD
ATOM     20  H3  APR d          14.863  37.642 -10.450  0.00  0.00     0.157 HD
ATOM     21  N7  APR d          14.243  40.988 -12.910  0.00  0.00    -0.236 NA
ATOM     22  C8  APR d          14.212  42.326 -13.160  0.00  0.00     0.214 A 
ENDBRANCH   5  11
ENDBRANCH   1   2
BRANCH   1  23
ATOM     23  O5' APR d          11.322  45.552 -13.461  0.00  0.00    -0.287 OA
BRANCH  23  24
ATOM     24  PA  APR d          10.189  44.634 -14.119  0.00  0.00     0.417 P 
ATOM     25  O1A APR d          10.225  43.280 -13.452  0.00  0.00    -0.624 OA
ATOM     26  O2A APR d          10.303  44.718 -15.614  0.00  0.00    -0.624 OA
BRANCH  24  27
ATOM     27  O3A APR d           8.766  45.266 -13.657  0.00  0.00    -0.180 OA
BRANCH  27  28
ATOM     28  PB  APR d           7.937  46.511 -14.284  0.00  0.00     0.417 P 
ATOM     29  O1B APR d           6.911  46.839 -13.192  0.00  0.00    -0.624 OA
ATOM     30  O2B APR d           8.915  47.549 -14.753  0.00  0.00    -0.624 OA
BRANCH  28  31
ATOM     31  O5D APR d           7.129  45.859 -15.490  0.00  0.00    -0.287 OA
BRANCH  31  32
ATOM     32  C5D APR d           6.189  44.818 -15.236  0.00  0.00     0.216 C 
BRANCH  32  33
ATOM     33  C4D APR d           5.977  44.088 -16.550  0.00  0.00     0.180 C 
ATOM     34  O4D APR d           7.162  43.343 -16.841  0.00  0.00    -0.349 OA
ATOM     35  C1D APR d           6.712  42.025 -17.199  0.00  0.00     0.288 C 
ATOM     36  C2D APR d           5.540  41.771 -16.270  0.00  0.00     0.204 C 
ATOM     37  C3D APR d           4.841  43.087 -16.510  0.00  0.00     0.182 C 
BRANCH  35  38
ATOM     38  O1D APR d           7.782  41.123 -17.033  0.00  0.00    -0.369 OA
ATOM     39  H15 APR d           8.503  41.382 -17.594  0.00  0.00     0.212 HD
ENDBRANCH  35  38
BRANCH  36  40
ATOM     40  O2D APR d           4.636  40.715 -16.635  0.00  0.00    -0.388 OA
ATOM     41  H17 APR d           4.254  40.906 -17.483  0.00  0.00     0.210 HD
ENDBRANCH  36  40
BRANCH  37  42
ATOM     42  O3D APR d           4.234  43.003 -17.815  0.00  0.00    -0.390 OA
ATOM     43  H19 APR d           3.614  42.283 -17.829  0.00  0.00     0.210 HD
ENDBRANCH  37  42
ENDBRANCH  32  33
ENDBRANCH  31  32
ENDBRANCH  28  31
ENDBRANCH  27  28
ENDBRANCH  24  27
ENDBRANCH  23  24
ENDBRANCH   1  23
TORSDOF 14
