REMARK  8 active torsions:
REMARK  status: ('A' for Active; 'I' for Inactive)
REMARK    1  A    between atoms: C5_5  and  N6_6 
REMARK    2  A    between atoms: N6_6  and  C7_7 
REMARK    3  A    between atoms: C15_15  and  C16_16 
REMARK    4  A    between atoms: C20_19  and  C22_21 
REMARK       I    between atoms: C22_21  and  N24_23 
REMARK    5  A    between atoms: N24_23  and  C25_24 
REMARK    6  A    between atoms: C25_24  and  C27_25 
REMARK    7  A    between atoms: C25_24  and  C29_27 
REMARK    8  A    between atoms: C27_25  and  O28_26 
ROOT
ATOM      1  C16 E86 d           7.412  -2.531  44.930  0.00  0.00     0.012 A 
ATOM      2  C17 E86 d           7.637  -3.000  43.649  0.00  0.00     0.102 A 
ATOM      3  N18 E86 d           8.933  -3.375  43.551  0.00  0.00    -0.361 N 
ATOM      4  C20 E86 d           9.556  -3.165  44.757  0.00  0.00     0.101 A 
ATOM      5  C21 E86 d           8.642  -2.620  45.626  0.00  0.00     0.050 A 
ATOM      6  H11 E86 d           9.381  -3.757  42.706  0.00  0.00     0.165 HD
ENDROOT
BRANCH   1   7
ATOM      7  C15 E86 d           6.107  -1.994  45.390  0.00  0.00     0.095 A 
ATOM      8  C2  E86 d           5.931  -1.133  46.494  0.00  0.00    -0.013 A 
ATOM      9  C1  E86 d           7.041  -0.692  47.413  0.00  0.00     0.052 C 
ATOM     10  C3  E86 d           4.651  -0.673  46.769  0.00  0.00     0.145 A 
ATOM     11  N4  E86 d           3.633  -1.039  45.997  0.00  0.00    -0.074 NA
ATOM     12  C5  E86 d           3.831  -1.833  44.962  0.00  0.00     0.727 A 
ATOM     13  N14 E86 d           5.032  -2.285  44.657  0.00  0.00    -0.061 NA
BRANCH  12  14
ATOM     14  N6  E86 d           2.754  -2.164  44.174  0.00  0.00    -0.186 N 
ATOM     15  H5  E86 d           1.822  -1.831  44.460  0.00  0.00     0.184 HD
BRANCH  14  16
ATOM     16  C7  E86 d           2.852  -2.931  43.000  0.00  0.00     0.071 A 
ATOM     17  C8  E86 d           3.877  -2.750  42.066  0.00  0.00     0.032 A 
ATOM     18  C9  E86 d           3.914  -3.534  40.926  0.00  0.00     0.002 A 
ATOM     19  C10 E86 d           2.926  -4.489  40.692  0.00  0.00     0.002 A 
ATOM     20  C11 E86 d           1.895  -4.661  41.603  0.00  0.00     0.026 A 
ATOM     21  C12 E86 d           1.862  -3.881  42.751  0.00  0.00     0.061 A 
ATOM     22 CL13 E86 d           0.596  -4.079  43.912  0.00  0.00    -0.082 Cl
ENDBRANCH  14  16
ENDBRANCH  12  14
ENDBRANCH   1   7
BRANCH   4  23
ATOM     23  C22 E86 d          10.969  -3.454  44.992  0.00  0.00     0.268 C 
ATOM     24  O23 E86 d          11.600  -2.765  45.783  0.00  0.00    -0.266 OA
ATOM     25  N24 E86 d          11.567  -4.447  44.296  0.00  0.00    -0.345 N 
ATOM     26  H13 E86 d          11.020  -4.995  43.663  0.00  0.00     0.163 HD
BRANCH  25  27
ATOM     27  C25 E86 d          13.006  -4.745  44.446  0.00  0.00     0.141 C 
BRANCH  27  28
ATOM     28  C27 E86 d          13.520  -5.155  43.060  0.00  0.00     0.194 C 
BRANCH  28  29
ATOM     29  O28 E86 d          13.010  -4.279  42.045  0.00  0.00    -0.399 OA
ATOM     30  H17 E86 d          13.341  -4.552  41.197  0.00  0.00     0.209 HD
ENDBRANCH  28  29
ENDBRANCH  27  28
BRANCH  27  31
ATOM     31  C29 E86 d          13.330  -5.853  45.423  0.00  0.00    -0.033 A 
ATOM     32  C30 E86 d          12.325  -6.620  45.994  0.00  0.00     0.009 A 
ATOM     33  C31 E86 d          12.655  -7.621  46.890  0.00  0.00     0.001 A 
ATOM     34  C32 E86 d          13.984  -7.865  47.203  0.00  0.00     0.000 A 
ATOM     35  C33 E86 d          14.999  -7.112  46.632  0.00  0.00     0.001 A 
ATOM     36  C34 E86 d          14.662  -6.101  45.744  0.00  0.00     0.009 A 
ENDBRANCH  27  31
ENDBRANCH  25  27
ENDBRANCH   4  23
TORSDOF 8
