REMARK  11 active torsions:
REMARK  status: ('A' for Active; 'I' for Inactive)
REMARK    1  A    between atoms: O3B_2  and  PG_1 
REMARK    2  A    between atoms: PG_1  and  S1G_3 
REMARK    3  A    between atoms: PB_6  and  O3B_2 
REMARK    4  A    between atoms: O3A_12  and  PB_6 
REMARK    5  A    between atoms: PA_9  and  O3A_12 
REMARK    6  A    between atoms: PA_9  and  O5_13 
REMARK    7  A    between atoms: O5_13  and  C5_14 
REMARK    8  A    between atoms: C5_14  and  C4_15 
REMARK    9  A    between atoms: C3_17  and  O3_18 
REMARK   10  A    between atoms: C2_19  and  O2_20 
REMARK   11  A    between atoms: C1_21  and  N9_22 
ROOT
ATOM      1  C4  GSP d          -5.654  19.359 -31.576  0.00  0.00     0.180 C 
ATOM      2  O4  GSP d          -4.438  19.010 -32.208  0.00  0.00    -0.353 OA
ATOM      3  C3  GSP d          -6.748  18.971 -32.561  0.00  0.00     0.182 C 
ATOM      4  C2  GSP d          -6.092  17.960 -33.480  0.00  0.00     0.198 C 
ATOM      5  C1  GSP d          -4.671  18.474 -33.506  0.00  0.00     0.262 C 
ENDROOT
BRANCH   1   6
ATOM      6  C5  GSP d          -5.770  18.664 -30.223  0.00  0.00     0.216 C 
BRANCH   6   7
ATOM      7  O5  GSP d          -5.968  17.277 -30.422  0.00  0.00    -0.287 OA
BRANCH   7   8
ATOM      8  PA  GSP d          -6.711  16.380 -29.324  0.00  0.00     0.417 P 
ATOM      9  O1A GSP d          -6.733  14.974 -29.792  0.00  0.00    -0.624 OA
ATOM     10  O2A GSP d          -8.064  16.882 -28.980  0.00  0.00    -0.624 OA
BRANCH   8  11
ATOM     11  O3A GSP d          -5.717  16.584 -28.077  0.00  0.00    -0.180 OA
BRANCH  11  12
ATOM     12  PB  GSP d          -5.968  16.076 -26.576  0.00  0.00     0.426 P 
ATOM     13  O1B GSP d          -4.635  15.770 -26.022  0.00  0.00    -0.624 OA
ATOM     14  O2B GSP d          -6.880  14.911 -26.508  0.00  0.00    -0.624 OA
BRANCH  12  15
ATOM     15  O3B GSP d          -6.581  17.394 -25.874  0.00  0.00    -0.195 OA
BRANCH  15  16
ATOM     16  PG  GSP d          -7.362  17.442 -24.469  0.00  0.00     0.322 P 
ATOM     17  O2G GSP d          -8.317  18.655 -24.517  0.00  0.00    -0.638 OA
ATOM     18  O3G GSP d          -8.138  16.135 -24.240  0.00  0.00    -0.638 OA
BRANCH  16  19
ATOM     19  S1G GSP d          -6.264  17.669 -23.178  0.00  0.00    -0.054 SA
ATOM     20  H1  GSP d          -6.772  17.696 -22.308  0.00  0.00     0.114 HD
ENDBRANCH  16  19
ENDBRANCH  15  16
ENDBRANCH  12  15
ENDBRANCH  11  12
ENDBRANCH   8  11
ENDBRANCH   7   8
ENDBRANCH   6   7
ENDBRANCH   1   6
BRANCH   3  21
ATOM     21  O3  GSP d          -7.043  20.157 -33.265  0.00  0.00    -0.390 OA
ATOM     22  H6  GSP d          -7.725  19.984 -33.903  0.00  0.00     0.210 HD
ENDBRANCH   3  21
BRANCH   5  23
ATOM     23  N9  GSP d          -3.610  17.483 -33.731  0.00  0.00    -0.293 N 
ATOM     24  C8  GSP d          -3.342  16.361 -32.984  0.00  0.00     0.214 A 
ATOM     25  N7  GSP d          -2.241  15.773 -33.505  0.00  0.00    -0.234 NA
ATOM     26  C5  GSP d          -1.800  16.512 -34.552  0.00  0.00     0.173 A 
ATOM     27  C6  GSP d          -0.723  16.375 -35.424  0.00  0.00     0.292 A 
ATOM     28  C4  GSP d          -2.649  17.601 -34.699  0.00  0.00     0.186 A 
ATOM     29  O6  GSP d           0.042  15.422 -35.308  0.00  0.00    -0.265 OA
ATOM     30  N1  GSP d          -0.518  17.316 -36.416  0.00  0.00    -0.152 N 
ATOM     31  C2  GSP d          -1.379  18.390 -36.543  0.00  0.00     0.703 A 
ATOM     32  H11 GSP d           0.255  17.219 -37.043  0.00  0.00     0.187 HD
ATOM     33  N2  GSP d          -1.185  19.295 -37.494  0.00  0.00    -0.233 N 
ATOM     34  N3  GSP d          -2.445  18.525 -35.683  0.00  0.00    -0.044 NA
ATOM     35  H12 GSP d          -1.829  20.093 -37.584  0.00  0.00     0.174 HD
ATOM     36  H13 GSP d          -0.390  19.199 -38.142  0.00  0.00     0.174 HD
ENDBRANCH   5  23
BRANCH   4  37
ATOM     37  O2  GSP d          -6.630  17.966 -34.776  0.00  0.00    -0.388 OA
ATOM     38  H8  GSP d          -6.513  18.826 -35.162  0.00  0.00     0.210 HD
ENDBRANCH   4  37
TORSDOF 11
