REMARK  8 active torsions:
REMARK  status: ('A' for Active; 'I' for Inactive)
REMARK    1  A    between atoms: C6_4  and  N1_1 
REMARK    2  A    between atoms: C7_5  and  C8_6 
REMARK    3  A    between atoms: C3_12  and  C7_5 
REMARK    4  A    between atoms: C8_6  and  C12_9 
REMARK    5  A    between atoms: C8_6  and  N2_11 
REMARK    6  A    between atoms: C9_18  and  C10_7 
REMARK    7  A    between atoms: C10_7  and  C11_19 
REMARK    8  A    between atoms: C2_17  and  C9_18 
ROOT
ATOM      1  C4  TZG d           0.381  33.409 103.270  0.00  0.00     0.034 A 
ATOM      2  C5  TZG d           1.716  33.716 103.061  0.00  0.00     0.067 A 
ATOM      3  C6  TZG d           2.038  34.803 102.258  0.00  0.00     0.125 A 
ATOM      4  C3  TZG d          -0.627  34.178 102.699  0.00  0.00    -0.048 A 
ATOM      5 CL1  TZG d           2.931  32.731 103.812  0.00  0.00    -0.082 Cl
ATOM      6  C1  TZG d           1.033  35.563 101.685  0.00  0.00     0.045 A 
ATOM      7  C2  TZG d          -0.307  35.271 101.900  0.00  0.00    -0.049 A 
ENDROOT
BRANCH   4   8
ATOM      8  C7  TZG d          -2.059  33.768 102.998  0.00  0.00     0.083 C 
BRANCH   8   9
ATOM      9  C8  TZG d          -2.613  34.633 104.157  0.00  0.00     0.287 C 
BRANCH   9  10
ATOM     10  C12 TZG d          -4.064  34.236 104.372  0.00  0.00     0.204 C 
ATOM     11  O4  TZG d          -4.896  34.636 103.529  0.00  0.00    -0.646 OA
ATOM     12  O5  TZG d          -4.290  33.493 105.344  0.00  0.00    -0.646 OA
ENDBRANCH   9  10
BRANCH   9  13
ATOM     13  N2  TZG d          -1.873  34.330 105.387  0.00  0.00    -0.065 N 
ATOM     14  H7  TZG d          -2.232  34.892 106.142  0.00  0.00     0.275 HD
ATOM     15  H8  TZG d          -0.896  34.536 105.251  0.00  0.00     0.275 HD
ATOM     16  H9  TZG d          -1.982  33.354 105.613  0.00  0.00     0.275 HD
ENDBRANCH   9  13
ENDBRANCH   8   9
ENDBRANCH   4   8
BRANCH   7  17
ATOM     17  C9  TZG d          -1.360  36.158 101.208  0.00  0.00     0.049 C 
BRANCH  17  18
ATOM     18  C10 TZG d          -1.005  37.650 101.196  0.00  0.00     0.117 C 
BRANCH  18  19
ATOM     19  C11 TZG d          -1.351  38.294 102.546  0.00  0.00     0.172 C 
ATOM     20  O7  TZG d          -2.475  38.050 103.029  0.00  0.00    -0.648 OA
ATOM     21  O6  TZG d          -0.485  39.023 103.062  0.00  0.00    -0.648 OA
ENDBRANCH  18  19
ENDBRANCH  17  18
ENDBRANCH   7  17
BRANCH   3  22
ATOM     22  N1  TZG d           3.302  35.161 102.011  0.00  0.00    -0.114 N 
ATOM     23  O1  TZG d           3.594  36.522 101.725  0.00  0.00    -0.532 OA
ATOM     24  O2  TZG d           4.342  34.213 101.989  0.00  0.00    -0.532 OA
ENDBRANCH   3  22
TORSDOF 8
