REMARK  26 active torsions:
REMARK  status: ('A' for Active; 'I' for Inactive)
REMARK    1  A    between atoms: C2_4  and  C1_1 
REMARK    2  A    between atoms: C2_4  and  O2_16 
REMARK    3  A    between atoms: O4_7  and  C4_6 
REMARK    4  A    between atoms: C2_23  and  O4_7 
REMARK    5  A    between atoms: C5_8  and  O5_9 
REMARK    6  A    between atoms: C6_10  and  C7_12 
REMARK    7  A    between atoms: C7_12  and  O7_13 
REMARK    8  A    between atoms: C7_12  and  C8_14 
REMARK    9  A    between atoms: C8_14  and  O8_15 
REMARK   10  A    between atoms: O2_16  and  C9_17 
REMARK   11  A    between atoms: C9_17  and  C10_18 
REMARK   12  A    between atoms: C2_23  and  C1_20 
REMARK   13  A    between atoms: C4_25  and  O4_26 
REMARK   14  A    between atoms: C5_27  and  O5_28 
REMARK   15  A    between atoms: C7_31  and  C6_29 
REMARK   16  A    between atoms: C7_31  and  O7_32 
REMARK   17  A    between atoms: C8_33  and  C7_31 
REMARK   18  A    between atoms: O8_34  and  C8_33 
REMARK   19  A    between atoms: C2_38  and  O8_34 
REMARK   20  A    between atoms: C1_35  and  C2_38 
REMARK   21  A    between atoms: C4_40  and  O4_41 
REMARK   22  A    between atoms: C5_42  and  O5_43 
REMARK   23  A    between atoms: C6_44  and  C7_46 
REMARK   24  A    between atoms: C7_46  and  O7_47 
REMARK   25  A    between atoms: C7_46  and  C8_48 
REMARK   26  A    between atoms: C8_48  and  O8_49 
ROOT
ATOM      1  C2  KDA d          -4.140  41.148 -19.254  0.00  0.00     0.259 C 
ATOM      2  C3  KDA d          -5.311  40.304 -18.715  0.00  0.00     0.115 C 
ATOM      3  C4  KDA d          -4.923  39.510 -17.454  0.00  0.00     0.155 C 
ATOM      4  C5  KDA d          -3.679  38.678 -17.701  0.00  0.00     0.178 C 
ATOM      5  C6  KDA d          -2.555  39.624 -18.209  0.00  0.00     0.187 C 
ATOM      6  O6  KDA d          -2.949  40.278 -19.426  0.00  0.00    -0.336 OA
ENDROOT
BRANCH   1   7
ATOM      7  O4  KDA d          -3.893  42.238 -18.357  0.00  0.00    -0.338 OA
BRANCH   7   8
ATOM      8  C4  KDA d          -2.931  43.249 -18.816  0.00  0.00     0.162 C 
ATOM      9  C3  KDA d          -1.720  43.299 -17.907  0.00  0.00     0.115 C 
ATOM     10  C2  KDA d          -0.763  44.440 -18.322  0.00  0.00     0.259 C 
ATOM     11  O6  KDA d          -1.463  45.677 -18.460  0.00  0.00    -0.336 OA
ATOM     12  C6  KDA d          -2.578  45.646 -19.362  0.00  0.00     0.187 C 
ATOM     13  C5  KDA d          -3.587  44.603 -18.825  0.00  0.00     0.179 C 
BRANCH  10  14
ATOM     14  C1  KDA d           0.316  44.590 -17.211  0.00  0.00     0.239 C 
ATOM     15  O1A KDA d           0.227  45.579 -16.439  0.00  0.00    -0.644 OA
ATOM     16  O1B KDA d           1.168  43.674 -17.119  0.00  0.00    -0.644 OA
ENDBRANCH  10  14
BRANCH  10  17
ATOM     17  O2  KDA d          -0.182  44.084 -19.578  0.00  0.00    -0.343 OA
BRANCH  17  18
ATOM     18  C9  KDA d           0.674  45.069 -20.176  0.00  0.00     0.198 C 
BRANCH  18  19
ATOM     19  C10 KDA d           2.124  44.713 -19.874  0.00  0.00    -0.011 C 
ATOM     20  C11 KDA d           2.943  45.647 -19.402  0.00  0.00     0.009 C 
ENDBRANCH  18  19
ENDBRANCH  17  18
ENDBRANCH  10  17
BRANCH  12  21
ATOM     21  C7  KDA d          -3.218  47.045 -19.400  0.00  0.00     0.173 C 
BRANCH  21  22
ATOM     22  O7  KDA d          -4.306  47.068 -20.341  0.00  0.00    -0.391 OA
ATOM     23  H   KDA d          -4.692  47.936 -20.355  0.00  0.00     0.210 HD
ENDBRANCH  21  22
BRANCH  21  24
ATOM     24  C8  KDA d          -2.183  48.095 -19.797  0.00  0.00     0.198 C 
BRANCH  24  25
ATOM     25  O8  KDA d          -2.905  49.346 -19.701  0.00  0.00    -0.398 OA
ATOM     26  H   KDA d          -3.646  49.329 -20.295  0.00  0.00     0.209 HD
ENDBRANCH  24  25
ENDBRANCH  21  24
ENDBRANCH  12  21
BRANCH  13  27
ATOM     27  O5  KDA d          -3.927  44.990 -17.494  0.00  0.00    -0.390 OA
ATOM     28  H   KDA d          -3.139  45.028 -16.965  0.00  0.00     0.210 HD
ENDBRANCH  13  27
ENDBRANCH   7   8
ENDBRANCH   1   7
BRANCH   1  29
ATOM     29  C1  KDA d          -4.559  41.705 -20.639  0.00  0.00     0.239 C 
ATOM     30  O1A KDA d          -5.446  42.594 -20.678  0.00  0.00    -0.644 OA
ATOM     31  O1B KDA d          -3.936  41.248 -21.615  0.00  0.00    -0.644 OA
ENDBRANCH   1  29
BRANCH   3  32
ATOM     32  O4  KDA d          -6.011  38.672 -17.013  0.00  0.00    -0.393 OA
ATOM     33  H   KDA d          -6.765  39.214 -16.812  0.00  0.00     0.210 HD
ENDBRANCH   3  32
BRANCH   5  34
ATOM     34  C7  KDA d          -1.233  38.927 -18.561  0.00  0.00     0.173 C 
BRANCH  34  35
ATOM     35  O7  KDA d          -1.333  38.281 -19.823  0.00  0.00    -0.391 OA
ATOM     36  H   KDA d          -1.531  38.925 -20.492  0.00  0.00     0.210 HD
ENDBRANCH  34  35
BRANCH  34  37
ATOM     37  C8  KDA d          -0.786  37.922 -17.531  0.00  0.00     0.206 C 
BRANCH  37  38
ATOM     38  O8  KDA d           0.616  37.746 -17.701  0.00  0.00    -0.344 OA
BRANCH  38  39
ATOM     39  C2  KDA d           1.092  36.448 -17.310  0.00  0.00     0.258 C 
ATOM     40  C3  KDA d           2.601  36.442 -17.401  0.00  0.00     0.115 C 
ATOM     41  C4  KDA d           3.043  36.570 -18.844  0.00  0.00     0.155 C 
ATOM     42  C5  KDA d           2.428  35.445 -19.680  0.00  0.00     0.178 C 
ATOM     43  C6  KDA d           0.926  35.524 -19.557  0.00  0.00     0.187 C 
ATOM     44  O6  KDA d           0.544  35.412 -18.156  0.00  0.00    -0.336 OA
BRANCH  39  45
ATOM     45  C1  KDA d           0.729  36.200 -15.828  0.00  0.00     0.239 C 
ATOM     46  O1A KDA d           1.045  37.099 -15.003  0.00  0.00    -0.644 OA
ATOM     47  O1B KDA d           0.201  35.097 -15.537  0.00  0.00    -0.644 OA
ENDBRANCH  39  45
BRANCH  41  48
ATOM     48  O4  KDA d           4.524  36.488 -18.896  0.00  0.00    -0.393 OA
ATOM     49  H   KDA d           4.813  36.567 -19.798  0.00  0.00     0.210 HD
ENDBRANCH  41  48
BRANCH  42  50
ATOM     50  O5  KDA d           2.948  34.204 -19.227  0.00  0.00    -0.390 OA
ATOM     51  H   KDA d           3.893  34.202 -19.328  0.00  0.00     0.210 HD
ENDBRANCH  42  50
BRANCH  43  52
ATOM     52  C7  KDA d           0.133  34.500 -20.438  0.00  0.00     0.173 C 
BRANCH  52  53
ATOM     53  O7  KDA d           0.870  34.073 -21.566  0.00  0.00    -0.391 OA
ATOM     54  H   KDA d           1.672  33.653 -21.278  0.00  0.00     0.210 HD
ENDBRANCH  52  53
BRANCH  52  55
ATOM     55  C8  KDA d          -1.057  35.193 -21.054  0.00  0.00     0.198 C 
BRANCH  55  56
ATOM     56  O8  KDA d          -1.990  35.244 -20.058  0.00  0.00    -0.398 OA
ATOM     57  H   KDA d          -2.203  34.361 -19.780  0.00  0.00     0.209 HD
ENDBRANCH  55  56
ENDBRANCH  52  55
ENDBRANCH  43  52
ENDBRANCH  38  39
ENDBRANCH  37  38
ENDBRANCH  34  37
ENDBRANCH   5  34
BRANCH   4  58
ATOM     58  O5  KDA d          -3.920  37.619 -18.631  0.00  0.00    -0.390 OA
ATOM     59  H   KDA d          -4.202  37.986 -19.461  0.00  0.00     0.210 HD
ENDBRANCH   4  58
TORSDOF 26
