REMARK  8 active torsions:
REMARK  status: ('A' for Active; 'I' for Inactive)
REMARK    1  A    between atoms: C3_4  and  O_1 
REMARK    2  A    between atoms: C7_7  and  C8_8 
REMARK    3  A    between atoms: C8_8  and  C9_9 
REMARK    4  A    between atoms: C17_18  and  C20_21 
REMARK    5  A    between atoms: C20_21  and  C22_23 
REMARK    6  A    between atoms: C22_23  and  C23_24 
REMARK    7  A    between atoms: C23_24  and  C24_25 
REMARK    8  A    between atoms: C24_25  and  C25_26 
ROOT
ATOM      1  C9  VD3 d          -4.677   2.637  19.889  0.00  0.00    -0.010 C 
ATOM      2  C10 VD3 d          -4.659   2.175  18.335  0.00  0.00     0.005 C 
ATOM      3  C11 VD3 d          -4.355   3.220  17.323  0.00  0.00     0.001 C 
ATOM      4  C12 VD3 d          -4.690   4.722  17.671  0.00  0.00     0.010 C 
ATOM      5  C13 VD3 d          -4.377   5.152  19.111  0.00  0.00    -0.036 C 
ATOM      6  C14 VD3 d          -3.762   3.974  19.960  0.00  0.00    -0.002 C 
ATOM      7  C15 VD3 d          -3.568   4.712  21.380  0.00  0.00     0.006 C 
ATOM      8  C16 VD3 d          -3.228   6.269  21.010  0.00  0.00     0.006 C 
ATOM      9  C17 VD3 d          -3.209   6.267  19.435  0.00  0.00    -0.002 C 
ATOM     10  C18 VD3 d          -5.817   5.636  19.623  0.00  0.00     0.016 C 
ENDROOT
BRANCH   1  11
ATOM     11  C8  VD3 d          -4.406   1.332  20.316  0.00  0.00     0.005 C 
BRANCH  11  12
ATOM     12  C7  VD3 d          -3.017   0.723  20.376  0.00  0.00     0.009 C 
ATOM     13  C5  VD3 d          -1.827   0.832  21.041  0.00  0.00     0.016 C 
ATOM     14  C4  VD3 d          -1.635   0.166  22.490  0.00  0.00     0.040 C 
ATOM     15  C6  VD3 d          -0.557   1.574  20.556  0.00  0.00    -0.085 C 
ATOM     16  C3  VD3 d          -0.832   1.015  23.511  0.00  0.00     0.119 C 
ATOM     17  C2  VD3 d           0.435   1.696  22.814  0.00  0.00     0.036 C 
ATOM     18  C1  VD3 d           0.710   1.328  21.403  0.00  0.00     0.036 C 
ATOM     19  C19 VD3 d          -0.515   2.331  19.534  0.00  0.00     0.014 C 
BRANCH  16  20
ATOM     20  O   VD3 d          -0.376   0.172  24.587  0.00  0.00    -0.396 OA
ATOM     21  H1  VD3 d          -1.124  -0.237  25.006  0.00  0.00     0.210 HD
ENDBRANCH  16  20
ENDBRANCH  11  12
ENDBRANCH   1  11
BRANCH   9  22
ATOM     22  C20 VD3 d          -3.562   7.722  18.724  0.00  0.00    -0.014 C 
ATOM     23  C21 VD3 d          -2.898   7.744  17.366  0.00  0.00     0.010 C 
BRANCH  22  24
ATOM     24  C22 VD3 d          -3.040   9.081  19.321  0.00  0.00     0.005 C 
BRANCH  24  25
ATOM     25  C23 VD3 d          -4.181  10.268  18.958  0.00  0.00     0.001 C 
BRANCH  25  26
ATOM     26  C24 VD3 d          -3.203  11.400  18.567  0.00  0.00     0.004 C 
BRANCH  26  27
ATOM     27  C25 VD3 d          -3.418  12.864  19.018  0.00  0.00    -0.023 C 
ATOM     28  C26 VD3 d          -2.179  12.860  19.703  0.00  0.00     0.009 C 
ATOM     29  C27 VD3 d          -3.082  14.105  18.363  0.00  0.00     0.009 C 
ENDBRANCH  26  27
ENDBRANCH  25  26
ENDBRANCH  24  25
ENDBRANCH  22  24
ENDBRANCH   9  22
TORSDOF 8
