REMARK  6 active torsions:
REMARK  status: ('A' for Active; 'I' for Inactive)
REMARK    1  A    between atoms: O2_2  and  C3_3 
REMARK    2  A    between atoms: C6_6  and  C11_11 
REMARK    3  A    between atoms: C8_8  and  O9_9 
REMARK    4  A    between atoms: C11_11  and  C12_12 
REMARK    5  A    between atoms: C12_12  and  C13_13 
REMARK    6  A    between atoms: C12_12  and  C16_16 
ROOT
ATOM      1  C3  MOL d          14.890 -13.803   7.711  0.00  0.00     0.101 A 
ATOM      2  C4  MOL d          15.669 -14.364   8.712  0.00  0.00     0.040 A 
ATOM      3  C5  MOL d          15.068 -14.880   9.870  0.00  0.00     0.010 A 
ATOM      4  C6  MOL d          13.688 -14.822  10.030  0.00  0.00    -0.054 A 
ATOM      5  C7  MOL d          12.917 -14.275   9.014  0.00  0.00     0.046 A 
ATOM      6  C8  MOL d          13.494 -13.757   7.872  0.00  0.00     0.102 A 
ENDROOT
BRANCH   4   7
ATOM      7  C11 MOL d          13.008 -15.402  11.226  0.00  0.00     0.065 C 
BRANCH   7   8
ATOM      8  C12 MOL d          12.320 -16.745  10.932  0.00  0.00     0.191 C 
BRANCH   8   9
ATOM      9  C13 MOL d          13.341 -17.807  10.610  0.00  0.00     0.188 C 
ATOM     10  O14 MOL d          14.399 -17.852  11.169  0.00  0.00    -0.647 OA
ATOM     11  O15 MOL d          12.961 -18.680   9.696  0.00  0.00    -0.647 OA
ENDBRANCH   8   9
BRANCH   8  12
ATOM     12  C16 MOL d          11.481 -17.202  12.095  0.00  0.00     0.188 C 
ATOM     13  O17 MOL d          11.812 -18.168  12.768  0.00  0.00    -0.647 OA
ATOM     14  O18 MOL d          10.397 -16.444  12.327  0.00  0.00    -0.647 OA
ENDBRANCH   8  12
ENDBRANCH   7   8
ENDBRANCH   4   7
BRANCH   6  15
ATOM     15  O9  MOL d          12.793 -13.190   6.852  0.00  0.00    -0.353 OA
ATOM     16  C10 MOL d          11.466 -12.683   7.147  0.00  0.00     0.210 C 
ENDBRANCH   6  15
BRANCH   1  17
ATOM     17  O2  MOL d          15.378 -13.287   6.540  0.00  0.00    -0.353 OA
ATOM     18  C1  MOL d          16.331 -12.235   6.625  0.00  0.00     0.210 C 
ENDBRANCH   1  17
TORSDOF 6
