REMARK  3 active torsions:
REMARK  status: ('A' for Active; 'I' for Inactive)
REMARK    1  A    between atoms: C8_8  and  C9_9 
REMARK    2  A    between atoms: C9_9  and  O10_10 
REMARK    3  A    between atoms: O10_10  and  C11_11 
ROOT
ATOM      1  C9  MOL d           3.001  16.145  39.956  0.00  0.00     0.234 C 
ENDROOT
BRANCH   1   2
ATOM      2  C8  MOL d           3.010  16.739  38.560  0.00  0.00     0.059 A 
ATOM      3  C7  MOL d           2.415  16.071  37.489  0.00  0.00     0.030 A 
ATOM      4  C6  MOL d           2.432  16.647  36.219  0.00  0.00     0.016 A 
ATOM      5  C5  MOL d           3.041  17.886  36.032  0.00  0.00    -0.007 A 
ATOM      6  C4  MOL d           3.079  18.481  34.775  0.00  0.00     0.014 A 
ATOM      7  C22 MOL d           3.631  18.522  37.123  0.00  0.00     0.067 A 
ATOM      8  C3  MOL d           3.714  19.715  34.613  0.00  0.00     0.001 A 
ATOM      9  C2  MOL d           4.304  20.358  35.701  0.00  0.00     0.002 A 
ATOM     10  C1  MOL d           4.269  19.759  36.956  0.00  0.00     0.032 A 
ATOM     11  N21 MOL d           3.598  17.932  38.344  0.00  0.00    -0.251 NA
ENDBRANCH   1   2
BRANCH   1  12
ATOM     12  O10 MOL d           3.005  14.689  39.941  0.00  0.00    -0.345 OA
BRANCH  12  13
ATOM     13  C11 MOL d           3.469  13.860  40.881  0.00  0.00     0.071 A 
ATOM     14  C12 MOL d           3.513  14.221  42.226  0.00  0.00     0.069 A 
ATOM     15  C13 MOL d           3.997  13.343  43.200  0.00  0.00     0.069 A 
ATOM     16  N14 MOL d           4.038  13.721  44.506  0.00  0.00    -0.260 NA
ATOM     17  C18 MOL d           4.445  12.081  42.828  0.00  0.00    -0.007 A 
ATOM     18  C15 MOL d           4.506  12.873  45.463  0.00  0.00     0.117 A 
ATOM     19  C16 MOL d           4.960  11.606  45.104  0.00  0.00     0.020 A 
ATOM     20  C17 MOL d           4.927  11.202  43.783  0.00  0.00     0.015 A 
ATOM     21  C19 MOL d           4.403  11.717  41.484  0.00  0.00     0.016 A 
ATOM     22  C20 MOL d           3.915  12.601  40.529  0.00  0.00     0.038 A 
ENDBRANCH  12  13
ENDBRANCH   1  12
TORSDOF 3
