REMARK  9 active torsions:
REMARK  status: ('A' for Active; 'I' for Inactive)
REMARK    1  A    between atoms: OA5_1  and  CE1_2 
REMARK    2  A    between atoms: CE1_2  and  CE2_3 
REMARK    3  A    between atoms: CE2_3  and  CE3_4 
REMARK    4  A    between atoms: CE3_4  and  CE4_5 
REMARK    5  A    between atoms: CE4_5  and  CE5_6 
REMARK    6  A    between atoms: CE5_6  and  CE6_7 
REMARK    7  A    between atoms: CE6_7  and  S1_8 
REMARK    8  A    between atoms: S1_8  and  CF4_9 
REMARK    9  A    between atoms: CF7_17  and  NA4_18 
ROOT
ATOM      1  CF4 N11 d           7.696   1.890  27.703  0.00  0.00     0.034 A 
ATOM      2  CL  N11 d           6.556   2.666  27.126  0.00  0.00     0.136 A 
ATOM      3  NA3 N11 d           5.258   2.815  27.483  0.00  0.00    -0.101 NA
ATOM      4  OA2 N11 d           4.719   3.706  26.502  0.00  0.00    -0.106 OA
ATOM      5  NA1 N11 d           5.677   4.120  25.527  0.00  0.00    -0.100 NA
ATOM      6  CI  N11 d           6.815   3.489  25.903  0.00  0.00     0.151 A 
ATOM      7  CF5 N11 d           8.947   1.938  27.091  0.00  0.00     0.023 A 
ATOM      8  CF6 N11 d           9.177   2.695  25.939  0.00  0.00     0.040 A 
ATOM      9  CF7 N11 d           8.185   3.467  25.327  0.00  0.00     0.136 A 
ENDROOT
BRANCH   1  10
ATOM     10  S1  N11 d           7.506   0.937  29.096  0.00  0.00    -0.127 SA
BRANCH  10  11
ATOM     11  CE6 N11 d           6.303   1.595  30.208  0.00  0.00     0.079 C 
BRANCH  11  12
ATOM     12  CE5 N11 d           6.565   3.072  30.485  0.00  0.00     0.010 C 
BRANCH  12  13
ATOM     13  CE4 N11 d           5.537   3.644  31.453  0.00  0.00     0.001 C 
BRANCH  13  14
ATOM     14  CE3 N11 d           4.551   4.552  30.729  0.00  0.00     0.002 C 
BRANCH  14  15
ATOM     15  CE2 N11 d           3.923   5.547  31.697  0.00  0.00     0.026 C 
BRANCH  15  16
ATOM     16  CE1 N11 d           2.484   5.166  32.026  0.00  0.00     0.164 C 
BRANCH  16  17
ATOM     17  OA5 N11 d           1.918   6.158  32.891  0.00  0.00    -0.401 OA
ATOM     18  H1  N11 d           1.021   5.922  33.097  0.00  0.00     0.209 HD
ENDBRANCH  16  17
ENDBRANCH  15  16
ENDBRANCH  14  15
ENDBRANCH  13  14
ENDBRANCH  12  13
ENDBRANCH  11  12
ENDBRANCH  10  11
ENDBRANCH   1  10
BRANCH   9  19
ATOM     19  NA4 N11 d           8.467   4.228  24.182  0.00  0.00    -0.113 N 
ATOM     20  OA4 N11 d           7.485   5.059  23.639  0.00  0.00    -0.532 OA
ATOM     21  OA3 N11 d           9.730   4.172  23.595  0.00  0.00    -0.532 OA
ENDBRANCH   9  19
TORSDOF 9
