REMARK  1 active torsions:
REMARK  status: ('A' for Active; 'I' for Inactive)
REMARK    1  A    between atoms: O1_1  and  C1_2 
ROOT
ATOM      1  C1  1NP d          19.227   8.028  -2.133  0.00  0.00     0.076 A 
ATOM      2  C8A 1NP d          20.293   7.351  -2.693  0.00  0.00     0.007 A 
ATOM      3  C8  1NP d          21.282   8.090  -3.337  0.00  0.00     0.015 A 
ATOM      4  C7  1NP d          22.358   7.425  -3.906  0.00  0.00     0.001 A 
ATOM      5  C2  1NP d          18.215   7.328  -1.488  0.00  0.00     0.037 A 
ATOM      6  C3  1NP d          18.292   5.944  -1.413  0.00  0.00     0.004 A 
ATOM      7  C4  1NP d          19.354   5.255  -1.974  0.00  0.00     0.012 A 
ATOM      8  C4A 1NP d          20.366   5.968  -2.622  0.00  0.00    -0.023 A 
ATOM      9  C5  1NP d          21.446   5.303  -3.196  0.00  0.00     0.012 A 
ATOM     10  C6  1NP d          22.440   6.041  -3.834  0.00  0.00     0.001 A 
ENDROOT
BRANCH   1  11
ATOM     11  O1  1NP d          19.183   9.379  -2.230  0.00  0.00    -0.360 OA
ATOM     12  H1  1NP d          18.398   9.701  -1.802  0.00  0.00     0.217 HD
ENDBRANCH   1  11
TORSDOF 1
