REMARK  11 active torsions:
REMARK  status: ('A' for Active; 'I' for Inactive)
REMARK    1  A    between atoms: PG_1  and  N3B_5 
REMARK    2  A    between atoms: N3B_5  and  PB_6 
REMARK    3  A    between atoms: PB_6  and  O3A_9 
REMARK    4  A    between atoms: O3A_9  and  PA_10 
REMARK    5  A    between atoms: PA_10  and  O5'_13 
REMARK    6  A    between atoms: O5'_13  and  C5'_14 
REMARK    7  A    between atoms: C5'_14  and  C4'_15 
REMARK    8  A    between atoms: C3'_17  and  O3'_18 
REMARK    9  A    between atoms: C2'_19  and  O2'_20 
REMARK   10  A    between atoms: C1'_21  and  N9_22 
REMARK   11  A    between atoms: C2_29  and  N2_30 
ROOT
ATOM      1  C4' GNP d          26.823   2.609 -50.569  0.00  0.00     0.180 C 
ATOM      2  O4' GNP d          28.115   2.039 -50.252  0.00  0.00    -0.353 OA
ATOM      3  C3' GNP d          27.035   3.415 -51.852  0.00  0.00     0.182 C 
ATOM      4  C2' GNP d          28.379   2.898 -52.371  0.00  0.00     0.198 C 
ATOM      5  C1' GNP d          29.113   2.653 -51.063  0.00  0.00     0.262 C 
ENDROOT
BRANCH   1   6
ATOM      6  C5' GNP d          25.761   1.515 -50.601  0.00  0.00     0.216 C 
BRANCH   6   7
ATOM      7  O5' GNP d          25.922   0.667 -51.728  0.00  0.00    -0.287 OA
BRANCH   7   8
ATOM      8  PA  GNP d          25.065  -0.656 -51.865  0.00  0.00     0.417 P 
ATOM      9  O1A GNP d          25.766  -1.542 -52.835  0.00  0.00    -0.624 OA
ATOM     10  O2A GNP d          23.707  -0.193 -52.275  0.00  0.00    -0.624 OA
BRANCH   8  11
ATOM     11  O3A GNP d          25.033  -1.376 -50.495  0.00  0.00    -0.186 OA
BRANCH  11  12
ATOM     12  PB  GNP d          24.030  -2.489 -50.074  0.00  0.00     0.379 P 
ATOM     13  O1B GNP d          23.507  -3.137 -51.293  0.00  0.00    -0.629 OA
ATOM     14  O2B GNP d          24.748  -3.364 -49.112  0.00  0.00    -0.629 OA
BRANCH  12  15
ATOM     15  N3B GNP d          22.805  -1.756 -49.355  0.00  0.00    -0.218 N 
ATOM     16  H1  GNP d          22.939  -0.807 -49.071  0.00  0.00     0.179 HD
BRANCH  15  17
ATOM     17  PG  GNP d          21.379  -2.422 -49.053  0.00  0.00     0.381 P 
ATOM     18  O1G GNP d          20.921  -3.077 -50.338  0.00  0.00    -0.622 OA
ATOM     19  O2G GNP d          20.487  -1.336 -48.502  0.00  0.00    -0.622 OA
ATOM     20  O3G GNP d          21.591  -3.399 -47.921  0.00  0.00    -0.622 OA
ENDBRANCH  15  17
ENDBRANCH  12  15
ENDBRANCH  11  12
ENDBRANCH   8  11
ENDBRANCH   7   8
ENDBRANCH   6   7
ENDBRANCH   1   6
BRANCH   3  21
ATOM     21  O3' GNP d          27.114   4.815 -51.503  0.00  0.00    -0.390 OA
ATOM     22  H6  GNP d          27.246   5.330 -52.291  0.00  0.00     0.210 HD
ENDBRANCH   3  21
BRANCH   5  23
ATOM     23  N9  GNP d          30.194   1.670 -51.088  0.00  0.00    -0.295 N 
ATOM     24  C8  GNP d          30.352   0.634 -51.980  0.00  0.00     0.214 A 
ATOM     25  N7  GNP d          31.391  -0.109 -51.715  0.00  0.00    -0.234 NA
ATOM     26  C5  GNP d          31.957   0.449 -50.581  0.00  0.00     0.171 A 
ATOM     27  C6  GNP d          33.098   0.048 -49.843  0.00  0.00     0.292 A 
ATOM     28  C4  GNP d          31.223   1.543 -50.174  0.00  0.00     0.161 A 
ATOM     29  O6  GNP d          33.869  -0.912 -50.050  0.00  0.00    -0.265 OA
ATOM     30  N1  GNP d          33.316   0.891 -48.753  0.00  0.00    -0.154 N 
ATOM     31  C2  GNP d          32.523   1.968 -48.415  0.00  0.00     0.680 A 
ATOM     32  H11 GNP d          34.108   0.700 -48.172  0.00  0.00     0.187 HD
ATOM     33  N3  GNP d          31.451   2.345 -49.106  0.00  0.00    -0.174 N 
ATOM     34  H14 GNP d          30.862   3.153 -48.858  0.00  0.00     0.186 HD
BRANCH  31  35
ATOM     35  N2  GNP d          32.898   2.664 -47.318  0.00  0.00    -0.234 N 
ATOM     36  H12 GNP d          32.348   3.479 -47.012  0.00  0.00     0.174 HD
ATOM     37  H13 GNP d          33.734   2.379 -46.788  0.00  0.00     0.174 HD
ENDBRANCH  31  35
ENDBRANCH   5  23
BRANCH   4  38
ATOM     38  O2' GNP d          29.061   3.883 -53.122  0.00  0.00    -0.388 OA
ATOM     39  H8  GNP d          29.223   4.642 -52.574  0.00  0.00     0.210 HD
ENDBRANCH   4  38
TORSDOF 11
