REMARK  8 active torsions:
REMARK  status: ('A' for Active; 'I' for Inactive)
REMARK    1  A    between atoms: CBL_2  and  CBH_5 
REMARK    2  A    between atoms: CBE_10  and  CBI_11 
REMARK    3  A    between atoms: NBJ_12  and  CBF_13 
REMARK    4  A    between atoms: CBC_15  and  CAX_16 
REMARK    5  A    between atoms: CAZ_24  and  OAE_25 
REMARK    6  A    between atoms: CBB_26  and  CAY_27 
REMARK    7  A    between atoms: CAY_27  and  CBD_29 
REMARK    8  A    between atoms: CBG_31  and  CBK_32 
ROOT
ATOM      1  CBI MOL d           2.006  21.551   0.695  0.00  0.00     0.161 A 
ATOM      2  NBJ MOL d           1.201  20.745  -0.040  0.00  0.00    -0.310 N 
ATOM      3  CBA MOL d           1.712  19.508  -0.041  0.00  0.00     0.216 A 
ATOM      4  OAC MOL d           1.156  18.421  -0.674  0.00  0.00    -0.169 OA
ATOM      5  CAZ MOL d           2.888  19.503   0.686  0.00  0.00     0.128 A 
ATOM      6  CBB MOL d           3.107  20.805   1.140  0.00  0.00     0.031 A 
ENDROOT
BRANCH   6   7
ATOM      7  CAY MOL d           4.475  21.365   1.368  0.00  0.00     0.195 C 
ATOM      8  OAB MOL d           4.396  22.721   1.567  0.00  0.00    -0.214 OA
BRANCH   7   9
ATOM      9  CBD MOL d           5.170  20.751   2.541  0.00  0.00    -0.012 A 
ATOM     10  CAV MOL d           6.550  20.891   2.632  0.00  0.00     0.027 A 
ATOM     11  CBG MOL d           7.254  20.353   3.696  0.00  0.00     0.048 A 
ATOM     12  CAS MOL d           6.568  19.663   4.686  0.00  0.00     0.016 A 
ATOM     13  CAM MOL d           5.188  19.515   4.610  0.00  0.00     0.002 A 
ATOM     14  CAP MOL d           4.485  20.060   3.538  0.00  0.00     0.011 A 
BRANCH  11  15
ATOM     15  CBK MOL d           8.735  20.524   3.748  0.00  0.00     0.417 C 
ATOM     16  FAG MOL d           9.043  21.724   3.267  0.00  0.00    -0.166 F 
ATOM     17  FAH MOL d           9.176  20.410   4.998  0.00  0.00    -0.166 F 
ATOM     18  FAF MOL d           9.303  19.589   2.996  0.00  0.00    -0.166 F 
ENDBRANCH  11  15
ENDBRANCH   7   9
ENDBRANCH   6   7
BRANCH   1  19
ATOM     19  CBE MOL d           1.508  22.633   1.601  0.00  0.00    -0.030 A 
ATOM     20  CAW MOL d           0.851  22.271   2.764  0.00  0.00     0.025 A 
ATOM     21  CBH MOL d           0.394  23.235   3.645  0.00  0.00     0.048 A 
ATOM     22  CAT MOL d           0.607  24.578   3.362  0.00  0.00     0.016 A 
ATOM     23  CAN MOL d           1.278  24.954   2.205  0.00  0.00     0.001 A 
ATOM     24  CAQ MOL d           1.735  23.978   1.329  0.00  0.00     0.009 A 
BRANCH  21  25
ATOM     25  CBL MOL d          -0.336  22.811   4.880  0.00  0.00     0.417 C 
ATOM     26  FAI MOL d          -0.323  21.485   4.972  0.00  0.00    -0.166 F 
ATOM     27  FAJ MOL d           0.212  23.321   5.979  0.00  0.00    -0.166 F 
ATOM     28  FAK MOL d          -1.591  23.223   4.779  0.00  0.00    -0.166 F 
ENDBRANCH  21  25
ENDBRANCH   1  19
BRANCH   5  29
ATOM     29  OAE MOL d           3.711  18.419   0.898  0.00  0.00    -0.356 OA
ATOM     30  H10 MOL d           4.452  18.685   1.430  0.00  0.00     0.218 HD
ENDBRANCH   5  29
BRANCH   2  31
ATOM     31  CBF MOL d           0.191  21.108  -1.007  0.00  0.00     0.038 A 
ATOM     32  CAU MOL d          -1.053  20.494  -0.944  0.00  0.00     0.048 A 
ATOM     33  CBC MOL d          -2.045  20.793  -1.870  0.00  0.00     0.043 A 
ATOM     34  CAO MOL d          -1.788  21.716  -2.876  0.00  0.00     0.018 A 
ATOM     35  CAL MOL d          -0.545  22.329  -2.947  0.00  0.00     0.003 A 
ATOM     36  CAR MOL d           0.445  22.024  -2.019  0.00  0.00     0.030 A 
BRANCH  33  37
ATOM     37  CAX MOL d          -3.374  20.119  -1.771  0.00  0.00     0.209 C 
ATOM     38  OAD MOL d          -4.285  20.373  -2.605  0.00  0.00    -0.644 OA
ATOM     39  OAA MOL d          -3.585  19.288  -0.848  0.00  0.00    -0.644 OA
ENDBRANCH  33  37
ENDBRANCH   2  31
TORSDOF 8
