REMARK  16 active torsions:
REMARK  status: ('A' for Active; 'I' for Inactive)
REMARK    1  A    between atoms: CA_1  and  CB_2 
REMARK    2  A    between atoms: C_5  and  CA_1 
REMARK       I    between atoms: N_7  and  C_5 
REMARK    3  A    between atoms: CA_8  and  N_7 
REMARK    4  A    between atoms: CA_8  and  CB_11 
REMARK    5  A    between atoms: C_9  and  CA_8 
REMARK       I    between atoms: N_14  and  C_9 
REMARK    6  A    between atoms: CA_15  and  N_14 
REMARK    7  A    between atoms: CA_15  and  CB_18 
REMARK    8  A    between atoms: C_16  and  CA_15 
REMARK       I    between atoms: N_21  and  C_16 
REMARK    9  A    between atoms: CA_22  and  N_21 
REMARK   10  A    between atoms: CA_22  and  CB_23 
REMARK   11  A    between atoms: CH_27  and  CA_22 
REMARK   12  A    between atoms: CB_23  and  CG_24 
REMARK   13  A    between atoms: CH_27  and  OH_28 
REMARK   14  A    between atoms: CM_29  and  CH_27 
REMARK   15  A    between atoms: CH_27  and  OH1_32 
REMARK   16  A    between atoms: C_30  and  CM_29 
REMARK       I    between atoms: C_30  and  N_35 
ROOT
ATOM      1  C   MOL d          21.475   9.163  22.048  0.00  0.00     0.241 C 
ATOM      2  O   MOL d          22.028   8.527  22.938  0.00  0.00    -0.271 OA
ATOM      3  N   MOL d          22.006  10.066  21.212  0.00  0.00    -0.349 N 
ATOM      4  H28 MOL d          21.434  10.521  20.530  0.00  0.00     0.163 HD
ENDROOT
BRANCH   1   5
ATOM      5  CA  MOL d          19.971   8.840  21.849  0.00  0.00     0.180 C 
BRANCH   5   6
ATOM      6  N   MOL d          19.933   7.529  21.086  0.00  0.00    -0.346 N 
ATOM      7  C   MOL d          19.078   7.387  20.105  0.00  0.00     0.241 C 
ATOM      8  O   MOL d          18.236   8.186  19.666  0.00  0.00    -0.271 OA
ATOM      9  H19 MOL d          20.553   6.783  21.329  0.00  0.00     0.163 HD
BRANCH   7  10
ATOM     10  CA  MOL d          19.174   6.002  19.466  0.00  0.00     0.180 C 
BRANCH  10  11
ATOM     11  N   MOL d          18.000   5.703  18.594  0.00  0.00    -0.347 N 
ATOM     12  C   MOL d          17.130   4.803  18.966  0.00  0.00     0.218 C 
ATOM     13  O   MOL d          17.160   4.162  20.051  0.00  0.00    -0.274 OA
ATOM     14  H10 MOL d          17.880   6.190  17.729  0.00  0.00     0.163 HD
BRANCH  12  15
ATOM     15  CA  MOL d          16.019   4.553  17.934  0.00  0.00     0.106 C 
BRANCH  15  16
ATOM     16  CB  MOL d          14.799   3.916  18.582  0.00  0.00    -0.014 C 
ATOM     17  CG1 MOL d          14.321   4.918  19.641  0.00  0.00     0.010 C 
ATOM     18  CG2 MOL d          13.719   3.618  17.574  0.00  0.00     0.010 C 
ENDBRANCH  15  16
ENDBRANCH  12  15
ENDBRANCH  10  11
BRANCH  10  19
ATOM     19  CB  MOL d          20.405   5.871  18.545  0.00  0.00     0.009 C 
ATOM     20  CG2 MOL d          20.394   6.966  17.488  0.00  0.00     0.012 C 
ATOM     21  CG1 MOL d          20.514   4.498  17.872  0.00  0.00     0.012 C 
ENDBRANCH  10  19
ENDBRANCH   7  10
ENDBRANCH   5   6
BRANCH   5  22
ATOM     22  CB  MOL d          19.219   8.739  23.169  0.00  0.00     0.009 C 
ATOM     23  CG2 MOL d          17.809   8.240  23.119  0.00  0.00     0.012 C 
ATOM     24  CG1 MOL d          19.183  10.155  23.836  0.00  0.00     0.012 C 
ENDBRANCH   5  22
ENDBRANCH   1   5
BRANCH   3  25
ATOM     25  CA  MOL d          23.439  10.380  21.309  0.00  0.00     0.154 C 
BRANCH  25  26
ATOM     26  CB  MOL d          24.062   9.919  19.965  0.00  0.00     0.035 C 
BRANCH  26  27
ATOM     27  CG  MOL d          23.796   8.495  19.525  0.00  0.00    -0.021 C 
ATOM     28  CD1 MOL d          24.387   8.228  18.150  0.00  0.00     0.009 C 
ATOM     29  CD2 MOL d          24.446   7.454  20.483  0.00  0.00     0.009 C 
ENDBRANCH  26  27
ENDBRANCH  25  26
BRANCH  25  30
ATOM     30  CH  MOL d          23.638  11.888  21.511  0.00  0.00     0.258 C 
BRANCH  30  31
ATOM     31  OH  MOL d          22.891  12.611  20.476  0.00  0.00    -0.359 OA
ATOM     32  H39 MOL d          23.043  13.544  20.571  0.00  0.00     0.213 HD
ENDBRANCH  30  31
BRANCH  30  33
ATOM     33  CM  MOL d          23.228  12.482  22.893  0.00  0.00     0.379 C 
ATOM     34  F1  MOL d          22.075  11.982  23.242  0.00  0.00    -0.189 F 
ATOM     35  F2  MOL d          23.105  13.810  22.838  0.00  0.00    -0.189 F 
BRANCH  33  36
ATOM     36  C   MOL d          24.317  12.108  23.970  0.00  0.00     0.295 C 
ATOM     37  O   MOL d          24.307  11.000  24.535  0.00  0.00    -0.267 OA
ATOM     38  N   MOL d          25.193  13.057  24.175  0.00  0.00    -0.360 N 
ATOM     39  CH3 MOL d          26.323  12.917  25.130  0.00  0.00     0.149 C 
ATOM     40  H41 MOL d          25.099  13.914  23.668  0.00  0.00     0.162 HD
ENDBRANCH  33  36
ENDBRANCH  30  33
BRANCH  30  41
ATOM     41  OH1 MOL d          25.019  12.123  21.417  0.00  0.00    -0.359 OA
ATOM     42  H40 MOL d          25.331  11.835  20.567  0.00  0.00     0.213 HD
ENDBRANCH  30  41
ENDBRANCH  25  30
ENDBRANCH   3  25
TORSDOF 16
