REMARK  8 active torsions:
REMARK  status: ('A' for Active; 'I' for Inactive)
REMARK    1  A    between atoms: C4_4  and  S8_8 
REMARK    2  A    between atoms: S8_8  and  C9_9 
REMARK    3  A    between atoms: C9_9  and  C10_10 
REMARK       I    between atoms: C10_10  and  N12_12 
REMARK    4  A    between atoms: N12_12  and  C13_13 
REMARK    5  A    between atoms: C13_13  and  C14_14 
REMARK    6  A    between atoms: C13_13  and  C25_25 
REMARK    7  A    between atoms: C14_14  and  C15_15 
REMARK    8  A    between atoms: C18_18  and  N21_21 
REMARK       I    between atoms: N21_21  and  C22_22 
REMARK       I    between atoms: C22_22  and  N24_24 
REMARK       I    between atoms: C25_25  and  N27_27 
ROOT
ATOM      1  C13 MOL d          12.806 -15.277  14.135  0.00  0.00     0.180 C 
ENDROOT
BRANCH   1   2
ATOM      2  N12 MOL d          14.132 -14.673  14.483  0.00  0.00    -0.347 N 
ATOM      3  C10 MOL d          15.389 -15.274  14.320  0.00  0.00     0.228 C 
ATOM      4  O11 MOL d          15.454 -16.401  13.854  0.00  0.00    -0.273 OA
ATOM      5  H7  MOL d          14.120 -13.751  14.870  0.00  0.00     0.163 HD
BRANCH   3   6
ATOM      6  C9  MOL d          16.694 -14.587  14.700  0.00  0.00     0.182 C 
BRANCH   6   7
ATOM      7  S8  MOL d          16.405 -12.920  15.370  0.00  0.00    -0.121 SA
BRANCH   7   8
ATOM      8  C4  MOL d          16.446 -11.651  14.166  0.00  0.00     0.001 A 
ATOM      9  C3  MOL d          15.438 -10.626  14.212  0.00  0.00     0.020 A 
ATOM     10  C2  MOL d          15.444  -9.571  13.240  0.00  0.00     0.025 A 
ATOM     11  C1  MOL d          16.454  -9.539  12.224  0.00  0.00     0.034 A 
ATOM     12  C6  MOL d          17.460 -10.559  12.172  0.00  0.00     0.025 A 
ATOM     13 CL7  MOL d          16.464  -8.281  11.066  0.00  0.00    -0.084 Cl
ATOM     14  C5  MOL d          17.456 -11.611  13.140  0.00  0.00     0.020 A 
ENDBRANCH   7   8
ENDBRANCH   6   7
ENDBRANCH   3   6
ENDBRANCH   1   2
BRANCH   1  15
ATOM     15  C14 MOL d          12.113 -15.749  15.440  0.00  0.00     0.073 C 
BRANCH  15  16
ATOM     16  C15 MOL d          12.831 -16.814  16.283  0.00  0.00    -0.056 A 
ATOM     17  C16 MOL d          13.470 -16.411  17.510  0.00  0.00     0.009 A 
ATOM     18  C17 MOL d          14.149 -17.379  18.329  0.00  0.00     0.030 A 
ATOM     19  C18 MOL d          14.201 -18.779  17.937  0.00  0.00     0.049 A 
ATOM     20  C19 MOL d          13.558 -19.168  16.702  0.00  0.00     0.030 A 
ATOM     21  C20 MOL d          12.876 -18.197  15.882  0.00  0.00     0.009 A 
BRANCH  19  22
ATOM     22  N21 MOL d          14.864 -19.829  18.702  0.00  0.00    -0.193 N 
ATOM     23  C22 MOL d          15.574 -19.796  19.936  0.00  0.00     0.669 C 
ATOM     24  N23 MOL d          15.752 -18.703  20.630  0.00  0.00    -0.235 N 
ATOM     25  N24 MOL d          16.099 -20.980  20.420  0.00  0.00    -0.235 N 
ATOM     26  H16 MOL d          16.274 -18.736  21.517  0.00  0.00     0.174 HD
ATOM     27  H17 MOL d          15.370 -17.809  20.290  0.00  0.00     0.174 HD
ATOM     28  H18 MOL d          15.972 -21.854  19.891  0.00  0.00     0.174 HD
ATOM     29  H19 MOL d          16.617 -20.988  21.310  0.00  0.00     0.174 HD
ATOM     30  H15 MOL d          14.809 -20.763  18.272  0.00  0.00     0.184 HD
ENDBRANCH  19  22
ENDBRANCH  15  16
ENDBRANCH   1  15
BRANCH   1  31
ATOM     31  C25 MOL d          11.932 -14.232  13.428  0.00  0.00     0.238 C 
ATOM     32  O26 MOL d          12.302 -13.067  13.384  0.00  0.00    -0.271 OA
ATOM     33  N27 MOL d          10.726 -14.568  12.821  0.00  0.00    -0.368 N 
ATOM     34  H20 MOL d          10.180 -13.863  12.369  0.00  0.00     0.159 HD
ATOM     35  H21 MOL d          10.405 -15.515  12.837  0.00  0.00     0.159 HD
ENDBRANCH   1  31
TORSDOF 8
