REMARK  2 active torsions:
REMARK  status: ('A' for Active; 'I' for Inactive)
REMARK    1  A    between atoms: C15_15  and  C8_8 
REMARK    2  A    between atoms: C9_9  and  C16_16 
ROOT
ATOM      1  C4  ZT2 d         -33.184  32.222   1.845  0.00  0.00     0.015 A 
ATOM      2  C6  ZT2 d         -32.452  32.815   2.879  0.00  0.00     0.040 A 
ATOM      3  C8  ZT2 d         -33.324  32.758   0.590  0.00  0.00    -0.015 A 
ATOM      4  C9  ZT2 d         -32.743  34.016   0.325  0.00  0.00     0.087 A 
ATOM      5  C11 ZT2 d         -31.866  34.007   2.560  0.00  0.00     0.106 A 
ATOM      6  C12 ZT2 d         -32.015  34.588   1.340  0.00  0.00     0.122 A 
ATOM      7  C18 ZT2 d         -30.643  35.700   2.488  0.00  0.00     0.352 C 
ATOM      8  O22 ZT2 d         -31.087  34.750   3.348  0.00  0.00    -0.323 OA
ATOM      9  O23 ZT2 d         -31.365  35.792   1.249  0.00  0.00    -0.322 OA
ENDROOT
BRANCH   3  10
ATOM     10  C15 ZT2 d         -34.150  32.036  -0.418  0.00  0.00     0.028 C 
ATOM     11  C13 ZT2 d         -33.943  30.731  -0.788  0.00  0.00     0.022 A 
ATOM     12  C7  ZT2 d         -32.934  29.727  -0.492  0.00  0.00    -0.016 A 
ATOM     13  C14 ZT2 d         -34.915  30.104  -1.717  0.00  0.00     0.164 A 
ATOM     14  C3  ZT2 d         -31.848  29.712   0.351  0.00  0.00     0.013 A 
ATOM     15  C10 ZT2 d         -33.213  28.594  -1.224  0.00  0.00    -0.040 A 
ATOM     16  C1  ZT2 d         -31.022  28.606   0.465  0.00  0.00     0.001 A 
ATOM     17  C2  ZT2 d         -31.300  27.472  -0.281  0.00  0.00     0.001 A 
ATOM     18  C5  ZT2 d         -32.400  27.485  -1.096  0.00  0.00     0.008 A 
ATOM     19  C17 ZT2 d         -34.411  28.740  -2.082  0.00  0.00     0.123 A 
ATOM     20  O20 ZT2 d         -35.961  30.607  -2.120  0.00  0.00    -0.292 OA
ENDBRANCH   3  10
BRANCH   4  21
ATOM     21  C16 ZT2 d         -32.846  34.666  -1.039  0.00  0.00     0.213 C 
ATOM     22  O19 ZT2 d         -31.818  35.226  -1.497  0.00  0.00    -0.644 OA
ATOM     23  O21 ZT2 d         -33.945  34.589  -1.700  0.00  0.00    -0.644 OA
ENDBRANCH   4  21
TORSDOF 2
