REMARK  2 active torsions:
REMARK  status: ('A' for Active; 'I' for Inactive)
REMARK    1  A    between atoms: C8_6  and  N5_18 
REMARK    2  A    between atoms: C17_11  and  C12_7 
ROOT
ATOM      1  C8  MOL d         219.162  -8.026  26.990  0.00  0.00     0.032 A 
ATOM      2  C12 MOL d         217.088  -7.607  23.021  0.00  0.00     0.147 A 
ATOM      3  N13 MOL d         217.945  -6.630  23.343  0.00  0.00    -0.228 NA
ATOM      4  C15 MOL d         219.365  -6.264  25.349  0.00  0.00     0.036 A 
ATOM      5  C16 MOL d         219.708  -6.814  26.571  0.00  0.00     0.032 A 
ATOM      6  C9  MOL d         218.231  -8.729  26.201  0.00  0.00     0.061 A 
ATOM      7  C10 MOL d         217.848  -8.216  24.956  0.00  0.00     0.065 A 
ATOM      8  N11 MOL d         217.025  -8.595  23.945  0.00  0.00    -0.338 N 
ATOM      9  C14 MOL d         218.452  -6.925  24.540  0.00  0.00     0.086 A 
ATOM     10  H18 MOL d         216.466  -9.459  23.892  0.00  0.00     0.167 HD
ENDROOT
BRANCH   2  11
ATOM     11  C17 MOL d         216.318  -7.719  21.751  0.00  0.00     0.105 A 
ATOM     12  C18 MOL d         216.606  -6.782  20.629  0.00  0.00     0.061 A 
ATOM     13  N19 MOL d         217.542  -5.797  20.728  0.00  0.00    -0.397 N 
ATOM     14  C20 MOL d         215.825  -6.966  19.377  0.00  0.00     0.057 A 
ATOM     15  H19 MOL d         218.076  -5.680  21.601  0.00  0.00     0.156 HD
ATOM     16  H20 MOL d         217.715  -5.169  19.930  0.00  0.00     0.156 HD
ATOM     17  C21 MOL d         216.000  -6.117  18.174  0.00  0.00     0.131 A 
ATOM     18  C26 MOL d         214.809  -8.049  19.319  0.00  0.00     0.050 A 
ATOM     19  C23 MOL d         215.219  -6.373  17.037  0.00  0.00     0.043 A 
ATOM     20  F22 MOL d         216.915  -5.128  18.187  0.00  0.00    -0.205 F 
ATOM     21  C24 MOL d         214.282  -7.404  17.032  0.00  0.00     0.005 A 
ATOM     22  C25 MOL d         214.077  -8.227  18.143  0.00  0.00     0.030 A 
ATOM     23  N27 MOL d         214.616  -8.851  20.372  0.00  0.00    -0.322 N 
ATOM     24  C28 MOL d         215.277  -8.747  21.541  0.00  0.00     0.262 A 
ATOM     25  H22 MOL d         213.934  -9.578  20.285  0.00  0.00     0.169 HD
ATOM     26  O29 MOL d         215.016  -9.551  22.466  0.00  0.00    -0.267 OA
ENDBRANCH   2  11
BRANCH   1  27
ATOM     27  N5  MOL d         219.580  -8.468  28.254  0.00  0.00    -0.378 N 
ATOM     28  C4  MOL d         220.690  -9.406  28.376  0.00  0.00     0.150 C 
ATOM     29  C3  MOL d         220.995  -9.594  29.857  0.00  0.00     0.254 C 
ATOM     30  N2  MOL d         219.751  -9.957  30.543  0.00  0.00    -0.072 N 
ATOM     31  C1  MOL d         220.051 -10.483  31.886  0.00  0.00     0.269 C 
ATOM     32  C7  MOL d         218.891  -8.768  30.660  0.00  0.00     0.254 C 
ATOM     33  H16 MOL d         219.271 -10.665  30.009  0.00  0.00     0.279 HD
ATOM     34  C6  MOL d         218.886  -7.877  29.410  0.00  0.00     0.150 C 
ENDBRANCH   1  27
TORSDOF 2
