REMARK  11 active torsions:
REMARK  status: ('A' for Active; 'I' for Inactive)
REMARK    1  A    between atoms: C4_1  and  O5_18 
REMARK    2  A    between atoms: C6_2  and  C7_3 
REMARK    3  A    between atoms: O5_18  and  C6_2 
REMARK    4  A    between atoms: C7_3  and  C8_4 
REMARK    5  A    between atoms: C8_4  and  S9_19 
REMARK    6  A    between atoms: C16_23  and  C17_8 
REMARK    7  A    between atoms: C21_10  and  C22_11 
REMARK    8  A    between atoms: C22_11  and  O23_26 
REMARK    9  A    between atoms: O23_26  and  C24_12 
REMARK   10  A    between atoms: C28_14  and  C30_29 
REMARK   11  A    between atoms: C30_29  and  C31_30 
ROOT
ATOM      1  C17 MOL d         -51.576  -2.001  57.399  0.00  0.00    -0.024 A 
ATOM      2  C20 MOL d         -49.272  -2.714  56.014  0.00  0.00     0.009 A 
ATOM      3  C21 MOL d         -49.155  -2.082  57.245  0.00  0.00    -0.033 A 
ATOM      4  C18 MOL d         -51.686  -2.629  56.152  0.00  0.00     0.012 A 
ATOM      5  C19 MOL d         -50.530  -2.979  55.476  0.00  0.00     0.002 A 
ATOM      6  C38 MOL d         -50.304  -1.733  57.950  0.00  0.00     0.021 A 
ENDROOT
BRANCH   1   7
ATOM      7  C16 MOL d         -52.779  -1.608  58.184  0.00  0.00    -0.014 A 
ATOM      8  C2  MOL d         -53.153  -0.256  58.262  0.00  0.00    -0.048 A 
ATOM      9  C1  MOL d         -52.391   0.844  57.556  0.00  0.00     0.049 C 
ATOM     10  C3  MOL d         -54.253   0.097  59.014  0.00  0.00     0.044 A 
ATOM     11  C4  MOL d         -54.997  -0.871  59.686  0.00  0.00     0.069 A 
ATOM     12  C13 MOL d         -54.633  -2.207  59.599  0.00  0.00     0.044 A 
ATOM     13  C14 MOL d         -53.530  -2.582  58.862  0.00  0.00    -0.048 A 
ATOM     14  C15 MOL d         -53.178  -4.055  58.816  0.00  0.00     0.049 C 
BRANCH  11  15
ATOM     15  O5  MOL d         -56.090  -0.531  60.425  0.00  0.00    -0.351 OA
BRANCH  15  16
ATOM     16  C6  MOL d         -56.344   0.857  60.702  0.00  0.00     0.176 C 
BRANCH  16  17
ATOM     17  C7  MOL d         -57.779   1.002  61.205  0.00  0.00     0.041 C 
BRANCH  17  18
ATOM     18  C8  MOL d         -57.736   1.058  62.732  0.00  0.00     0.142 C 
BRANCH  18  19
ATOM     19  S9  MOL d         -59.229   0.337  63.485  0.00  0.00     0.140 S 
ATOM     20  C10 MOL d         -60.581   1.275  62.705  0.00  0.00     0.161 C 
ATOM     21  O11 MOL d         -59.343  -1.034  63.108  0.00  0.00    -0.228 OA
ATOM     22  O12 MOL d         -59.177   0.665  64.873  0.00  0.00    -0.228 OA
ENDBRANCH  18  19
ENDBRANCH  17  18
ENDBRANCH  16  17
ENDBRANCH  15  16
ENDBRANCH  11  15
ENDBRANCH   1   7
BRANCH   3  23
ATOM     23  C22 MOL d         -47.784  -1.791  57.818  0.00  0.00     0.214 C 
BRANCH  23  24
ATOM     24  O23 MOL d         -47.360  -2.908  58.618  0.00  0.00    -0.347 OA
BRANCH  24  25
ATOM     25  C24 MOL d         -46.108  -2.989  59.147  0.00  0.00     0.071 A 
ATOM     26  C25 MOL d         -45.308  -1.855  59.273  0.00  0.00     0.037 A 
ATOM     27  C26 MOL d         -44.033  -1.985  59.809  0.00  0.00     0.013 A 
ATOM     28  C27 MOL d         -43.569  -3.214  60.219  0.00  0.00    -0.018 A 
ATOM     29  C28 MOL d         -42.246  -3.612  60.817  0.00  0.00     0.056 C 
ATOM     30  C36 MOL d         -44.348  -4.355  60.098  0.00  0.00     0.078 A 
ATOM     31  C34 MOL d         -42.431  -5.117  61.153  0.00  0.00     0.185 C 
ATOM     32  O35 MOL d         -43.698  -5.466  60.548  0.00  0.00    -0.350 OA
ATOM     33  C37 MOL d         -45.633  -4.231  59.564  0.00  0.00     0.074 A 
BRANCH  29  34
ATOM     34  C30 MOL d         -41.221  -3.391  59.709  0.00  0.00     0.124 C 
BRANCH  34  35
ATOM     35  C31 MOL d         -39.802  -3.304  60.195  0.00  0.00     0.173 C 
ATOM     36  O32 MOL d         -39.435  -3.002  61.467  0.00  0.00    -0.648 OA
ATOM     37  O33 MOL d         -38.974  -3.532  59.343  0.00  0.00    -0.648 OA
ENDBRANCH  34  35
ENDBRANCH  29  34
ENDBRANCH  24  25
ENDBRANCH  23  24
ENDBRANCH   3  23
TORSDOF 11
