REMARK  19 active torsions:
REMARK  status: ('A' for Active; 'I' for Inactive)
REMARK    1  A    between atoms: C24_2  and  C8_4 
REMARK       I    between atoms: C8_4  and  N4_6 
REMARK    2  A    between atoms: N4_6  and  C26_7 
REMARK    3  A    between atoms: N4_6  and  C2_16 
REMARK    4  A    between atoms: C25_12  and  C31_13 
REMARK    5  A    between atoms: C5_19  and  C7_24 
REMARK    6  A    between atoms: C1_21  and  C32_22 
REMARK    7  A    between atoms: C7_24  and  C9_25 
REMARK    8  A    between atoms: C9_25  and  N1_26 
REMARK    9  A    between atoms: C9_25  and  C11_30 
REMARK       I    between atoms: C11_30  and  N2_32 
REMARK   10  A    between atoms: N2_32  and  C12_33 
REMARK   11  A    between atoms: C12_33  and  C13_34 
REMARK   12  A    between atoms: C13_34  and  C15_35 
REMARK   13  A    between atoms: C15_35  and  C14_36 
REMARK   14  A    between atoms: C14_36  and  C16_37 
REMARK       I    between atoms: C16_37  and  N3_39 
REMARK   15  A    between atoms: N3_39  and  C17_40 
REMARK   16  A    between atoms: C17_40  and  C22_41 
REMARK   17  A    between atoms: C17_40  and  C18_44 
REMARK   18  A    between atoms: C18_44  and  C34_45 
REMARK   19  A    between atoms: C34_45  and  S1_46 
ROOT
ATOM      1  C9  MOL d          31.195  31.467  17.648  0.00  0.00     0.179 C 
ENDROOT
BRANCH   1   2
ATOM      2  C7  MOL d          31.974  32.257  18.798  0.00  0.00     0.073 C 
BRANCH   2   3
ATOM      3  C5  MOL d          32.526  31.041  19.704  0.00  0.00    -0.055 A 
ATOM      4  C4  MOL d          31.914  30.338  20.778  0.00  0.00     0.009 A 
ATOM      5  C3  MOL d          32.584  29.239  21.387  0.00  0.00     0.031 A 
ATOM      6  C2  MOL d          33.878  28.727  20.992  0.00  0.00     0.049 A 
ATOM      7  C1  MOL d          34.570  29.373  19.908  0.00  0.00    -0.031 A 
ATOM      8  C6  MOL d          33.878  30.499  19.301  0.00  0.00     0.016 A 
BRANCH   6   9
ATOM      9  N4  MOL d          34.374  27.628  21.753  0.00  0.00    -0.272 N 
ATOM     10  C8  MOL d          34.781  27.857  23.124  0.00  0.00     0.329 C 
ATOM     11  O5  MOL d          35.095  26.938  23.900  0.00  0.00    -0.260 OA
BRANCH  10  12
ATOM     12  C24 MOL d          34.856  29.295  23.727  0.00  0.00     0.270 C 
ATOM     13  O6  MOL d          35.796  30.042  23.443  0.00  0.00    -0.640 OA
ATOM     14  O7  MOL d          33.983  29.686  24.457  0.00  0.00    -0.640 OA
ENDBRANCH  10  12
BRANCH   9  15
ATOM     15  C26 MOL d          34.352  26.320  21.199  0.00  0.00     0.060 A 
ATOM     16  C27 MOL d          33.109  25.926  20.574  0.00  0.00     0.031 A 
ATOM     17  C28 MOL d          32.929  24.668  19.978  0.00  0.00     0.002 A 
ATOM     18  C29 MOL d          33.969  23.724  19.981  0.00  0.00     0.001 A 
ATOM     19  C30 MOL d          35.205  24.041  20.575  0.00  0.00     0.021 A 
ATOM     20  C25 MOL d          35.448  25.315  21.204  0.00  0.00     0.068 A 
BRANCH  20  21
ATOM     21  C31 MOL d          36.844  25.458  21.770  0.00  0.00     0.211 C 
ATOM     22  O9  MOL d          37.680  24.554  21.718  0.00  0.00    -0.644 OA
ATOM     23  O10 MOL d          37.204  26.458  22.301  0.00  0.00    -0.644 OA
ENDBRANCH  20  21
ENDBRANCH   9  15
ENDBRANCH   6   9
BRANCH   7  24
ATOM     24  C32 MOL d          35.942  28.875  19.446  0.00  0.00     0.036 C 
ATOM     25  C33 MOL d          37.040  29.952  19.376  0.00  0.00     0.010 C 
ENDBRANCH   7  24
ENDBRANCH   2   3
ENDBRANCH   1   2
BRANCH   1  26
ATOM     26  N1  MOL d          31.201  32.280  16.448  0.00  0.00    -0.359 N 
ATOM     27  C10 MOL d          31.117  33.325  15.615  0.00  0.00     0.148 C 
ATOM     28  O4  MOL d          31.557  32.962  14.423  0.00  0.00    -0.178 OA
ATOM     29  C23 MOL d          30.881  34.729  15.967  0.00  0.00     0.100 C 
ATOM     30  H16 MOL d          31.418  31.568  15.780  0.00  0.00     0.162 HD
ENDBRANCH   1  26
BRANCH   1  31
ATOM     31  C11 MOL d          29.978  30.591  17.960  0.00  0.00     0.240 C 
ATOM     32  O8  MOL d          30.382  29.408  17.886  0.00  0.00    -0.271 OA
ATOM     33  N2  MOL d          28.794  31.060  18.114  0.00  0.00    -0.359 N 
ATOM     34  H20 MOL d          28.661  32.051  18.139  0.00  0.00     0.162 HD
BRANCH  33  35
ATOM     35  C12 MOL d          27.664  30.203  18.251  0.00  0.00     0.122 C 
BRANCH  35  36
ATOM     36  C13 MOL d          26.754  30.736  19.363  0.00  0.00     0.020 C 
BRANCH  36  37
ATOM     37  C15 MOL d          27.404  30.685  20.775  0.00  0.00     0.011 C 
BRANCH  37  38
ATOM     38  C14 MOL d          26.499  31.210  21.914  0.00  0.00     0.103 C 
BRANCH  38  39
ATOM     39  C16 MOL d          25.358  30.231  22.282  0.00  0.00     0.218 C 
ATOM     40  O1  MOL d          25.327  29.048  22.616  0.00  0.00    -0.274 OA
ATOM     41  N3  MOL d          24.271  31.036  22.128  0.00  0.00    -0.346 N 
ATOM     42  H29 MOL d          24.413  32.003  21.914  0.00  0.00     0.163 HD
BRANCH  41  43
ATOM     43  C17 MOL d          22.893  30.533  22.265  0.00  0.00     0.186 C 
BRANCH  43  44
ATOM     44  C22 MOL d          22.624  29.433  21.209  0.00  0.00     0.196 C 
ATOM     45  O2  MOL d          22.105  28.374  21.552  0.00  0.00    -0.646 OA
ATOM     46  O3  MOL d          22.942  29.608  20.056  0.00  0.00    -0.646 OA
ENDBRANCH  43  44
BRANCH  43  47
ATOM     47  C18 MOL d          21.907  31.701  22.081  0.00  0.00     0.046 C 
BRANCH  47  48
ATOM     48  C34 MOL d          21.988  32.760  23.193  0.00  0.00     0.076 C 
BRANCH  48  49
ATOM     49  S1  MOL d          21.065  32.289  24.674  0.00  0.00    -0.173 SA
ATOM     50  C35 MOL d          19.641  31.721  25.058  0.00  0.00     0.089 C 
ENDBRANCH  48  49
ENDBRANCH  47  48
ENDBRANCH  43  47
ENDBRANCH  41  43
ENDBRANCH  38  39
ENDBRANCH  37  38
ENDBRANCH  36  37
ENDBRANCH  35  36
ENDBRANCH  33  35
ENDBRANCH   1  31
TORSDOF 19
