REMARK  7 active torsions:
REMARK  status: ('A' for Active; 'I' for Inactive)
REMARK    1  A    between atoms: N_1  and  CA_2 
REMARK    2  A    between atoms: CA_2  and  C_3 
REMARK    3  A    between atoms: CA_2  and  CB_5 
REMARK    4  A    between atoms: CB_5  and  CG_6 
REMARK    5  A    between atoms: CG_6  and  CD_7 
REMARK    6  A    between atoms: CD_7  and  CE_8 
REMARK    7  A    between atoms: CE_8  and  NZ_9 
ROOT
ATOM      1  CA  LYS d         -44.791  10.075 -15.945  0.00  0.00     0.283 C 
ENDROOT
BRANCH   1   2
ATOM      2  N   LYS d         -43.447   9.792 -15.368  0.00  0.00    -0.065 N 
ATOM      3  H1  LYS d         -42.820   9.505 -16.103  0.00  0.00     0.275 HD
ATOM      4  H2  LYS d         -43.523   9.055 -14.684  0.00  0.00     0.275 HD
ATOM      5  H3  LYS d         -43.089  10.624 -14.927  0.00  0.00     0.275 HD
ENDBRANCH   1   2
BRANCH   1   6
ATOM      6  C   LYS d         -45.666  10.496 -14.786  0.00  0.00     0.204 C 
ATOM      7  O   LYS d         -45.320  10.190 -13.632  0.00  0.00    -0.646 OA
ATOM      8  OXT LYS d         -46.706  11.132 -14.962  0.00  0.00    -0.646 OA
ENDBRANCH   1   6
BRANCH   1   9
ATOM      9  CB  LYS d         -45.357   8.814 -16.621  0.00  0.00     0.044 C 
BRANCH   9  10
ATOM     10  CG  LYS d         -46.780   8.913 -17.166  0.00  0.00     0.004 C 
BRANCH  10  11
ATOM     11  CD  LYS d         -47.151   7.620 -17.878  0.00  0.00     0.027 C 
BRANCH  11  12
ATOM     12  CE  LYS d         -48.496   7.709 -18.593  0.00  0.00     0.229 C 
BRANCH  12  13
ATOM     13  NZ  LYS d         -48.778   6.460 -19.407  0.00  0.00    -0.079 N 
ATOM     14  H13 LYS d         -49.671   6.552 -19.865  0.00  0.00     0.274 HD
ATOM     15  H14 LYS d         -48.794   5.658 -18.797  0.00  0.00     0.274 HD
ATOM     16  H15 LYS d         -48.056   6.341 -20.100  0.00  0.00     0.274 HD
ENDBRANCH  12  13
ENDBRANCH  11  12
ENDBRANCH  10  11
ENDBRANCH   9  10
ENDBRANCH   1   9
TORSDOF 7
