REMARK  10 active torsions:
REMARK  status: ('A' for Active; 'I' for Inactive)
REMARK    1  A    between atoms: C_1  and  CA_15 
REMARK    2  A    between atoms: CA_15  and  N_2 
REMARK    3  A    between atoms: C6_9  and  N6_10 
REMARK    4  A    between atoms: C3'_21  and  N8_13 
REMARK    5  A    between atoms: C1'_18  and  N9_14 
REMARK    6  A    between atoms: CA_15  and  CB_16 
REMARK    7  A    between atoms: CB_16  and  OG_17 
REMARK    8  A    between atoms: C2'_19  and  O2'_20 
REMARK    9  A    between atoms: C4'_22  and  C5'_24 
REMARK   10  A    between atoms: C5'_24  and  O5'_25 
ROOT
ATOM      1  C1' A3T d          -4.624   8.334  45.094  0.00  0.00     0.261 C 
ATOM      2  C2' A3T d          -3.397   8.018  44.243  0.00  0.00     0.192 C 
ATOM      3  C3' A3T d          -3.978   8.058  42.839  0.00  0.00     0.147 C 
ATOM      4  C4' A3T d          -5.052   9.158  42.920  0.00  0.00     0.173 C 
ATOM      5  O4' A3T d          -5.527   9.158  44.288  0.00  0.00    -0.354 OA
ENDROOT
BRANCH   3   6
ATOM      6  N8  A3T d          -2.942   8.438  41.868  0.00  0.00    -0.360 N 
ATOM      7  C   A3T d          -1.972   7.612  41.479  0.00  0.00     0.185 C 
ATOM      8  O   A3T d          -1.780   6.341  41.931  0.00  0.00    -0.175 OA
ATOM      9  H8  A3T d          -2.966   9.360  41.481  0.00  0.00     0.162 HD
BRANCH   7  10
ATOM     10  CA  A3T d          -0.995   8.153  40.447  0.00  0.00     0.288 C 
BRANCH  10  11
ATOM     11  N   A3T d           0.364   7.771  40.843  0.00  0.00    -0.065 N 
ATOM     12  H1  A3T d           0.565   8.144  41.758  0.00  0.00     0.275 HD
ATOM     13  H2  A3T d           1.024   8.141  40.177  0.00  0.00     0.275 HD
ATOM     14  H3  A3T d           0.437   6.766  40.866  0.00  0.00     0.275 HD
ENDBRANCH  10  11
BRANCH  10  15
ATOM     15  CB  A3T d          -1.313   7.593  39.059  0.00  0.00     0.152 C 
ATOM     16  CG2 A3T d          -2.785   7.768  38.652  0.00  0.00     0.042 C 
BRANCH  15  17
ATOM     17  OG  A3T d          -0.480   8.279  38.135  0.00  0.00    -0.393 OA
ATOM     18  H11 A3T d           0.431   8.128  38.358  0.00  0.00     0.210 HD
ENDBRANCH  15  17
ENDBRANCH  10  15
ENDBRANCH   7  10
ENDBRANCH   3   6
BRANCH   2  19
ATOM     19  O2' A3T d          -2.427   9.046  44.451  0.00  0.00    -0.389 OA
ATOM     20  H14 A3T d          -1.656   8.863  43.927  0.00  0.00     0.210 HD
ENDBRANCH   2  19
BRANCH   4  21
ATOM     21  C5' A3T d          -6.248   8.878  41.987  0.00  0.00     0.198 C 
BRANCH  21  22
ATOM     22  O5' A3T d          -6.795   7.582  42.268  0.00  0.00    -0.398 OA
ATOM     23  H19 A3T d          -7.088   7.552  43.171  0.00  0.00     0.209 HD
ENDBRANCH  21  22
ENDBRANCH   4  21
BRANCH   1  24
ATOM     24  N9  A3T d          -5.296   7.127  45.667  0.00  0.00    -0.294 N 
ATOM     25  C4  A3T d          -4.687   6.107  46.281  0.00  0.00     0.167 A 
ATOM     26  N3  A3T d          -3.395   5.809  46.548  0.00  0.00    -0.222 NA
ATOM     27  C5  A3T d          -5.685   5.234  46.689  0.00  0.00     0.149 A 
ATOM     28  C2  A3T d          -3.061   4.684  47.189  0.00  0.00     0.237 A 
ATOM     29  N1  A3T d          -4.000   3.828  47.590  0.00  0.00    -0.222 NA
ATOM     30  C6  A3T d          -5.312   4.071  47.358  0.00  0.00     0.155 A 
ATOM     31  N7  A3T d          -6.859   5.752  46.308  0.00  0.00    -0.236 NA
ATOM     32  C8  A3T d          -6.618   6.910  45.694  0.00  0.00     0.214 A 
BRANCH  30  33
ATOM     33  N6  A3T d          -6.253   3.214  47.761  0.00  0.00    -0.382 N 
ATOM     34  H5  A3T d          -7.246   3.415  47.576  0.00  0.00     0.157 HD
ATOM     35  H6  A3T d          -5.986   2.352  48.257  0.00  0.00     0.157 HD
ENDBRANCH  30  33
ENDBRANCH   1  24
TORSDOF 10
