REMARK  6 active torsions:
REMARK  status: ('A' for Active; 'I' for Inactive)
REMARK    1  A    between atoms: C6_4  and  N6_19 
REMARK    2  A    between atoms: C5'_6  and  O5'_5 
REMARK    3  A    between atoms: C4'_7  and  C5'_6 
REMARK    4  A    between atoms: C3'_9  and  O3'_10 
REMARK    5  A    between atoms: C2'_11  and  O2'_12 
REMARK    6  A    between atoms: C1'_13  and  C9_14 
ROOT
ATOM      1  C4' UA2 d          19.452  48.307   9.358  0.00  0.00     0.241 C 
ATOM      2  N4' UA2 d          20.246  47.122   9.126  0.00  0.00    -0.055 N 
ATOM      3  C3' UA2 d          18.030  47.753   9.292  0.00  0.00     0.182 C 
ATOM      4  C2' UA2 d          18.112  46.262   9.668  0.00  0.00     0.184 C 
ATOM      5  C1' UA2 d          19.581  45.870   9.433  0.00  0.00     0.254 C 
ATOM      6  H6  UA2 d          21.075  47.184   9.696  0.00  0.00     0.278 HD
ATOM      7  H7  UA2 d          20.508  47.107   8.153  0.00  0.00     0.278 HD
ENDROOT
BRANCH   5   8
ATOM      8  C9  UA2 d          20.121  45.375  10.701  0.00  0.00     0.021 A 
ATOM      9  C4  UA2 d          19.826  44.075  11.310  0.00  0.00     0.098 A 
ATOM     10  C5  UA2 d          20.578  44.151  12.557  0.00  0.00     0.107 A 
ATOM     11  N3  UA2 d          19.141  42.990  10.929  0.00  0.00    -0.239 NA
ATOM     12  C6  UA2 d          20.495  42.963  13.404  0.00  0.00     0.151 A 
ATOM     13  N7  UA2 d          21.181  45.339  12.661  0.00  0.00    -0.360 N 
ATOM     14  N1  UA2 d          19.755  41.924  12.959  0.00  0.00    -0.223 NA
ATOM     15  C2  UA2 d          19.123  41.930  11.777  0.00  0.00     0.236 A 
ATOM     16  C8  UA2 d          20.927  46.102  11.569  0.00  0.00     0.100 A 
ATOM     17  H14 UA2 d          21.759  45.635  13.461  0.00  0.00     0.165 HD
BRANCH  12  18
ATOM     18  N6  UA2 d          21.154  42.960  14.579  0.00  0.00    -0.382 N 
ATOM     19  H15 UA2 d          21.110  42.134  15.192  0.00  0.00     0.157 HD
ATOM     20  H16 UA2 d          21.702  43.784  14.864  0.00  0.00     0.157 HD
ENDBRANCH  12  18
ENDBRANCH   5   8
BRANCH   4  21
ATOM     21  O2' UA2 d          17.232  45.480   8.889  0.00  0.00    -0.390 OA
ATOM     22  H11 UA2 d          17.458  45.571   7.971  0.00  0.00     0.210 HD
ENDBRANCH   4  21
BRANCH   1  23
ATOM     23  C5' UA2 d          19.779  48.924  10.709  0.00  0.00     0.199 C 
BRANCH  23  24
ATOM     24  O5' UA2 d          21.206  49.166  10.821  0.00  0.00    -0.399 OA
ATOM     25  H2  UA2 d          21.395  49.551  11.669  0.00  0.00     0.209 HD
ENDBRANCH  23  24
ENDBRANCH   1  23
BRANCH   3  26
ATOM     26  O3' UA2 d          17.501  48.054   7.986  0.00  0.00    -0.391 OA
ATOM     27  H9  UA2 d          16.615  47.719   7.920  0.00  0.00     0.210 HD
ENDBRANCH   3  26
TORSDOF 6
