REMARK  2 active torsions:
REMARK  status: ('A' for Active; 'I' for Inactive)
REMARK    1  A    between atoms: C1_1  and  C_7 
REMARK    2  A    between atoms: C_7  and  N1_8 
ROOT
ATOM      1  C   BAM d          32.741   4.333  27.877  0.00  0.00     0.102 C 
ATOM      2  N2  BAM d          32.778   3.068  28.273  0.00  0.00    -0.385 N 
ATOM      3  H8  BAM d          31.995   2.675  28.814  0.00  0.00     0.157 HD
ATOM      4  H9  BAM d          33.590   2.479  28.040  0.00  0.00     0.157 HD
ENDROOT
BRANCH   1   5
ATOM      5  C1  BAM d          31.641   5.193  28.171  0.00  0.00     0.007 A 
ATOM      6  C6  BAM d          31.615   6.547  27.731  0.00  0.00     0.015 A 
ATOM      7  C5  BAM d          30.530   7.398  28.018  0.00  0.00     0.001 A 
ATOM      8  C4  BAM d          29.431   6.922  28.757  0.00  0.00     0.000 A 
ATOM      9  C3  BAM d          29.431   5.586  29.206  0.00  0.00     0.001 A 
ATOM     10  C2  BAM d          30.516   4.739  28.917  0.00  0.00     0.015 A 
ENDBRANCH   1   5
BRANCH   1  11
ATOM     11  N1  BAM d          33.796   4.745  27.187  0.00  0.00    -0.385 N 
ATOM     12  H6  BAM d          34.571   4.095  26.994  0.00  0.00     0.157 HD
ATOM     13  H7  BAM d          33.840   5.715  26.844  0.00  0.00     0.157 HD
ENDBRANCH   1  11
TORSDOF 2
