REMARK  3 active torsions:
REMARK  status: ('A' for Active; 'I' for Inactive)
REMARK    1  A    between atoms: C1_1  and  N_9 
REMARK    2  A    between atoms: N_9  and  C11_13 
REMARK    3  A    between atoms: C9_11  and  S_10 
ROOT
ATOM      1  C1  MOL d           6.894  30.983  17.795  0.00  0.00     0.045 A 
ATOM      2  C2  MOL d           6.493  32.301  18.009  0.00  0.00     0.030 A 
ATOM      3  C3  MOL d           5.444  32.907  17.311  0.00  0.00     0.003 A 
ATOM      4  C4  MOL d           4.765  32.206  16.373  0.00  0.00     0.012 A 
ATOM      5  C5  MOL d           5.097  30.856  16.081  0.00  0.00    -0.022 A 
ATOM      6  C6  MOL d           4.346  30.176  15.085  0.00  0.00     0.012 A 
ATOM      7  C7  MOL d           4.598  28.892  14.749  0.00  0.00     0.002 A 
ATOM      8  C8  MOL d           5.629  28.195  15.393  0.00  0.00     0.027 A 
ATOM      9  C9  MOL d           6.426  28.756  16.380  0.00  0.00     0.094 A 
ATOM     10  C10 MOL d           6.191  30.172  16.787  0.00  0.00     0.025 A 
ENDROOT
BRANCH   1  11
ATOM     11  N   MOL d           7.966  30.503  18.568  0.00  0.00    -0.355 N 
ATOM     12  H7  MOL d           8.851  30.333  18.069  0.00  0.00     0.166 HD
BRANCH  11  13
ATOM     13  C11 MOL d           7.964  30.230  19.944  0.00  0.00     0.032 A 
ATOM     14  C16 MOL d           7.031  30.786  20.861  0.00  0.00     0.029 A 
ATOM     15  C15 MOL d           7.108  30.451  22.216  0.00  0.00     0.002 A 
ATOM     16  C14 MOL d           8.088  29.579  22.679  0.00  0.00     0.000 A 
ATOM     17  C13 MOL d           8.989  29.042  21.799  0.00  0.00     0.002 A 
ATOM     18  C12 MOL d           8.944  29.349  20.456  0.00  0.00     0.029 A 
ENDBRANCH  11  13
ENDBRANCH   1  11
BRANCH   9  19
ATOM     19  S   MOL d           7.666  27.580  17.011  0.00  0.00     0.138 S 
ATOM     20  O1  MOL d           8.994  28.123  16.768  0.00  0.00    -0.591 OA
ATOM     21  O2  MOL d           7.375  27.374  18.418  0.00  0.00    -0.591 OA
ATOM     22  O3  MOL d           7.466  26.335  16.277  0.00  0.00    -0.591 OA
ENDBRANCH   9  19
TORSDOF 3
