3ujb_ligand

Created by X-TOOL on Fri Sep 26 17:34:50 2014
 46 48  0  0  0  0  0  0  0  0999 V2000
   46.9410   -0.5710   25.5050  N 0  3  0  4  0  4
   45.8910    0.2760   24.8850  C 0  0  0  2  0  4
   45.9840    1.7480   25.4270  C 0  0  0  3  0  4
   47.2760    2.4690   25.0280  C 0  0  0  3  0  4
   47.3590    4.1870   25.6240  S 0  0  0  1  0  2
   45.9970    0.1880   23.4160  C 0  5  0  1  0  3
   46.9630   -0.3650   22.9160  O 0  0  0  1  0  1
   45.1800    0.7440   22.7180  O 0  0  0  1  0  1
   47.9520    4.0870   27.3290  C 0  0  0  3  0  4
   47.0080    3.7660   28.3570  C 0  0  0  2  0  4
   47.7510    3.6010   29.5920  O 0  0  0  1  0  2
   46.0550    4.8880   28.5930  C 0  0  0  2  0  4
   44.7310    4.4570   28.3170  O 0  0  0  2  0  2
   46.2790    5.2780   30.0030  C 0  0  0  2  0  4
   45.1100    5.6900   30.6870  O 0  0  0  2  0  2
   46.9040    4.0570   30.5990  C 0  0  0  2  0  4
   47.6620    4.3040   31.8820  N 0  0  0  1  0  3
   48.6090    5.2230   32.1010  C 0  0  0  2  0  3
   49.0340    5.0920   33.3580  N 0  0  0  1  0  2
   48.3660    4.0780   33.9400  C 0  0  0  1  0  3
   48.3890    3.5160   35.2280  C 0  0  0  1  0  3
   49.2360    3.9930   36.1970  N 0  0  0  3  0  3
   47.5580    2.4930   35.4890  N 0  0  0  1  0  2
   46.7230    2.0170   34.5570  C 0  0  0  2  0  3
   46.6660    2.5410   33.3080  N 0  0  0  1  0  2
   47.4720    3.5700   32.9860  C 0  0  0  1  0  3
   46.8705   -0.5125   26.5088  H 0  0  0  1  0  1
   47.8498   -0.2475   25.2126  H 0  0  0  1  0  1
   46.8155   -1.5281   25.2146  H 0  0  0  1  0  1
   44.9079   -0.1232   25.1752  H 0  0  0  1  0  1
   45.9275    1.7183   26.5251  H 0  0  0  1  0  1
   45.1310    2.3187   25.0312  H 0  0  0  1  0  1
   47.3460    2.4771   23.9303  H 0  0  0  1  0  1
   48.1286    1.9135   25.4458  H 0  0  0  1  0  1
   48.3877    5.0652   27.5805  H 0  0  0  1  0  1
   48.7377    3.3177   27.3563  H 0  0  0  1  0  1
   46.4614    2.8479   28.0957  H 0  0  0  1  0  1
   46.2911    5.7370   27.9347  H 0  0  0  1  0  1
   44.1274    5.1748   28.4686  H 0  0  0  1  0  1
   46.9936    6.1134   30.0400  H 0  0  0  1  0  1
   44.4800    4.9789   30.6917  H 0  0  0  1  0  1
   46.1238    3.3094   30.8048  H 0  0  0  1  0  1
   48.9705    5.9523   31.3775  H 0  0  0  1  0  1
   49.2374    3.5672   37.1349  H 0  0  0  1  0  1
   49.8702    4.7768   35.9863  H 0  0  0  1  0  1
   46.0726    1.1872   34.8088  H 0  0  0  1  0  1
  1  2  1  0  0  2
  2  3  1  0  0  2
  2  6  1  0  0  2
  3  4  1  0  0  2
  4  5  1  0  0  2
  5  9  1  0  0  2
  6  7  2  0  0  2
  6  8  2  0  0  2
  9 10  1  0  0  2
 10 11  1  0  0  1
 10 12  1  0  0  1
 11 16  1  0  0  1
 12 13  1  0  0  2
 12 14  1  0  0  1
 14 15  1  0  0  2
 14 16  1  0  0  1
 16 17  1  0  0  2
 17 18  1  0  0  1
 17 26  1  0  0  1
 18 19  2  0  0  1
 19 20  1  0  0  1
 20 21  4  0  0  1
 20 26  4  0  0  1
 21 22  1  0  0  2
 21 23  4  0  0  1
 23 24  4  0  0  1
 24 25  4  0  0  1
 25 26  4  0  0  1
  1 27  1  0  0  2
  1 28  1  0  0  2
  1 29  1  0  0  2
  2 30  1  0  0  2
  3 31  1  0  0  2
  3 32  1  0  0  2
  4 33  1  0  0  2
  4 34  1  0  0  2
  9 35  1  0  0  2
  9 36  1  0  0  2
 10 37  1  0  0  2
 12 38  1  0  0  2
 13 39  1  0  0  2
 14 40  1  0  0  2
 15 41  1  0  0  2
 16 42  1  0  0  2
 18 43  1  0  0  2
 22 44  1  0  0  2
 22 45  1  0  0  2
 24 46  1  0  0  2
M  END
> <MOLECULAR_FORMULA>
C14H20N6O5S

> <MOLECULAR_WEIGHT>
384.3

> <NUM_HB_ATOMS>
12 

> <NUM_ROTOR>
6  

> <XLOGP2>
-3.61

$$$$
