REMARK  11 active torsions:
REMARK  status: ('A' for Active; 'I' for Inactive)
REMARK    1  A    between atoms: N_1  and  CA_2 
REMARK    2  A    between atoms: CA_2  and  CB_3 
REMARK    3  A    between atoms: CA_2  and  C_6 
REMARK    4  A    between atoms: CB_3  and  CG_4 
REMARK    5  A    between atoms: CG_4  and  SD_5 
REMARK    6  A    between atoms: SD_5  and  C5'_9 
REMARK    7  A    between atoms: C5'_9  and  C4'_10 
REMARK    8  A    between atoms: C3'_12  and  O3'_13 
REMARK    9  A    between atoms: C2'_14  and  O2'_15 
REMARK   10  A    between atoms: C1'_16  and  N9_17 
REMARK   11  A    between atoms: C6_21  and  N6_22 
ROOT
ATOM      1  C4' SAH d          47.008   3.766  28.357  0.00  0.00     0.165 C 
ATOM      2  O4' SAH d          47.751   3.601  29.592  0.00  0.00    -0.355 OA
ATOM      3  C3' SAH d          46.055   4.888  28.593  0.00  0.00     0.180 C 
ATOM      4  C2' SAH d          46.279   5.278  30.003  0.00  0.00     0.198 C 
ATOM      5  C1' SAH d          46.904   4.057  30.599  0.00  0.00     0.262 C 
ENDROOT
BRANCH   1   6
ATOM      6  C5' SAH d          47.952   4.087  27.329  0.00  0.00     0.108 C 
BRANCH   6   7
ATOM      7  SD  SAH d          47.359   4.187  25.624  0.00  0.00    -0.166 SA
BRANCH   7   8
ATOM      8  CG  SAH d          47.276   2.469  25.028  0.00  0.00     0.076 C 
BRANCH   8   9
ATOM      9  CB  SAH d          45.984   1.748  25.427  0.00  0.00     0.054 C 
BRANCH   9  10
ATOM     10  CA  SAH d          45.891   0.276  24.885  0.00  0.00     0.284 C 
BRANCH  10  11
ATOM     11  N   SAH d          46.941  -0.571  25.505  0.00  0.00    -0.065 N 
ATOM     12  H1  SAH d          46.870  -0.512  26.509  0.00  0.00     0.275 HD
ATOM     13  H2  SAH d          47.850  -0.247  25.213  0.00  0.00     0.275 HD
ATOM     14  H3  SAH d          46.816  -1.528  25.215  0.00  0.00     0.275 HD
ENDBRANCH  10  11
BRANCH  10  15
ATOM     15  C   SAH d          45.997   0.188  23.416  0.00  0.00     0.204 C 
ATOM     16  O   SAH d          46.963  -0.365  22.916  0.00  0.00    -0.646 OA
ATOM     17  OXT SAH d          45.180   0.744  22.718  0.00  0.00    -0.646 OA
ENDBRANCH  10  15
ENDBRANCH   9  10
ENDBRANCH   8   9
ENDBRANCH   7   8
ENDBRANCH   6   7
ENDBRANCH   1   6
BRANCH   3  18
ATOM     18  O3' SAH d          44.731   4.457  28.317  0.00  0.00    -0.390 OA
ATOM     19  H13 SAH d          44.127   5.175  28.469  0.00  0.00     0.210 HD
ENDBRANCH   3  18
BRANCH   5  20
ATOM     20  N9  SAH d          47.662   4.304  31.882  0.00  0.00    -0.294 N 
ATOM     21  C8  SAH d          48.609   5.223  32.101  0.00  0.00     0.214 A 
ATOM     22  N7  SAH d          49.034   5.092  33.358  0.00  0.00    -0.236 NA
ATOM     23  C5  SAH d          48.366   4.078  33.940  0.00  0.00     0.149 A 
ATOM     24  C6  SAH d          48.389   3.516  35.228  0.00  0.00     0.155 A 
ATOM     25  C4  SAH d          47.472   3.570  32.986  0.00  0.00     0.167 A 
ATOM     26  N1  SAH d          47.558   2.493  35.489  0.00  0.00    -0.222 NA
ATOM     27  C2  SAH d          46.723   2.017  34.557  0.00  0.00     0.237 A 
ATOM     28  N3  SAH d          46.666   2.541  33.308  0.00  0.00    -0.222 NA
BRANCH  24  29
ATOM     29  N6  SAH d          49.236   3.993  36.197  0.00  0.00    -0.382 N 
ATOM     30  H18 SAH d          49.237   3.567  37.135  0.00  0.00     0.157 HD
ATOM     31  H19 SAH d          49.870   4.777  35.986  0.00  0.00     0.157 HD
ENDBRANCH  24  29
ENDBRANCH   5  20
BRANCH   4  32
ATOM     32  O2' SAH d          45.110   5.690  30.687  0.00  0.00    -0.388 OA
ATOM     33  H15 SAH d          44.480   4.979  30.692  0.00  0.00     0.210 HD
ENDBRANCH   4  32
TORSDOF 11
