REMARK  4 active torsions:
REMARK  status: ('A' for Active; 'I' for Inactive)
REMARK    1  A    between atoms: N2_2  and  C4_4 
REMARK    2  A    between atoms: C15_14  and  O17_15 
REMARK    3  A    between atoms: C18_16  and  O20_17 
REMARK    4  A    between atoms: C25_22  and  C29_26 
ROOT
ATOM      1  C4  C1I d           2.576  15.607  -3.704  0.00  0.00     0.221 C 
ATOM      2  C6  C1I d           1.077  15.447  -3.875  0.00  0.00     0.079 C 
ATOM      3  C7  C1I d           0.693  14.622  -5.096  0.00  0.00     0.090 C 
ATOM      4  C8  C1I d           0.740  13.106  -4.880  0.00  0.00     0.046 C 
ATOM      5  C9  C1I d          -0.363  12.607  -5.857  0.00  0.00     0.047 C 
ATOM      6  C10 C1I d          -1.068  13.874  -6.371  0.00  0.00     0.093 C 
ATOM      7  O11 C1I d          -0.700  14.881  -5.410  0.00  0.00    -0.359 OA
ATOM      8  C12 C1I d          -0.406  14.324  -7.677  0.00  0.00    -0.027 C 
ATOM      9  C13 C1I d           0.962  14.790  -7.534  0.00  0.00     0.018 C 
ATOM     10  C14 C1I d           1.535  14.960  -6.307  0.00  0.00    -0.014 C 
ATOM     11  C15 C1I d           2.953  15.428  -6.181  0.00  0.00     0.181 C 
ATOM     12  C18 C1I d           3.168  16.279  -4.940  0.00  0.00     0.182 C 
ATOM     13  C21 C1I d          -1.028  14.305  -8.830  0.00  0.00    -0.016 C 
ATOM     14  C22 C1I d          -2.445  13.841  -9.008  0.00  0.00     0.038 C 
ATOM     15  C23 C1I d          -2.967  13.074  -7.818  0.00  0.00    -0.026 C 
ATOM     16  C24 C1I d          -2.447  11.639  -7.852  0.00  0.00     0.016 C 
ATOM     17  C25 C1I d          -4.465  13.078  -7.571  0.00  0.00     0.027 C 
ATOM     18  C26 C1I d          -4.588  12.511  -6.140  0.00  0.00     0.010 C 
ATOM     19  C27 C1I d          -3.275  12.925  -5.436  0.00  0.00     0.009 C 
ATOM     20  C28 C1I d          -2.566  13.778  -6.494  0.00  0.00     0.034 C 
ENDROOT
BRANCH  17  21
ATOM     21  C29 C1I d          -5.274  12.320  -8.592  0.00  0.00    -0.052 A 
ATOM     22  C30 C1I d          -5.929  11.176  -8.271  0.00  0.00     0.021 A 
ATOM     23  C31 C1I d          -6.685  10.521  -9.246  0.00  0.00    -0.008 A 
ATOM     24  C32 C1I d          -7.378   9.334  -8.988  0.00  0.00     0.128 A 
ATOM     25  C36 C1I d          -6.764  11.068 -10.542  0.00  0.00    -0.023 A 
ATOM     26  N33 C1I d          -8.075   8.765  -9.933  0.00  0.00    -0.272 NA
ATOM     27  C34 C1I d          -8.160   9.249 -11.152  0.00  0.00     0.117 A 
ATOM     28  C35 C1I d          -7.528  10.394 -11.498  0.00  0.00     0.031 A 
ATOM     29  C37 C1I d          -6.086  12.251 -10.834  0.00  0.00     0.013 A 
ATOM     30  C38 C1I d          -5.363  12.856  -9.865  0.00  0.00     0.008 A 
ENDBRANCH  17  21
BRANCH  11  31
ATOM     31  O17 C1I d           3.290  16.212  -7.318  0.00  0.00    -0.388 OA
ATOM     32  H17 C1I d           4.189  16.510  -7.241  0.00  0.00     0.210 HD
ENDBRANCH  11  31
BRANCH   1  33
ATOM     33  N2  C1I d           2.814  16.463  -2.538  0.00  0.00    -0.072 N 
ATOM     34  C1  C1I d           2.219  17.791  -2.715  0.00  0.00     0.269 C 
ATOM     35  C3  C1I d           2.275  15.857  -1.319  0.00  0.00     0.269 C 
ATOM     36  H4  C1I d           3.810  16.572  -2.429  0.00  0.00     0.279 HD
ENDBRANCH   1  33
BRANCH  12  37
ATOM     37  O20 C1I d           4.566  16.447  -4.747  0.00  0.00    -0.391 OA
ATOM     38  H19 C1I d           4.940  16.879  -5.506  0.00  0.00     0.210 HD
ENDBRANCH  12  37
TORSDOF 4
