REMARK  15 active torsions:
REMARK  status: ('A' for Active; 'I' for Inactive)
REMARK    1  A    between atoms: C6_6  and  O1_39 
REMARK    2  A    between atoms: O1_39  and  C10_10 
REMARK    3  A    between atoms: C10_10  and  C11_11 
REMARK       I    between atoms: C11_11  and  N2_35 
REMARK    4  A    between atoms: C26_26  and  C12_12 
REMARK    5  A    between atoms: C12_12  and  S1_45 
REMARK    6  A    between atoms: C26_26  and  C13_13 
REMARK       I    between atoms: C13_13  and  N3_36 
REMARK    7  A    between atoms: N3_36  and  C14_14 
REMARK    8  A    between atoms: C14_14  and  C16_16 
REMARK    9  A    between atoms: C14_14  and  C15_15 
REMARK   10  A    between atoms: C15_15  and  O2_40 
REMARK   11  A    between atoms: C15_15  and  C17_17 
REMARK   12  A    between atoms: C16_16  and  C28_28 
REMARK       I    between atoms: C17_17  and  N4_37 
REMARK   13  A    between atoms: C18_18  and  C21_21 
REMARK       I    between atoms: C21_21  and  N5_38 
REMARK   14  A    between atoms: N5_38  and  C22_22 
REMARK   15  A    between atoms: N2_35  and  C26_26 
ROOT
ATOM      1  C14 KNI d           5.350   0.082  14.274  0.00  0.00     0.126 C 
ENDROOT
BRANCH   1   2
ATOM      2  N3  KNI d           4.496   0.982  13.492  0.00  0.00    -0.351 N 
ATOM      3  C13 KNI d           3.783   0.542  12.457  0.00  0.00     0.241 C 
ATOM      4  O6  KNI d           3.758  -0.629  12.111  0.00  0.00    -0.271 OA
ATOM      5  H39 KNI d           4.448   1.949  13.742  0.00  0.00     0.163 HD
BRANCH   3   6
ATOM      6  C26 KNI d           3.028   1.603  11.696  0.00  0.00     0.185 C 
BRANCH   6   7
ATOM      7  N2  KNI d           3.955   2.384  10.893  0.00  0.00    -0.345 N 
ATOM      8  C11 KNI d           4.067   3.683  11.106  0.00  0.00     0.242 C 
ATOM      9  O3  KNI d           3.327   4.297  11.852  0.00  0.00    -0.271 OA
ATOM     10  H38 KNI d           4.504   1.941  10.184  0.00  0.00     0.163 HD
BRANCH   8  11
ATOM     11  C10 KNI d           5.140   4.375  10.352  0.00  0.00     0.278 C 
BRANCH  11  12
ATOM     12  O1  KNI d           5.235   3.791   9.082  0.00  0.00    -0.341 OA
BRANCH  12  13
ATOM     13  C6  KNI d           6.352   4.170   8.347  0.00  0.00     0.080 A 
ATOM     14  C3  KNI d           6.886   3.273   7.363  0.00  0.00     0.010 A 
ATOM     15  C2  KNI d           6.303   2.017   7.116  0.00  0.00     0.034 A 
ATOM     16  C4  KNI d           7.991   3.592   6.613  0.00  0.00    -0.006 A 
ATOM     17  C1  KNI d           6.848   1.181   6.159  0.00  0.00     0.117 A 
ATOM     18  N1  KNI d           7.907   1.459   5.427  0.00  0.00    -0.272 NA
ATOM     19  C5  KNI d           8.468   2.649   5.645  0.00  0.00     0.128 A 
ATOM     20  C9  KNI d           8.629   4.846   6.816  0.00  0.00     0.014 A 
ATOM     21  C8  KNI d           8.109   5.715   7.774  0.00  0.00     0.004 A 
ATOM     22  C7  KNI d           7.000   5.388   8.521  0.00  0.00     0.038 A 
ENDBRANCH  12  13
ENDBRANCH  11  12
ENDBRANCH   8  11
ENDBRANCH   6   7
BRANCH   6  23
ATOM     23  C12 KNI d           1.944   1.001  10.835  0.00  0.00     0.108 C 
BRANCH  23  24
ATOM     24  S1  KNI d           0.668   0.435  11.993  0.00  0.00    -0.171 SA
ATOM     25  C27 KNI d          -0.158   2.056  12.160  0.00  0.00     0.089 C 
ENDBRANCH  23  24
ENDBRANCH   6  23
ENDBRANCH   3   6
ENDBRANCH   1   2
BRANCH   1  26
ATOM     26  C16 KNI d           6.775   0.654  14.347  0.00  0.00     0.066 C 
BRANCH  26  27
ATOM     27  C28 KNI d           7.372   0.900  12.976  0.00  0.00    -0.056 A 
ATOM     28  C33 KNI d           7.899  -0.146  12.245  0.00  0.00     0.007 A 
ATOM     29  C32 KNI d           8.437   0.066  10.993  0.00  0.00     0.001 A 
ATOM     30  C31 KNI d           8.465   1.319  10.446  0.00  0.00     0.000 A 
ATOM     31  C30 KNI d           7.949   2.368  11.171  0.00  0.00     0.001 A 
ATOM     32  C29 KNI d           7.401   2.166  12.426  0.00  0.00     0.007 A 
ENDBRANCH  26  27
ENDBRANCH   1  26
BRANCH   1  33
ATOM     33  C15 KNI d           4.705  -0.180  15.642  0.00  0.00     0.233 C 
BRANCH  33  34
ATOM     34  O2  KNI d           4.949   0.934  16.427  0.00  0.00    -0.384 OA
ATOM     35  H41 KNI d           5.887   1.058  16.516  0.00  0.00     0.210 HD
ENDBRANCH  33  34
BRANCH  33  36
ATOM     36  C17 KNI d           5.339  -1.386  16.330  0.00  0.00     0.252 C 
ATOM     37  N4  KNI d           4.742  -2.565  16.064  0.00  0.00    -0.327 N 
ATOM     38  C18 KNI d           5.373  -3.819  16.506  0.00  0.00     0.189 C 
ATOM     39  C20 KNI d           3.544  -2.664  15.224  0.00  0.00     0.201 C 
ATOM     40  C19 KNI d           4.427  -4.993  16.258  0.00  0.00     0.110 C 
ATOM     41  S2  KNI d           3.263  -4.440  14.973  0.00  0.00    -0.147 SA
ATOM     42  O4  KNI d           6.324  -1.234  17.045  0.00  0.00    -0.270 OA
BRANCH  38  43
ATOM     43  C21 KNI d           6.653  -3.979  15.741  0.00  0.00     0.242 C 
ATOM     44  N5  KNI d           7.637  -4.575  16.403  0.00  0.00    -0.351 N 
ATOM     45  H40 KNI d           7.433  -4.998  17.286  0.00  0.00     0.163 HD
ATOM     46  O5  KNI d           6.746  -3.574  14.588  0.00  0.00    -0.271 OA
BRANCH  44  47
ATOM     47  C22 KNI d           9.013  -4.639  15.892  0.00  0.00     0.022 C 
ATOM     48  C25 KNI d           9.880  -5.183  17.021  0.00  0.00     0.037 C 
ATOM     49  C24 KNI d           9.097  -5.567  14.678  0.00  0.00     0.037 C 
ATOM     50  C23 KNI d           9.556  -3.249  15.542  0.00  0.00     0.037 C 
ENDBRANCH  44  47
ENDBRANCH  38  43
ENDBRANCH  33  36
ENDBRANCH   1  33
TORSDOF 15
