REMARK  11 active torsions:
REMARK  status: ('A' for Active; 'I' for Inactive)
REMARK    1  A    between atoms: C2_2  and  C7_7 
REMARK    2  A    between atoms: C8_15  and  C4_4 
REMARK    3  A    between atoms: C14_10  and  C16_12 
REMARK    4  A    between atoms: C15_11  and  C9_30 
REMARK    5  A    between atoms: O3_27  and  C32_16 
REMARK    6  A    between atoms: C36_20  and  O14_26 
REMARK    7  A    between atoms: C37_21  and  C38_22 
REMARK    8  A    between atoms: C38_22  and  O13_24 
REMARK    9  A    between atoms: C40_28  and  O3_27 
REMARK   10  A    between atoms: C40_28  and  C41_29 
REMARK   11  A    between atoms: C9_30  and  O4_31 
ROOT
ATOM      1  C1  IX1 d          32.896  31.790  18.557  0.00  0.00     0.014 A 
ATOM      2  C2  IX1 d          32.428  30.907  19.584  0.00  0.00     0.001 A 
ATOM      3  C3  IX1 d          31.024  30.664  19.675  0.00  0.00     0.025 A 
ATOM      4  C4  IX1 d          30.100  31.272  18.778  0.00  0.00    -0.036 A 
ATOM      5  C5  IX1 d          30.589  32.151  17.755  0.00  0.00     0.011 A 
ATOM      6  C6  IX1 d          31.982  32.404  17.650  0.00  0.00     0.002 A 
ENDROOT
BRANCH   4   7
ATOM      7  C8  IX1 d          28.653  30.985  18.929  0.00  0.00     0.009 C 
ATOM      8  C41 IX1 d          28.062  31.481  20.051  0.00  0.00     0.000 C 
BRANCH   8   9
ATOM      9  C40 IX1 d          26.649  31.413  20.583  0.00  0.00     0.203 C 
BRANCH   9  10
ATOM     10  O3  IX1 d          26.165  30.091  20.913  0.00  0.00    -0.346 OA
BRANCH  10  11
ATOM     11  C32 IX1 d          24.811  29.969  21.426  0.00  0.00     0.088 A 
ATOM     12  C33 IX1 d          23.945  31.122  21.618  0.00  0.00     0.038 A 
ATOM     13  C34 IX1 d          22.621  31.001  22.119  0.00  0.00     0.005 A 
ATOM     14  C35 IX1 d          22.115  29.732  22.447  0.00  0.00     0.038 A 
ATOM     15  C36 IX1 d          22.915  28.572  22.281  0.00  0.00     0.084 A 
ATOM     16  C37 IX1 d          24.262  28.660  21.774  0.00  0.00     0.105 A 
BRANCH  15  17
ATOM     17  O14 IX1 d          22.308  27.382  22.636  0.00  0.00    -0.360 OA
ATOM     18  H12 IX1 d          22.808  26.967  23.328  0.00  0.00     0.217 HD
ENDBRANCH  15  17
BRANCH  16  19
ATOM     19  C38 IX1 d          25.034  27.380  21.632  0.00  0.00     0.298 C 
ATOM     20  O11 IX1 d          25.126  26.601  22.558  0.00  0.00    -0.259 OA
BRANCH  19  21
ATOM     21  O13 IX1 d          25.607  27.146  20.428  0.00  0.00    -0.322 OA
ATOM     22  C39 IX1 d          26.362  25.916  20.223  0.00  0.00     0.213 C 
ENDBRANCH  19  21
ENDBRANCH  16  19
ENDBRANCH  10  11
ENDBRANCH   9  10
ENDBRANCH   8   9
ENDBRANCH   4   7
BRANCH   2  23
ATOM     23  C7  IX1 d          33.316  30.219  20.589  0.00  0.00     0.122 A 
ATOM     24  O12 IX1 d          32.695  29.515  21.609  0.00  0.00    -0.211 OA
ATOM     25  N13 IX1 d          33.709  28.982  22.416  0.00  0.00    -0.120 NA
ATOM     26  C14 IX1 d          34.912  29.341  21.914  0.00  0.00     0.171 A 
ATOM     27  C15 IX1 d          34.678  30.158  20.699  0.00  0.00     0.040 A 
BRANCH  26  28
ATOM     28  C16 IX1 d          36.257  28.945  22.542  0.00  0.00     0.232 C 
ATOM     29  O1  IX1 d          37.209  29.917  22.584  0.00  0.00    -0.643 OA
ATOM     30  O2  IX1 d          36.431  27.834  22.987  0.00  0.00    -0.643 OA
ENDBRANCH  26  28
BRANCH  27  31
ATOM     31  C9  IX1 d          35.838  30.722  19.893  0.00  0.00     0.208 C 
BRANCH  31  32
ATOM     32  O4  IX1 d          35.816  30.293  18.540  0.00  0.00    -0.396 OA
ATOM     33  H18 IX1 d          36.556  30.669  18.078  0.00  0.00     0.209 HD
ENDBRANCH  31  32
ENDBRANCH  27  31
ENDBRANCH   2  23
TORSDOF 11
