REMARK  5 active torsions:
REMARK  status: ('A' for Active; 'I' for Inactive)
REMARK    1  A    between atoms: C4A_13  and  N4A_2 
REMARK    2  A    between atoms: C7_5  and  O1_4 
REMARK    3  A    between atoms: C6_6  and  C7_5 
REMARK    4  A    between atoms: C5_9  and  C6_6 
REMARK    5  A    between atoms: C5A_18  and  C7A_12 
ROOT
ATOM      1  CM4 VIB d          16.056  46.270   3.044  0.00  0.00     0.069 C 
ATOM      2  C2  VIB d          17.044  46.203   6.529  0.00  0.00     0.141 A 
ATOM      3  S1  VIB d          18.685  46.075   6.115  0.00  0.00    -0.087 SA
ATOM      4  C5  VIB d          18.124  46.115   4.553  0.00  0.00     0.008 A 
ATOM      5  C4  VIB d          16.781  46.228   4.375  0.00  0.00     0.021 A 
ATOM      6  N3  VIB d          16.174  46.273   5.545  0.00  0.00    -0.349 N 
ATOM      7  C7A VIB d          14.856  46.342   5.747  0.00  0.00     0.172 C 
ENDROOT
BRANCH   7   8
ATOM      8  C5A VIB d          14.073  45.264   5.410  0.00  0.00     0.023 C 
ATOM      9  C4A VIB d          14.062  44.114   6.135  0.00  0.00     0.132 C 
ATOM     10  N3A VIB d          13.282  43.095   5.796  0.00  0.00    -0.216 NA
ATOM     11  C2A VIB d          12.596  43.093   4.547  0.00  0.00     0.124 C 
ATOM     12  CM2 VIB d          11.651  41.944   4.241  0.00  0.00     0.093 C 
ATOM     13  N1A VIB d          12.543  44.372   3.858  0.00  0.00    -0.245 NA
ATOM     14  C6A VIB d          13.340  45.360   4.273  0.00  0.00     0.131 C 
BRANCH   9  15
ATOM     15  N4A VIB d          14.765  43.937   7.266  0.00  0.00    -0.383 N 
ATOM     16  H4  VIB d          15.396  44.679   7.602  0.00  0.00     0.157 HD
ATOM     17  H5  VIB d          14.673  43.059   7.797  0.00  0.00     0.157 HD
ENDBRANCH   9  15
ENDBRANCH   7   8
BRANCH   4  18
ATOM     18  C6  VIB d          19.185  46.063   3.472  0.00  0.00     0.074 C 
BRANCH  18  19
ATOM     19  C7  VIB d          19.288  44.642   2.973  0.00  0.00     0.169 C 
BRANCH  19  20
ATOM     20  O1  VIB d          19.478  44.775   1.579  0.00  0.00    -0.401 OA
ATOM     21  H9  VIB d          19.553  43.913   1.187  0.00  0.00     0.209 HD
ENDBRANCH  19  20
ENDBRANCH  18  19
ENDBRANCH   4  18
TORSDOF 5
