REMARK  7 active torsions:
REMARK  status: ('A' for Active; 'I' for Inactive)
REMARK    1  A    between atoms: C25_6  and  N26_7 
REMARK    2  A    between atoms: N26_7  and  C27_8 
REMARK    3  A    between atoms: C27_8  and  C28_9 
REMARK    4  A    between atoms: C28_9  and  O29_10 
REMARK    5  A    between atoms: C20_14  and  N21_15 
REMARK    6  A    between atoms: C7_18  and  C8_20 
REMARK    7  A    between atoms: C8_20  and  C9_21 
ROOT
ATOM      1  F1  IK9 d           3.935  16.778  26.264  0.00  0.00    -0.206 F 
ATOM      2  C2  IK9 d           4.464  15.671  25.698  0.00  0.00     0.120 A 
ATOM      3  C4  IK9 d           3.650  14.644  25.231  0.00  0.00     0.075 A 
ATOM      4  C5  IK9 d           4.245  13.510  24.671  0.00  0.00     0.078 A 
ATOM      5  C24 IK9 d           5.636  13.393  24.570  0.00  0.00     0.066 A 
ATOM      6  C25 IK9 d           6.456  14.430  25.037  0.00  0.00     0.047 A 
ATOM      7  C3  IK9 d           5.848  15.560  25.586  0.00  0.00     0.072 A 
ATOM      8  C23 IK9 d           6.126  12.217  23.990  0.00  0.00     0.162 A 
ATOM      9  N22 IK9 d           7.401  11.809  23.752  0.00  0.00    -0.171 N 
ATOM     10  C20 IK9 d           7.255  10.581  23.162  0.00  0.00     0.717 A 
ATOM     11  N19 IK9 d           5.986  10.151  23.009  0.00  0.00     0.027 NA
ATOM     12  N18 IK9 d           5.318  11.247  23.570  0.00  0.00    -0.186 N 
ATOM     13  C7  IK9 d           3.984  11.386  23.654  0.00  0.00     0.135 A 
ATOM     14  N6  IK9 d           3.456  12.500  24.226  0.00  0.00    -0.232 NA
ATOM     15  H1  IK9 d           8.276  12.309  23.966  0.00  0.00     0.186 HD
ENDROOT
BRANCH  13  16
ATOM     16  C8  IK9 d           3.059  10.277  23.220  0.00  0.00     0.119 C 
BRANCH  16  17
ATOM     17  C9  IK9 d           3.159   9.290  24.387  0.00  0.00    -0.048 A 
ATOM     18  C17 IK9 d           3.661   7.998  24.154  0.00  0.00     0.010 A 
ATOM     19  C16 IK9 d           3.802   7.029  25.160  0.00  0.00     0.040 A 
ATOM     20  C15 IK9 d           3.425   7.395  26.447  0.00  0.00     0.105 A 
ATOM     21  C11 IK9 d           2.909   8.727  26.712  0.00  0.00     0.105 A 
ATOM     22  O14 IK9 d           3.435   6.687  27.617  0.00  0.00    -0.323 OA
ATOM     23  C10 IK9 d           2.779   9.670  25.692  0.00  0.00     0.047 A 
ATOM     24  O12 IK9 d           2.620   8.807  28.053  0.00  0.00    -0.323 OA
ATOM     25  C13 IK9 d           2.841   7.508  28.651  0.00  0.00     0.352 A 
ENDBRANCH  16  17
ENDBRANCH  13  16
BRANCH  10  26
ATOM     26  N21 IK9 d           8.322   9.818  22.759  0.00  0.00    -0.231 N 
ATOM     27  H   IK9 d           9.282  10.168  22.886  0.00  0.00     0.174 HD
ATOM     28  H   IK9 d           8.162   8.896  22.329  0.00  0.00     0.174 HD
ENDBRANCH  10  26
BRANCH   6  29
ATOM     29  N26 IK9 d           7.819  14.353  24.953  0.00  0.00    -0.387 N 
ATOM     30  H   IK9 d           8.245  13.515  24.532  0.00  0.00     0.159 HD
BRANCH  29  31
ATOM     31  C27 IK9 d           8.695  15.426  25.443  0.00  0.00     0.146 C 
BRANCH  31  32
ATOM     32  C28 IK9 d           8.817  15.174  26.954  0.00  0.00     0.183 C 
BRANCH  32  33
ATOM     33  O29 IK9 d           9.855  15.970  27.541  0.00  0.00    -0.399 OA
ATOM     34  H   IK9 d           9.902  15.790  28.473  0.00  0.00     0.209 HD
ENDBRANCH  32  33
ENDBRANCH  31  32
ENDBRANCH  29  31
ENDBRANCH   6  29
TORSDOF 7
