REMARK  2 active torsions:
REMARK  status: ('A' for Active; 'I' for Inactive)
REMARK    1  A    between atoms: S_1  and  C2_4 
REMARK    2  A    between atoms: S_1  and  NH_9 
ROOT
ATOM      1  S   EVI d          15.167   0.977  16.807  0.00  0.00     0.281 S 
ATOM      2  O1  EVI d          13.741   1.189  16.708  0.00  0.00    -0.199 OA
ATOM      3  O2  EVI d          15.529   0.976  18.188  0.00  0.00    -0.199 OA
ENDROOT
BRANCH   1   4
ATOM      4  C2  EVI d          15.903   2.306  16.074  0.00  0.00     0.212 A 
ATOM      5  S1  EVI d          15.116   3.577  15.209  0.00  0.00    -0.067 SA
ATOM      6  C5  EVI d          16.608   4.349  14.829  0.00  0.00     0.071 A 
ATOM      7  C4  EVI d          17.638   3.575  15.405  0.00  0.00     0.126 A 
ATOM      8  N3  EVI d          17.201   2.460  16.122  0.00  0.00    -0.240 NA
ENDBRANCH   1   4
BRANCH   1   9
ATOM      9  NH  EVI d          15.807  -0.317  16.193  0.00  0.00    -0.323 N 
ATOM     10  H3  EVI d          16.793  -0.467  16.260  0.00  0.00     0.169 HD
ATOM     11  H4  EVI d          15.229  -0.992  15.735  0.00  0.00     0.169 HD
ENDBRANCH   1   9
TORSDOF 2
