REMARK  6 active torsions:
REMARK  status: ('A' for Active; 'I' for Inactive)
REMARK    1  A    between atoms: C6_6  and  O29_16 
REMARK    2  A    between atoms: C8_7  and  C17_10 
REMARK    3  A    between atoms: C19_12  and  O23_25 
REMARK    4  A    between atoms: C32_17  and  C34_18 
REMARK       I    between atoms: N7_29  and  C32_17 
REMARK    5  A    between atoms: O23_25  and  C22_26 
REMARK    6  A    between atoms: C22_26  and  C26_27 
ROOT
ATOM      1  C1  IX6 d         -20.970  -6.889  30.011  0.00  0.00     0.039 A 
ATOM      2  C2  IX6 d         -21.205  -7.902  29.137  0.00  0.00     0.005 A 
ATOM      3  C3  IX6 d         -22.473  -8.058  28.618  0.00  0.00     0.032 A 
ATOM      4  C4  IX6 d         -23.534  -7.180  28.951  0.00  0.00     0.068 A 
ATOM      5  C5  IX6 d         -23.288  -6.176  29.864  0.00  0.00     0.093 A 
ATOM      6  C6  IX6 d         -21.990  -6.032  30.352  0.00  0.00     0.094 A 
ATOM      7  C8  IX6 d         -25.905  -7.585  29.436  0.00  0.00     0.176 C 
ATOM      8  C15 IX6 d         -26.156  -3.879  30.851  0.00  0.00     0.068 C 
ATOM      9  C24 IX6 d         -27.546  -4.718  32.769  0.00  0.00     0.016 C 
ATOM     10  C32 IX6 d         -24.973  -7.402  27.059  0.00  0.00     0.280 C 
ATOM     11  N7  IX6 d         -24.831  -7.410  28.436  0.00  0.00    -0.296 N 
ATOM     12  O33 IX6 d         -25.956  -7.997  26.683  0.00  0.00    -0.265 OA
ATOM     13  C9  IX6 d         -26.358  -6.216  29.895  0.00  0.00     0.087 C 
ATOM     14  S12 IX6 d         -28.075  -5.975  29.777  0.00  0.00     0.176 S 
ATOM     15  O30 IX6 d         -28.658  -7.054  30.532  0.00  0.00    -0.223 OA
ATOM     16  O31 IX6 d         -28.357  -5.964  28.362  0.00  0.00    -0.223 OA
ATOM     17  C13 IX6 d         -28.547  -4.392  30.466  0.00  0.00     0.154 C 
ATOM     18  C14 IX6 d         -27.546  -3.860  31.506  0.00  0.00    -0.029 C 
ATOM     19  C25 IX6 d         -27.907  -2.412  31.831  0.00  0.00     0.016 C 
ATOM     20  C10 IX6 d         -25.588  -5.189  30.315  0.00  0.00     0.030 C 
ATOM     21  N11 IX6 d         -24.199  -5.202  30.291  0.00  0.00    -0.354 N 
ATOM     22  H32 IX6 d         -23.761  -4.342  30.651  0.00  0.00     0.166 HD
ENDROOT
BRANCH   7  23
ATOM     23  C17 IX6 d         -25.436  -8.524  30.552  0.00  0.00     0.009 A 
ATOM     24  C16 IX6 d         -25.322  -8.138  31.882  0.00  0.00     0.015 A 
ATOM     25  C18 IX6 d         -24.883  -9.021  32.836  0.00  0.00     0.037 A 
ATOM     26  C19 IX6 d         -24.536 -10.320  32.485  0.00  0.00     0.072 A 
ATOM     27  C20 IX6 d         -24.612 -10.700  31.152  0.00  0.00     0.079 A 
ATOM     28  C21 IX6 d         -25.063  -9.818  30.209  0.00  0.00     0.127 A 
ATOM     29  F41 IX6 d         -25.145 -10.214  28.950  0.00  0.00    -0.205 F 
BRANCH  26  30
ATOM     30  O23 IX6 d         -24.091 -11.230  33.394  0.00  0.00    -0.347 OA
BRANCH  30  31
ATOM     31  C22 IX6 d         -24.031 -11.053  34.801  0.00  0.00     0.208 C 
BRANCH  31  32
ATOM     32  C26 IX6 d         -25.407 -10.984  35.429  0.00  0.00    -0.069 C 
ATOM     33  C27 IX6 d         -26.448 -11.660  34.911  0.00  0.00     0.016 C 
ATOM     34  C28 IX6 d         -25.639 -10.168  36.665  0.00  0.00     0.044 C 
ENDBRANCH  31  32
ENDBRANCH  30  31
ENDBRANCH  26  30
ENDBRANCH   7  23
BRANCH  10  35
ATOM     35  C34 IX6 d         -24.084  -6.828  26.035  0.00  0.00     0.156 A 
ATOM     36  C35 IX6 d         -23.624  -5.539  25.952  0.00  0.00     0.085 A 
ATOM     37  C40 IX6 d         -23.946  -4.393  26.873  0.00  0.00     0.079 C 
ATOM     38  O36 IX6 d         -22.917  -5.446  24.961  0.00  0.00    -0.298 OA
ATOM     39  C37 IX6 d         -22.831  -6.535  24.397  0.00  0.00     0.142 A 
ATOM     40  C39 IX6 d         -22.015  -6.764  23.145  0.00  0.00     0.100 C 
ATOM     41  N38 IX6 d         -23.549  -7.490  25.015  0.00  0.00    -0.221 NA
ENDBRANCH  10  35
BRANCH   6  42
ATOM     42  O29 IX6 d         -21.747  -5.043  31.217  0.00  0.00    -0.358 OA
ATOM     43  H14 IX6 d         -20.830  -5.060  31.466  0.00  0.00     0.217 HD
ENDBRANCH   6  42
TORSDOF 6
