REMARK  5 active torsions:
REMARK  status: ('A' for Active; 'I' for Inactive)
REMARK    1  A    between atoms: CAH_8  and  CAI_9 
REMARK    2  A    between atoms: CAJ_10  and  CAH_8 
REMARK    3  A    between atoms: CAI_9  and  OAM_13 
REMARK    4  A    between atoms: CAR_18  and  CAJ_10 
REMARK    5  A    between atoms: OAM_13  and  CAQ_17 
ROOT
ATOM      1  CAH MOL d           0.567   0.318  -6.834  0.00  0.00     0.031 C 
ENDROOT
BRANCH   1   2
ATOM      2  CAI MOL d           0.276   0.275  -5.327  0.00  0.00     0.176 C 
BRANCH   2   3
ATOM      3  OAM MOL d           0.843  -0.994  -5.032  0.00  0.00    -0.348 OA
BRANCH   3   4
ATOM      4  CAQ MOL d           1.341  -1.061  -3.766  0.00  0.00     0.107 A 
ATOM      5  CAG MOL d           0.677  -0.505  -2.683  0.00  0.00     0.040 A 
ATOM      6  CAE MOL d           1.284  -0.665  -1.430  0.00  0.00     0.003 A 
ATOM      7  CAD MOL d           2.488  -1.343  -1.316  0.00  0.00     0.003 A 
ATOM      8  CAF MOL d           3.117  -1.889  -2.404  0.00  0.00     0.045 A 
ATOM      9  CAN MOL d           2.532  -1.761  -3.634  0.00  0.00     0.149 A 
ATOM     10  FAC MOL d           3.144  -2.251  -4.739  0.00  0.00    -0.203 F 
ENDBRANCH   3   4
ENDBRANCH   2   3
ENDBRANCH   1   2
BRANCH   1  11
ATOM     11  CAJ MOL d          -0.648  -0.078  -7.702  0.00  0.00     0.045 C 
BRANCH  11  12
ATOM     12  CAR MOL d          -0.295  -0.080  -9.193  0.00  0.00    -0.008 A 
ATOM     13  CAO MOL d           0.024  -1.141 -10.015  0.00  0.00     0.059 A 
ATOM     14  CAA MOL d           0.112  -2.597  -9.563  0.00  0.00     0.073 C 
ATOM     15  NAK MOL d           0.257  -0.686 -11.259  0.00  0.00    -0.179 NA
ATOM     16  NAL MOL d           0.106   0.565 -11.295  0.00  0.00    -0.282 N 
ATOM     17  CAP MOL d          -0.228   0.993 -10.072  0.00  0.00     0.032 A 
ATOM     18  H17 MOL d           0.221   1.159 -12.128  0.00  0.00     0.189 HD
ATOM     19  CAB MOL d          -0.515   2.455  -9.724  0.00  0.00     0.070 C 
ENDBRANCH  11  12
ENDBRANCH   1  11
TORSDOF 5
