REMARK  9 active torsions:
REMARK  status: ('A' for Active; 'I' for Inactive)
REMARK    1  A    between atoms: C13_2  and  C16_5 
REMARK       I    between atoms: C20_7  and  N9_20 
REMARK       I    between atoms: N21_24  and  C20_7 
REMARK    2  A    between atoms: C24_9  and  C23_8 
REMARK    3  A    between atoms: C23_8  and  N21_24 
REMARK    4  A    between atoms: C7_18  and  C2_13 
REMARK    5  A    between atoms: C8_19  and  C7_18 
REMARK    6  A    between atoms: N9_20  and  C8_19 
REMARK    7  A    between atoms: C8_19  and  C10_21 
REMARK    8  A    between atoms: C25_26  and  N31_31 
REMARK    9  A    between atoms: C40_40  and  N41_41 
ROOT
ATOM      1  C8  MOL d          39.983 -20.873  28.689  0.00  0.00     0.160 C 
ENDROOT
BRANCH   1   2
ATOM      2  C7  MOL d          39.486 -22.034  27.809  0.00  0.00     0.071 C 
BRANCH   2   3
ATOM      3  C2  MOL d          40.007 -23.381  28.261  0.00  0.00    -0.056 A 
ATOM      4  C1  MOL d          40.796 -24.152  27.417  0.00  0.00     0.007 A 
ATOM      5  C6  MOL d          41.419 -25.299  27.881  0.00  0.00     0.001 A 
ATOM      6  C5  MOL d          41.258 -25.696  29.196  0.00  0.00     0.000 A 
ATOM      7  C4  MOL d          40.459 -24.954  30.036  0.00  0.00     0.001 A 
ATOM      8  C3  MOL d          39.824 -23.815  29.568  0.00  0.00     0.007 A 
ENDBRANCH   2   3
ENDBRANCH   1   2
BRANCH   1   9
ATOM      9  N9  MOL d          39.364 -19.604  28.314  0.00  0.00    -0.331 N 
ATOM     10  C20 MOL d          39.275 -18.613  29.259  0.00  0.00     0.317 C 
ATOM     11  N21 MOL d          38.681 -17.451  28.886  0.00  0.00    -0.339 N 
ATOM     12  O22 MOL d          39.778 -18.745  30.379  0.00  0.00    -0.247 OA
ATOM     13  H17 MOL d          39.011 -16.604  29.303  0.00  0.00     0.164 HD
ATOM     14  H15 MOL d          39.013 -19.461  27.389  0.00  0.00     0.165 HD
BRANCH  11  15
ATOM     15  C23 MOL d          37.592 -17.352  27.917  0.00  0.00     0.165 C 
BRANCH  15  16
ATOM     16  C24 MOL d          36.918 -15.994  27.902  0.00  0.00    -0.010 A 
ATOM     17  C25 MOL d          37.405 -14.950  27.096  0.00  0.00     0.069 A 
ATOM     18  C26 MOL d          36.790 -13.695  27.133  0.00  0.00     0.034 A 
ATOM     19  C27 MOL d          35.693 -13.472  27.953  0.00  0.00     0.026 A 
ATOM     20  C28 MOL d          35.213 -14.511  28.725  0.00  0.00     0.034 A 
ATOM     21  C29 MOL d          35.814 -15.753  28.715  0.00  0.00     0.035 A 
ATOM     22 CL2  MOL d          33.781 -14.270  29.702  0.00  0.00    -0.084 Cl
BRANCH  17  23
ATOM     23  N31 MOL d          38.555 -15.118  26.259  0.00  0.00    -0.206 N 
ATOM     24  C32 MOL d          38.717 -15.086  24.926  0.00  0.00     0.262 A 
ATOM     25  N33 MOL d          39.956 -15.366  24.626  0.00  0.00    -0.122 NA
ATOM     26  N34 MOL d          40.582 -15.573  25.813  0.00  0.00    -0.023 NA
ATOM     27  N35 MOL d          39.760 -15.417  26.804  0.00  0.00    -0.040 NA
ENDBRANCH  17  23
ENDBRANCH  15  16
ENDBRANCH  11  15
ENDBRANCH   1   9
BRANCH   1  28
ATOM     28  C10 MOL d          41.479 -20.821  28.644  0.00  0.00     0.129 A 
ATOM     29  N14 MOL d          42.244 -21.017  29.696  0.00  0.00    -0.229 NA
ATOM     30  C13 MOL d          43.534 -20.976  29.217  0.00  0.00     0.107 A 
ATOM     31  C12 MOL d          43.524 -20.760  27.881  0.00  0.00     0.134 A 
ATOM     32  N11 MOL d          42.203 -20.655  27.507  0.00  0.00    -0.331 N 
ATOM     33 CL   MOL d          44.781 -20.606  26.750  0.00  0.00    -0.062 Cl
ATOM     34  H16 MOL d          41.838 -20.485  26.559  0.00  0.00     0.168 HD
BRANCH  30  35
ATOM     35  C16 MOL d          44.654 -21.182  30.154  0.00  0.00    -0.002 A 
ATOM     36  C17 MOL d          45.894 -20.601  29.888  0.00  0.00     0.045 A 
ATOM     37  C37 MOL d          46.996 -21.006  30.635  0.00  0.00     0.065 A 
ATOM     38  C36 MOL d          46.873 -21.922  31.699  0.00  0.00     0.039 A 
ATOM     39  N38 MOL d          48.320 -20.721  30.515  0.00  0.00    -0.275 N 
ATOM     40  C18 MOL d          45.610 -22.435  31.994  0.00  0.00     0.018 A 
ATOM     41  C40 MOL d          48.243 -22.121  32.192  0.00  0.00     0.153 A 
ATOM     42  C19 MOL d          44.517 -22.076  31.224  0.00  0.00     0.015 A 
ATOM     43  N39 MOL d          49.068 -21.384  31.447  0.00  0.00    -0.156 NA
ATOM     44  H21 MOL d          48.712 -20.083  29.808  0.00  0.00     0.189 HD
BRANCH  41  45
ATOM     45  N41 MOL d          48.677 -22.855  33.221  0.00  0.00    -0.382 N 
ATOM     46  H22 MOL d          49.683 -22.891  33.440  0.00  0.00     0.157 HD
ATOM     47  H23 MOL d          48.006 -23.385  33.795  0.00  0.00     0.157 HD
ENDBRANCH  41  45
ENDBRANCH  30  35
ENDBRANCH   1  28
TORSDOF 9
