REMARK  4 active torsions:
REMARK  status: ('A' for Active; 'I' for Inactive)
REMARK    1  A    between atoms: C_1  and  O_3 
REMARK    2  A    between atoms: CA_4  and  N_2 
REMARK    3  A    between atoms: CAJ_13  and  NAL_14 
REMARK    4  A    between atoms: CAJ_13  and  CAQ_17 
ROOT
ATOM      1  C   MOL d          36.826   4.034  10.079  0.00  0.00     0.179 A 
ATOM      2  CA  MOL d          36.062   2.856  10.078  0.00  0.00     0.146 A 
ATOM      3  CB  MOL d          36.474   1.735  10.814  0.00  0.00     0.280 A 
ATOM      4  OAC MOL d          39.498   3.093  12.198  0.00  0.00    -0.246 OA
ATOM      5  CA0 MOL d          38.453   3.004  11.553  0.00  0.00     0.331 A 
ATOM      6  NAL MOL d          38.017   4.125  10.830  0.00  0.00    -0.274 N 
ATOM      7  OAN MOL d          35.801   0.685  10.805  0.00  0.00    -0.265 OA
ATOM      8  NAB MOL d          37.685   1.816  11.551  0.00  0.00    -0.273 N 
ATOM      9  H11 MOL d          37.999   1.024  12.075  0.00  0.00     0.173 HD
ENDROOT
BRANCH   6  10
ATOM     10  CAJ MOL d          38.843   5.356  10.805  0.00  0.00     0.174 C 
BRANCH  10  11
ATOM     11  CAQ MOL d          38.583   6.429  11.858  0.00  0.00    -0.040 A 
ATOM     12  CAH MOL d          37.858   6.192  13.012  0.00  0.00     0.009 A 
ATOM     13  CAF MOL d          37.664   7.225  13.927  0.00  0.00     0.001 A 
ATOM     14  CAE MOL d          38.193   8.490  13.693  0.00  0.00     0.000 A 
ATOM     15  CAG MOL d          38.929   8.737  12.540  0.00  0.00     0.001 A 
ATOM     16  CAI MOL d          39.118   7.699  11.631  0.00  0.00     0.009 A 
ENDBRANCH  10  11
ENDBRANCH   6  10
BRANCH   1  17
ATOM     17  O   MOL d          36.419   5.120   9.364  0.00  0.00    -0.344 OA
ATOM     18  H3  MOL d          35.609   4.915   8.912  0.00  0.00     0.219 HD
ENDBRANCH   1  17
BRANCH   2  19
ATOM     19  N   MOL d          34.926   2.804   9.361  0.00  0.00    -0.391 N 
ATOM     20  H1  MOL d          34.621   3.625   8.819  0.00  0.00     0.156 HD
ATOM     21  H2  MOL d          34.361   1.943   9.353  0.00  0.00     0.156 HD
ENDBRANCH   2  19
TORSDOF 4
