REMARK  0 active torsions:
REMARK  status: ('A' for Active; 'I' for Inactive)
ROOT
ATOM      1  C4  LSA d          15.169   6.812  15.617  0.00  0.00     0.002 A 
ATOM      2  C5  LSA d          14.689   5.798  16.453  0.00  0.00     0.026 A 
ATOM      3  C6  LSA d          15.031   4.481  16.147  0.00  0.00     0.095 A 
ATOM      4  C7  LSA d          16.103   2.694  15.054  0.00  0.00     0.266 C 
ATOM      5  C3  LSA d          15.954   6.504  14.495  0.00  0.00     0.001 A 
ATOM      6  S10 LSA d          14.583   3.001  17.008  0.00  0.00     0.266 S 
ATOM      7  N9  LSA d          15.356   2.056  15.887  0.00  0.00    -0.246 N 
ATOM      8  O8  LSA d          16.624   2.092  14.122  0.00  0.00    -0.267 OA
ATOM      9  C1  LSA d          15.794   4.174  15.029  0.00  0.00     0.056 A 
ATOM     10  C2  LSA d          16.323   5.183  14.225  0.00  0.00     0.018 A 
ATOM     11  O12 LSA d          15.264   2.948  18.288  0.00  0.00    -0.200 OA
ATOM     12  O11 LSA d          13.151   2.808  16.946  0.00  0.00    -0.200 OA
ATOM     13  H4  LSA d          15.250   1.062  15.859  0.00  0.00     0.182 HD
ENDROOT
TORSDOF 0
