REMARK  9 active torsions:
REMARK  status: ('A' for Active; 'I' for Inactive)
REMARK    1  A    between atoms: C1_1  and  O1_6 
REMARK    2  A    between atoms: C2_2  and  O2_7 
REMARK    3  A    between atoms: C3_3  and  O3_8 
REMARK    4  A    between atoms: C4_4  and  C5_5 
REMARK    5  A    between atoms: C5_5  and  O5_10 
REMARK    6  A    between atoms: O1_6  and  PA_15 
REMARK    7  A    between atoms: O5_10  and  P_11 
REMARK    8  A    between atoms: PA_15  and  O3A_18 
REMARK    9  A    between atoms: O3A_18  and  PB_19 
ROOT
ATOM      1  C1  PRP d          26.597 -14.916  44.878  0.00  0.00     0.304 C 
ATOM      2  C2  PRP d          26.531 -16.231  44.189  0.00  0.00     0.205 C 
ATOM      3  C3  PRP d          27.120 -15.808  42.893  0.00  0.00     0.182 C 
ATOM      4  C4  PRP d          28.329 -15.071  43.387  0.00  0.00     0.180 C 
ATOM      5  O4  PRP d          27.766 -14.291  44.394  0.00  0.00    -0.348 OA
ENDROOT
BRANCH   1   6
ATOM      6  O1  PRP d          26.682 -15.216  46.247  0.00  0.00    -0.255 OA
BRANCH   6   7
ATOM      7  PA  PRP d          25.791 -14.349  47.212  0.00  0.00     0.420 P 
ATOM      8  O1A PRP d          25.136 -13.375  46.321  0.00  0.00    -0.624 OA
ATOM      9  O2A PRP d          24.939 -15.263  47.985  0.00  0.00    -0.624 OA
BRANCH   7  10
ATOM     10  O3A PRP d          27.047 -13.730  48.313  0.00  0.00    -0.173 OA
BRANCH  10  11
ATOM     11  PB  PRP d          27.751 -12.152  47.857  0.00  0.00     0.431 P 
ATOM     12  O1B PRP d          26.680 -11.123  47.845  0.00  0.00    -0.616 OA
ATOM     13  O2B PRP d          28.472 -12.318  46.604  0.00  0.00    -0.616 OA
ATOM     14  O3B PRP d          28.661 -12.022  49.014  0.00  0.00    -0.616 OA
ENDBRANCH  10  11
ENDBRANCH   7  10
ENDBRANCH   6   7
ENDBRANCH   1   6
BRANCH   2  15
ATOM     15  O2  PRP d          27.464 -17.006  44.905  0.00  0.00    -0.388 OA
ATOM     16  H7  PRP d          28.245 -16.490  45.067  0.00  0.00     0.210 HD
ENDBRANCH   2  15
BRANCH   3  17
ATOM     17  O3  PRP d          27.392 -16.979  42.137  0.00  0.00    -0.390 OA
ATOM     18  H8  PRP d          27.884 -17.592  42.671  0.00  0.00     0.210 HD
ENDBRANCH   3  17
BRANCH   4  19
ATOM     19  C5  PRP d          28.931 -14.170  42.366  0.00  0.00     0.217 C 
BRANCH  19  20
ATOM     20  O5  PRP d          30.134 -13.666  42.869  0.00  0.00    -0.280 OA
BRANCH  20  21
ATOM     21  P   PRP d          30.766 -12.347  42.334  0.00  0.00     0.422 P 
ATOM     22  O1P PRP d          29.854 -11.258  42.524  0.00  0.00    -0.617 OA
ATOM     23  O2P PRP d          31.832 -12.240  43.274  0.00  0.00    -0.617 OA
ATOM     24  O3P PRP d          31.114 -12.735  40.988  0.00  0.00    -0.617 OA
ENDBRANCH  20  21
ENDBRANCH  19  20
ENDBRANCH   4  19
TORSDOF 9
