REMARK  10 active torsions:
REMARK  status: ('A' for Active; 'I' for Inactive)
REMARK    1  A    between atoms: PBE_2  and  OAS_5 
REMARK    2  A    between atoms: OAS_5  and  PBG_6 
REMARK    3  A    between atoms: PBG_6  and  OAT_9 
REMARK    4  A    between atoms: OAT_9  and  PBF_10 
REMARK    5  A    between atoms: PBF_10  and  O5'_13 
REMARK    6  A    between atoms: O5'_13  and  C5'_14 
REMARK    7  A    between atoms: C5'_14  and  C4'_15 
REMARK    8  A    between atoms: C3'_17  and  O3'_18 
REMARK    9  A    between atoms: C2'_19  and  O2'_20 
REMARK   10  A    between atoms: C1'_21  and  NBC_22 
ROOT
ATOM      1  C4' MGO d          36.057   8.371  58.092  0.00  0.00     0.180 C 
ATOM      2  O4' MGO d          34.635   8.287  58.311  0.00  0.00    -0.353 OA
ATOM      3  C3' MGO d          36.225   7.767  56.695  0.00  0.00     0.182 C 
ATOM      4  C2' MGO d          35.315   6.568  56.806  0.00  0.00     0.198 C 
ATOM      5  C1' MGO d          34.093   7.234  57.417  0.00  0.00     0.262 C 
ENDROOT
BRANCH   5   6
ATOM      6  NBC MGO d          33.142   7.757  56.356  0.00  0.00    -0.295 N 
ATOM      7  CAN MGO d          32.921   9.049  56.002  0.00  0.00     0.190 A 
ATOM      8  NBD MGO d          31.971   9.057  55.042  0.00  0.00    -0.340 N 
ATOM      9  CAA MGO d          31.461  10.276  54.384  0.00  0.00     0.157 C 
ATOM     10  CAX MGO d          31.581   7.795  54.768  0.00  0.00     0.151 A 
ATOM     11  CAW MGO d          32.341   6.972  55.616  0.00  0.00     0.184 A 
ATOM     12  CAV MGO d          30.675   7.206  53.862  0.00  0.00     0.290 A 
ATOM     13  CAM MGO d          32.199   5.589  55.602  0.00  0.00    -0.044 NA
ATOM     14  CAU MGO d          31.298   5.014  54.728  0.00  0.00     0.703 A 
ATOM     15  NAB MGO d          31.178   3.689  54.713  0.00  0.00    -0.233 N 
ATOM     16  NAP MGO d          30.532   5.814  53.853  0.00  0.00    -0.153 N 
ATOM     17  H13 MGO d          31.741   3.114  55.355  0.00  0.00     0.174 HD
ATOM     18  H14 MGO d          30.522   3.239  54.059  0.00  0.00     0.174 HD
ATOM     19  H15 MGO d          29.884   5.384  53.224  0.00  0.00     0.187 HD
ATOM     20  OAC MGO d          29.987   7.866  53.090  0.00  0.00    -0.265 OA
ENDBRANCH   5   6
BRANCH   4  21
ATOM     21  O2' MGO d          35.803   5.658  57.775  0.00  0.00    -0.388 OA
ATOM     22  H7  MGO d          36.670   5.364  57.523  0.00  0.00     0.210 HD
ENDBRANCH   4  21
BRANCH   1  23
ATOM     23  C5' MGO d          36.412   9.839  58.174  0.00  0.00     0.216 C 
BRANCH  23  24
ATOM     24  O5' MGO d          35.955  10.598  57.058  0.00  0.00    -0.287 OA
BRANCH  24  25
ATOM     25  PBF MGO d          35.220  12.025  57.225  0.00  0.00     0.417 P 
ATOM     26  OAK MGO d          34.478  12.421  55.821  0.00  0.00    -0.624 OA
ATOM     27  OAE MGO d          34.308  12.067  58.400  0.00  0.00    -0.624 OA
BRANCH  25  28
ATOM     28  OAT MGO d          36.328  13.159  57.302  0.00  0.00    -0.180 OA
BRANCH  28  29
ATOM     29  PBG MGO d          37.334  13.331  58.492  0.00  0.00     0.428 P 
ATOM     30  OAL MGO d          36.709  12.706  59.842  0.00  0.00    -0.624 OA
ATOM     31  OAF MGO d          37.742  14.749  58.586  0.00  0.00    -0.624 OA
BRANCH  29  32
ATOM     32  OAS MGO d          38.550  12.313  58.241  0.00  0.00    -0.173 OA
BRANCH  32  33
ATOM     33  PBE MGO d          39.809  12.621  57.209  0.00  0.00     0.431 P 
ATOM     34  OAJ MGO d          39.360  13.840  56.203  0.00  0.00    -0.616 OA
ATOM     35  OAD MGO d          41.013  13.333  58.094  0.00  0.00    -0.616 OA
ATOM     36  OAI MGO d          40.204  11.381  56.451  0.00  0.00    -0.616 OA
ENDBRANCH  32  33
ENDBRANCH  29  32
ENDBRANCH  28  29
ENDBRANCH  25  28
ENDBRANCH  24  25
ENDBRANCH  23  24
ENDBRANCH   1  23
BRANCH   3  37
ATOM     37  O3' MGO d          37.545   7.345  56.512  0.00  0.00    -0.390 OA
ATOM     38  H5  MGO d          37.760   6.689  57.165  0.00  0.00     0.210 HD
ENDBRANCH   3  37
TORSDOF 10
