REMARK  14 active torsions:
REMARK  status: ('A' for Active; 'I' for Inactive)
REMARK       I    between atoms: N1_3  and  C7_19 
REMARK    1  A    between atoms: C16_28  and  N1_3 
REMARK    2  A    between atoms: N3_11  and  S1_5 
REMARK    3  A    between atoms: S1_5  and  C29_41 
REMARK    4  A    between atoms: C2_6  and  C8_20 
REMARK       I    between atoms: C8_20  and  N2_8 
REMARK    5  A    between atoms: N2_8  and  C9_21 
REMARK    6  A    between atoms: N2_8  and  C10_22 
REMARK    7  A    between atoms: C7_19  and  C4_13 
REMARK    8  A    between atoms: C17_29  and  O5_17 
REMARK    9  A    between atoms: C9_21  and  C13_25 
REMARK   10  A    between atoms: C10_22  and  C11_23 
REMARK   11  A    between atoms: C16_28  and  C17_29 
REMARK   12  A    between atoms: C19_31  and  C16_28 
REMARK   13  A    between atoms: C17_29  and  C18_30 
REMARK   14  A    between atoms: C20_32  and  C19_31 
ROOT
ATOM      1  C16 Z74 d          22.506  10.769  22.990  0.00  0.00     0.119 C 
ENDROOT
BRANCH   1   2
ATOM      2  N1  Z74 d          23.552  11.716  23.424  0.00  0.00    -0.349 N 
ATOM      3  C7  Z74 d          23.360  13.078  23.468  0.00  0.00     0.252 C 
ATOM      4  O4  Z74 d          22.254  13.577  23.284  0.00  0.00    -0.268 OA
ATOM      5  H2  Z74 d          24.442  11.351  23.699  0.00  0.00     0.163 HD
BRANCH   3   6
ATOM      6  C4  Z74 d          24.568  13.882  23.749  0.00  0.00     0.033 A 
ATOM      7  C3  Z74 d          25.860  13.459  23.337  0.00  0.00     0.034 A 
ATOM      8  C2  Z74 d          27.007  14.255  23.618  0.00  0.00     0.033 A 
ATOM      9  C1  Z74 d          26.847  15.482  24.323  0.00  0.00     0.024 A 
ATOM     10  C6  Z74 d          25.565  15.921  24.745  0.00  0.00    -0.060 A 
ATOM     11  C5  Z74 d          24.429  15.115  24.454  0.00  0.00     0.024 A 
ATOM     12  C15 Z74 d          25.421  17.228  25.491  0.00  0.00     0.048 C 
BRANCH   8  13
ATOM     13  C8  Z74 d          28.376  13.835  23.206  0.00  0.00     0.253 C 
ATOM     14  N2  Z74 d          28.707  13.523  21.862  0.00  0.00    -0.348 N 
ATOM     15  O3  Z74 d          29.229  13.756  24.090  0.00  0.00    -0.267 OA
BRANCH  14  16
ATOM     16  C9  Z74 d          29.973  12.757  21.641  0.00  0.00     0.125 C 
BRANCH  16  17
ATOM     17  C13 Z74 d          29.750  11.340  21.055  0.00  0.00     0.015 C 
ATOM     18  C14 Z74 d          28.908  10.424  21.955  0.00  0.00     0.006 C 
ENDBRANCH  16  17
ENDBRANCH  14  16
BRANCH  14  19
ATOM     19  C10 Z74 d          27.913  13.906  20.648  0.00  0.00     0.125 C 
BRANCH  19  20
ATOM     20  C11 Z74 d          28.596  14.991  19.798  0.00  0.00     0.015 C 
ATOM     21  C12 Z74 d          28.701  16.339  20.522  0.00  0.00     0.006 C 
ENDBRANCH  19  20
ENDBRANCH  14  19
ENDBRANCH   8  13
ENDBRANCH   3   6
ENDBRANCH   1   2
BRANCH   1  22
ATOM     22  C17 Z74 d          22.023   9.931  24.200  0.00  0.00     0.173 C 
BRANCH  22  23
ATOM     23  O5  Z74 d          21.096   8.955  23.755  0.00  0.00    -0.391 OA
ATOM     24  H7  Z74 d          20.799   8.441  24.496  0.00  0.00     0.210 HD
ENDBRANCH  22  23
BRANCH  22  25
ATOM     25  C18 Z74 d          21.338  10.746  25.319  0.00  0.00     0.230 C 
ATOM     26  N4  Z74 d          21.058   9.828  26.448  0.00  0.00    -0.066 N 
ATOM     27  C28 Z74 d          20.381  10.505  27.575  0.00  0.00     0.248 C 
ATOM     28  H4  Z74 d          21.930   9.446  26.778  0.00  0.00     0.277 HD
ATOM     29  H5  Z74 d          20.467   9.081  26.118  0.00  0.00     0.277 HD
ATOM     30  C27 Z74 d          19.073  11.175  27.119  0.00  0.00     0.135 C 
ATOM     31  N3  Z74 d          19.209  12.045  25.910  0.00  0.00    -0.203 NA
ATOM     32  C26 Z74 d          20.018  11.422  24.845  0.00  0.00     0.143 C 
BRANCH  31  33
ATOM     33  S1  Z74 d          17.746  12.838  25.359  0.00  0.00     0.243 S 
ATOM     34  O1  Z74 d          18.161  13.683  24.278  0.00  0.00    -0.206 OA
ATOM     35  O2  Z74 d          17.172  13.428  26.536  0.00  0.00    -0.206 OA
BRANCH  33  36
ATOM     36  C29 Z74 d          16.683  11.537  24.755  0.00  0.00     0.074 A 
ATOM     37  C30 Z74 d          16.654  11.246  23.370  0.00  0.00     0.025 A 
ATOM     38  C31 Z74 d          15.815  10.211  22.889  0.00  0.00     0.002 A 
ATOM     39  C32 Z74 d          15.009   9.470  23.790  0.00  0.00     0.000 A 
ATOM     40  C33 Z74 d          15.039   9.761  25.171  0.00  0.00     0.002 A 
ATOM     41  C34 Z74 d          15.877  10.797  25.658  0.00  0.00     0.025 A 
ENDBRANCH  33  36
ENDBRANCH  31  33
ENDBRANCH  22  25
ENDBRANCH   1  22
BRANCH   1  42
ATOM     42  C19 Z74 d          23.082   9.877  21.850  0.00  0.00     0.066 C 
BRANCH  42  43
ATOM     43  C20 Z74 d          23.705  10.668  20.718  0.00  0.00    -0.050 A 
ATOM     44  C21 Z74 d          22.970  11.692  20.040  0.00  0.00     0.049 A 
ATOM     45  C22 Z74 d          23.576  12.416  18.991  0.00  0.00     0.119 A 
ATOM     46  F2  Z74 d          22.873  13.369  18.371  0.00  0.00    -0.206 F 
ATOM     47  C23 Z74 d          24.904  12.159  18.579  0.00  0.00     0.084 A 
ATOM     48  C24 Z74 d          25.611  11.145  19.262  0.00  0.00     0.119 A 
ATOM     49  F1  Z74 d          26.859  10.875  18.907  0.00  0.00    -0.206 F 
ATOM     50  C25 Z74 d          25.039  10.400  20.319  0.00  0.00     0.049 A 
ENDBRANCH  42  43
ENDBRANCH   1  42
TORSDOF 14
