REMARK  6 active torsions:
REMARK  status: ('A' for Active; 'I' for Inactive)
REMARK    1  A    between atoms: C2_2  and  C13_14 
REMARK    2  A    between atoms: C10_10  and  C6_6 
REMARK    3  A    between atoms: C12_12  and  O1_13 
REMARK    4  A    between atoms: C13_14  and  C14_15 
REMARK    5  A    between atoms: C14_15  and  N1_16 
REMARK    6  A    between atoms: C14_15  and  C15_17 
ROOT
ATOM      1  C1  E42 d          59.983   0.643  40.458  0.00  0.00     0.019 A 
ATOM      2  C2  E42 d          60.848   1.209  41.414  0.00  0.00    -0.055 A 
ATOM      3  C3  E42 d          61.043   0.541  42.639  0.00  0.00     0.007 A 
ATOM      4  C4  E42 d          60.396  -0.660  42.912  0.00  0.00     0.001 A 
ATOM      5  C5  E42 d          59.549  -1.213  41.947  0.00  0.00     0.012 A 
ATOM      6  C6  E42 d          59.335  -0.575  40.713  0.00  0.00    -0.025 A 
ENDROOT
BRANCH   2   7
ATOM      7  C13 E42 d          61.532   2.524  41.103  0.00  0.00     0.082 C 
BRANCH   7   8
ATOM      8  C14 E42 d          60.899   3.743  41.818  0.00  0.00     0.287 C 
BRANCH   8   9
ATOM      9  N1  E42 d          59.463   3.911  41.388  0.00  0.00    -0.065 N 
ATOM     10  H13 E42 d          59.062   4.707  41.859  0.00  0.00     0.275 HD
ATOM     11  H14 E42 d          58.942   3.082  41.626  0.00  0.00     0.275 HD
ATOM     12  H15 E42 d          59.426   4.057  40.391  0.00  0.00     0.275 HD
ENDBRANCH   8   9
BRANCH   8  13
ATOM     13  C15 E42 d          60.986   3.545  43.361  0.00  0.00     0.204 C 
ATOM     14  O2  E42 d          59.895   3.589  44.002  0.00  0.00    -0.646 OA
ATOM     15  O3  E42 d          62.138   3.313  43.827  0.00  0.00    -0.646 OA
ENDBRANCH   8  13
ENDBRANCH   7   8
ENDBRANCH   2   7
BRANCH   6  16
ATOM     16  C10 E42 d          58.423  -1.178  39.722  0.00  0.00    -0.023 A 
ATOM     17  C9  E42 d          57.531  -0.385  38.983  0.00  0.00     0.012 A 
ATOM     18  C8  E42 d          56.663  -0.979  38.052  0.00  0.00     0.004 A 
ATOM     19  C7  E42 d          56.678  -2.360  37.855  0.00  0.00     0.036 A 
ATOM     20  C12 E42 d          57.554  -3.146  38.587  0.00  0.00     0.066 A 
ATOM     21  C11 E42 d          58.415  -2.567  39.512  0.00  0.00     0.048 A 
BRANCH  20  22
ATOM     22  O1  E42 d          57.599  -4.507  38.446  0.00  0.00    -0.361 OA
ATOM     23  H9  E42 d          56.968  -4.777  37.789  0.00  0.00     0.217 HD
ENDBRANCH  20  22
ENDBRANCH   6  16
TORSDOF 6
