REMARK  1 active torsions:
REMARK  status: ('A' for Active; 'I' for Inactive)
REMARK    1  A    between atoms: C2_3  and  O1_2 
ROOT
ATOM      1  C1  03V d          22.413   7.602  -3.483  0.00  0.00     0.037 A 
ATOM      2  C2  03V d          22.575   6.223  -3.530  0.00  0.00     0.066 A 
ATOM      3  C3  03V d          21.588   5.384  -3.018  0.00  0.00     0.048 A 
ATOM      4  C4  03V d          20.438   5.943  -2.462  0.00  0.00    -0.023 A 
ATOM      5  C5  03V d          20.282   7.324  -2.415  0.00  0.00    -0.026 A 
ATOM      6  C7  03V d          21.267   8.157  -2.928  0.00  0.00     0.015 A 
ATOM      7  C8  03V d          19.139   7.887  -1.859  0.00  0.00     0.012 A 
ATOM      8  C9  03V d          18.149   7.068  -1.345  0.00  0.00     0.001 A 
ATOM      9  C10 03V d          18.308   5.694  -1.383  0.00  0.00     0.001 A 
ATOM     10  C11 03V d          19.440   5.124  -1.934  0.00  0.00     0.012 A 
ENDROOT
BRANCH   2  11
ATOM     11  O1  03V d          23.705   5.695  -4.078  0.00  0.00    -0.361 OA
ATOM     12  H2  03V d          23.663   4.747  -4.035  0.00  0.00     0.217 HD
ENDBRANCH   2  11
TORSDOF 1
