REMARK  7 active torsions:
REMARK  status: ('A' for Active; 'I' for Inactive)
REMARK    1  A    between atoms: C_1  and  C14_18 
REMARK    2  A    between atoms: S_4  and  N16_20 
REMARK    3  A    between atoms: N20_24  and  S_4 
REMARK    4  A    between atoms: C12_16  and  N20_24 
REMARK    5  A    between atoms: N16_20  and  C17_21 
REMARK    6  A    between atoms: C17_21  and  C21_25 
REMARK    7  A    between atoms: N28_32  and  C31_35 
ROOT
ATOM      1  C   M61 d          -4.443  -8.361 -16.555  0.00  0.00    -0.004 A 
ATOM      2  N   M61 d          -6.776  -8.924 -16.665  0.00  0.00    -0.259 NA
ATOM      3  O   M61 d          -5.140  -6.467 -13.105  0.00  0.00    -0.287 OA
ATOM      4  C1  M61 d          -5.509  -9.064 -17.073  0.00  0.00     0.129 A 
ATOM      5  C2  M61 d          -7.007  -8.038 -15.686  0.00  0.00     0.070 A 
ATOM      6  C3  M61 d          -5.985  -7.352 -15.046  0.00  0.00     0.044 A 
ATOM      7  C4  M61 d          -4.686  -7.521 -15.487  0.00  0.00     0.031 A 
ATOM      8  C5  M61 d          -8.425  -7.968 -15.395  0.00  0.00     0.033 C 
ATOM      9  C6  M61 d          -9.093  -7.110 -14.622  0.00  0.00     0.014 C 
ATOM     10  C7  M61 d          -8.603  -5.996 -13.836  0.00  0.00    -0.022 A 
ATOM     11  C8  M61 d          -7.292  -5.702 -13.496  0.00  0.00     0.027 A 
ATOM     12  C9  M61 d          -6.114  -6.508 -13.851  0.00  0.00     0.195 C 
ATOM     13  C10 M61 d          -9.601  -5.137 -13.429  0.00  0.00     0.014 A 
ATOM     14  C11 M61 d          -9.314  -4.030 -12.671  0.00  0.00     0.031 A 
ATOM     15  C12 M61 d          -8.017  -3.773 -12.289  0.00  0.00     0.044 A 
ATOM     16  C13 M61 d          -7.005  -4.603 -12.710  0.00  0.00     0.046 A 
ENDROOT
BRANCH  15  17
ATOM     17  N20 M61 d          -7.816  -2.625 -11.454  0.00  0.00    -0.268 N 
ATOM     18  H13 M61 d          -8.626  -2.137 -11.129  0.00  0.00     0.180 HD
BRANCH  17  19
ATOM     19  S   M61 d          -6.277  -2.031 -10.975  0.00  0.00     0.321 S 
ATOM     20  O18 M61 d          -6.632  -0.944 -10.082  0.00  0.00    -0.182 OA
ATOM     21  O19 M61 d          -5.380  -3.073 -10.517  0.00  0.00    -0.182 OA
BRANCH  19  22
ATOM     22  N16 M61 d          -5.654  -1.344 -12.415  0.00  0.00    -0.296 N 
ATOM     23  C15 M61 d          -6.597  -0.599 -13.270  0.00  0.00     0.164 C 
BRANCH  22  24
ATOM     24  C17 M61 d          -4.665  -2.118 -13.193  0.00  0.00     0.170 C 
BRANCH  24  25
ATOM     25  C21 M61 d          -3.345  -1.378 -13.132  0.00  0.00     0.163 C 
ATOM     26  C22 M61 d          -2.984  -0.832 -14.500  0.00  0.00     0.201 C 
ATOM     27  O23 M61 d          -1.754  -0.122 -14.400  0.00  0.00    -0.386 OA
ATOM     28  C24 M61 d          -0.730  -1.025 -13.992  0.00  0.00     0.193 C 
ATOM     29  C25 M61 d          -1.088  -1.588 -12.629  0.00  0.00     0.194 C 
ATOM     30  O26 M61 d          -2.325  -2.286 -12.723  0.00  0.00    -0.380 OA
ENDBRANCH  24  25
ENDBRANCH  22  24
ENDBRANCH  19  22
ENDBRANCH  17  19
ENDBRANCH  15  17
BRANCH   1  31
ATOM     31  C14 M61 d          -3.113  -8.512 -17.085  0.00  0.00     0.012 A 
ATOM     32  C27 M61 d          -2.797  -9.217 -18.224  0.00  0.00     0.126 A 
ATOM     33  N28 M61 d          -1.453  -9.034 -18.385  0.00  0.00    -0.276 N 
ATOM     34  N29 M61 d          -0.881  -8.255 -17.449  0.00  0.00    -0.184 NA
ATOM     35  C30 M61 d          -1.895  -7.938 -16.644  0.00  0.00     0.152 A 
BRANCH  33  36
ATOM     36  C31 M61 d          -0.650  -9.571 -19.471  0.00  0.00     0.112 C 
ATOM     37  C32 M61 d           0.390 -10.539 -18.927  0.00  0.00     0.055 C 
ATOM     38  C33 M61 d           1.417 -10.941 -19.969  0.00  0.00     0.234 C 
ATOM     39  N34 M61 d           2.004  -9.707 -20.548  0.00  0.00    -0.075 N 
ATOM     40  C35 M61 d           0.978  -8.897 -21.260  0.00  0.00     0.234 C 
ATOM     41  H28 M61 d           2.729  -9.964 -21.200  0.00  0.00     0.277 HD
ATOM     42  H29 M61 d           2.401  -9.153 -19.805  0.00  0.00     0.277 HD
ATOM     43  C36 M61 d          -0.014  -8.415 -20.222  0.00  0.00     0.055 C 
ENDBRANCH  33  36
ENDBRANCH   1  31
TORSDOF 7
