REMARK  8 active torsions:
REMARK  status: ('A' for Active; 'I' for Inactive)
REMARK    1  A    between atoms: C3_3  and  C11_7 
REMARK    2  A    between atoms: C11_7  and  C12_8 
REMARK    3  A    between atoms: C12_8  and  N15_11 
REMARK    4  A    between atoms: N15_11  and  C18_12 
REMARK    5  A    between atoms: N20_14  and  C24_18 
REMARK    6  A    between atoms: C24_18  and  C25_19 
REMARK       I    between atoms: C25_19  and  N28_20 
REMARK    7  A    between atoms: N28_20  and  C29_21 
REMARK    8  A    between atoms: C29_21  and  C30_22 
ROOT
ATOM      1  C18 CDD d          17.918 -15.254  23.178  0.00  0.00     0.193 A 
ATOM      2  C19 CDD d          17.274 -14.032  22.494  0.00  0.00     0.295 A 
ATOM      3  N20 CDD d          18.009 -13.445  21.516  0.00  0.00    -0.291 N 
ATOM      4  C21 CDD d          19.355 -13.947  21.172  0.00  0.00     0.126 A 
ATOM      5  C22 CDD d          19.930 -15.038  21.938  0.00  0.00     0.161 A 
ATOM      6  N23 CDD d          19.198 -15.619  22.910  0.00  0.00    -0.235 NA
ATOM      7  O42 CDD d          16.142 -13.664  22.826  0.00  0.00    -0.264 OA
ATOM      8 CL43 CDD d          20.242 -13.237  19.893  0.00  0.00    -0.063 Cl
ENDROOT
BRANCH   1   9
ATOM      9  N15 CDD d          17.158 -15.935  24.136  0.00  0.00    -0.364 N 
ATOM     10  H7  CDD d          16.205 -15.675  24.428  0.00  0.00     0.161 HD
BRANCH   9  11
ATOM     11  C12 CDD d          17.918 -17.072  24.662  0.00  0.00     0.207 C 
BRANCH  11  12
ATOM     12  C11 CDD d          18.603 -16.706  25.948  0.00  0.00     0.303 C 
ATOM     13  F13 CDD d          18.966 -17.824  26.599  0.00  0.00    -0.197 F 
ATOM     14  F14 CDD d          17.736 -16.005  26.728  0.00  0.00    -0.197 F 
BRANCH  12  15
ATOM     15  C3  CDD d          19.851 -15.889  25.725  0.00  0.00     0.115 A 
ATOM     16  N2  CDD d          20.953 -16.453  25.205  0.00  0.00    -0.198 N 
ATOM     17  C1  CDD d          22.080 -15.758  25.090  0.00  0.00     0.126 A 
ATOM     18  O1  CDD d          20.952 -17.770  24.807  0.00  0.00    -0.081 OA
ATOM     19  C6  CDD d          22.123 -14.426  25.480  0.00  0.00     0.020 A 
ATOM     20  C5  CDD d          20.971 -13.818  25.977  0.00  0.00     0.004 A 
ATOM     21  C4  CDD d          19.836 -14.563  26.121  0.00  0.00     0.034 A 
ENDBRANCH  12  15
ENDBRANCH  11  12
ENDBRANCH   9  11
ENDBRANCH   1   9
BRANCH   3  22
ATOM     22  C24 CDD d          17.546 -12.261  20.778  0.00  0.00     0.236 C 
BRANCH  22  23
ATOM     23  C25 CDD d          16.067 -12.331  20.410  0.00  0.00     0.236 C 
ATOM     24  N28 CDD d          15.287 -11.484  21.127  0.00  0.00    -0.355 N 
ATOM     25  H11 CDD d          15.665 -10.932  21.870  0.00  0.00     0.162 HD
ATOM     26  O44 CDD d          15.657 -13.109  19.542  0.00  0.00    -0.272 OA
BRANCH  24  27
ATOM     27  C29 CDD d          13.869 -11.411  20.768  0.00  0.00     0.164 C 
BRANCH  27  28
ATOM     28  C30 CDD d          12.915 -11.425  21.962  0.00  0.00    -0.002 A 
ATOM     29  C33 CDD d          12.900 -10.375  22.895  0.00  0.00     0.012 A 
ATOM     30  C34 CDD d          12.019 -10.435  24.000  0.00  0.00     0.001 A 
ATOM     31  C35 CDD d          11.112 -11.493  24.137  0.00  0.00     0.003 A 
ATOM     32  C2  CDD d          11.125 -12.532  23.210  0.00  0.00     0.043 A 
ATOM     33  C37 CDD d          12.037 -12.494  22.142  0.00  0.00     0.124 A 
ATOM     34  F1  CDD d          12.189 -13.520  21.288  0.00  0.00    -0.205 F 
ENDBRANCH  27  28
ENDBRANCH  24  27
ENDBRANCH  22  23
ENDBRANCH   3  22
TORSDOF 8
