REMARK  2 active torsions:
REMARK  status: ('A' for Active; 'I' for Inactive)
REMARK    1  A    between atoms: C1_1  and  C_7 
REMARK    2  A    between atoms: C_7  and  N1_8 
ROOT
ATOM      1  C   BEN d          50.796  38.137  39.511  0.00  0.00     0.102 C 
ATOM      2  N2  BEN d          51.068  38.919  38.475  0.00  0.00    -0.385 N 
ATOM      3  H8  BEN d          50.950  38.563  37.516  0.00  0.00     0.157 HD
ATOM      4  H9  BEN d          51.397  39.883  38.630  0.00  0.00     0.157 HD
ENDROOT
BRANCH   1   5
ATOM      5  C1  BEN d          50.342  36.789  39.375  0.00  0.00     0.007 A 
ATOM      6  C6  BEN d          49.871  36.366  38.113  0.00  0.00     0.015 A 
ATOM      7  C5  BEN d          49.393  35.010  37.891  0.00  0.00     0.001 A 
ATOM      8  C4  BEN d          49.398  34.060  38.996  0.00  0.00     0.000 A 
ATOM      9  C3  BEN d          49.897  34.586  40.246  0.00  0.00     0.001 A 
ATOM     10  C2  BEN d          50.371  35.932  40.466  0.00  0.00     0.015 A 
ENDBRANCH   1   5
BRANCH   1  11
ATOM     11  N1  BEN d          50.976  38.678  40.728  0.00  0.00    -0.385 N 
ATOM     12  H6  BEN d          51.304  39.651  40.816  0.00  0.00     0.157 HD
ATOM     13  H7  BEN d          50.786  38.120  41.573  0.00  0.00     0.157 HD
ENDBRANCH   1  11
TORSDOF 2
