REMARK  10 active torsions:
REMARK  status: ('A' for Active; 'I' for Inactive)
REMARK    1  A    between atoms: C4_8  and  O4_2 
REMARK    2  A    between atoms: C5_9  and  O5_3 
REMARK    3  A    between atoms: N2_4  and  C21_11 
REMARK    4  A    between atoms: N7_5  and  C71_28 
REMARK    5  A    between atoms: C3_7  and  C31_14 
REMARK    6  A    between atoms: C6_10  and  C61_21 
REMARK    7  A    between atoms: C21_11  and  C22_12 
REMARK    8  A    between atoms: C31_14  and  C32_15 
REMARK    9  A    between atoms: C61_21  and  C62_22 
REMARK   10  A    between atoms: C71_28  and  C72_29 
ROOT
ATOM      1  O1  MOL d          -8.028  14.281  27.778  0.00  0.00    -0.247 OA
ATOM      2  N2  MOL d          -8.652  16.065  26.776  0.00  0.00    -0.323 N 
ATOM      3  N7  MOL d          -9.427  15.568  28.938  0.00  0.00    -0.323 N 
ATOM      4  C1  MOL d          -8.700  15.284  27.837  0.00  0.00     0.321 C 
ATOM      5  C3  MOL d          -8.828  17.522  26.824  0.00  0.00     0.124 C 
ATOM      6  C4  MOL d         -10.204  18.017  27.139  0.00  0.00     0.172 C 
ATOM      7  C5  MOL d         -10.543  17.831  28.573  0.00  0.00     0.172 C 
ATOM      8  C6  MOL d         -10.677  16.359  28.920  0.00  0.00     0.124 C 
ENDROOT
BRANCH   5   9
ATOM      9  C31 MOL d          -7.684  18.183  27.609  0.00  0.00     0.066 C 
BRANCH   9  10
ATOM     10  C32 MOL d          -6.360  17.980  26.928  0.00  0.00    -0.056 A 
ATOM     11  C37 MOL d          -5.927  18.898  25.945  0.00  0.00     0.007 A 
ATOM     12  C36 MOL d          -4.668  18.686  25.317  0.00  0.00     0.001 A 
ATOM     13  C35 MOL d          -3.848  17.570  25.668  0.00  0.00     0.000 A 
ATOM     14  C34 MOL d          -4.300  16.671  26.647  0.00  0.00     0.001 A 
ATOM     15  C33 MOL d          -5.552  16.872  27.270  0.00  0.00     0.007 A 
ENDBRANCH   9  10
ENDBRANCH   5   9
BRANCH   6  16
ATOM     16  O4  MOL d         -10.121  19.342  26.766  0.00  0.00    -0.391 OA
ATOM     17  H1  MOL d         -10.957  19.766  26.921  0.00  0.00     0.210 HD
ENDBRANCH   6  16
BRANCH   2  18
ATOM     18  C21 MOL d          -8.243  15.476  25.499  0.00  0.00     0.154 C 
BRANCH  18  19
ATOM     19  C22 MOL d          -9.185  15.862  24.384  0.00  0.00    -0.017 C 
ATOM     20  C23 MOL d          -8.749  16.380  23.231  0.00  0.00     0.008 C 
ENDBRANCH  18  19
ENDBRANCH   2  18
BRANCH   7  21
ATOM     21  O5  MOL d         -11.789  18.383  28.879  0.00  0.00    -0.391 OA
ATOM     22  H2  MOL d         -11.778  19.313  28.685  0.00  0.00     0.210 HD
ENDBRANCH   7  21
BRANCH   8  23
ATOM     23  C61 MOL d         -11.787  15.554  28.175  0.00  0.00     0.066 C 
BRANCH  23  24
ATOM     24  C62 MOL d         -12.391  14.392  28.953  0.00  0.00    -0.056 A 
ATOM     25  C67 MOL d         -12.110  13.051  28.585  0.00  0.00     0.007 A 
ATOM     26  C66 MOL d         -12.750  12.018  29.306  0.00  0.00     0.001 A 
ATOM     27  C65 MOL d         -13.638  12.326  30.371  0.00  0.00     0.000 A 
ATOM     28  C64 MOL d         -13.912  13.663  30.738  0.00  0.00     0.001 A 
ATOM     29  C63 MOL d         -13.279  14.688  30.016  0.00  0.00     0.007 A 
ENDBRANCH  23  24
ENDBRANCH   8  23
BRANCH   3  30
ATOM     30  C71 MOL d          -9.119  15.018  30.272  0.00  0.00     0.154 C 
BRANCH  30  31
ATOM     31  C72 MOL d          -9.007  16.063  31.370  0.00  0.00    -0.017 C 
ATOM     32  C73 MOL d          -9.448  15.876  32.620  0.00  0.00     0.008 C 
ENDBRANCH  30  31
ENDBRANCH   3  30
TORSDOF 10
