REMARK  4 active torsions:
REMARK  status: ('A' for Active; 'I' for Inactive)
REMARK    1  A    between atoms: C2_3  and  C5_9 
REMARK    2  A    between atoms: C11_15  and  C2_3 
REMARK    3  A    between atoms: C3_5  and  N3_7 
REMARK    4  A    between atoms: C19_24  and  C15_19 
ROOT
ATOM      1  O1  MOL d          22.360  13.063  22.348  0.00  0.00    -0.269 OA
ATOM      2  C1  MOL d          22.495  11.875  22.581  0.00  0.00     0.276 A 
ATOM      3  C2  MOL d          22.339  10.668  21.561  0.00  0.00     0.183 A 
ATOM      4  N1  MOL d          22.538   9.493  22.464  0.00  0.00    -0.199 N 
ATOM      5  C3  MOL d          22.780   9.914  23.701  0.00  0.00     0.677 A 
ATOM      6  N2  MOL d          22.786  11.335  23.812  0.00  0.00    -0.153 N 
ATOM      7  C4  MOL d          23.022  12.141  25.018  0.00  0.00     0.178 C 
ATOM      8  H1  MOL d          22.494   8.506  22.172  0.00  0.00     0.179 HD
ENDROOT
BRANCH   3   9
ATOM      9  C5  MOL d          20.902  10.627  21.005  0.00  0.00    -0.015 A 
ATOM     10  C6  MOL d          20.272   9.414  20.747  0.00  0.00     0.010 A 
ATOM     11  C7  MOL d          18.969   9.376  20.260  0.00  0.00     0.001 A 
ATOM     12  C8  MOL d          18.280  10.544  20.021  0.00  0.00     0.000 A 
ATOM     13  C9  MOL d          18.892  11.753  20.259  0.00  0.00     0.001 A 
ATOM     14  C10 MOL d          20.195  11.797  20.744  0.00  0.00     0.010 A 
ENDBRANCH   3   9
BRANCH   3  15
ATOM     15  C11 MOL d          23.488  10.692  20.530  0.00  0.00    -0.015 A 
ATOM     16  C12 MOL d          23.211  10.789  19.173  0.00  0.00     0.010 A 
ATOM     17  C13 MOL d          24.235  10.865  18.243  0.00  0.00     0.002 A 
ATOM     18  C14 MOL d          25.550  10.841  18.656  0.00  0.00     0.012 A 
ATOM     19  C15 MOL d          25.871  10.746  20.007  0.00  0.00    -0.024 A 
ATOM     20  C16 MOL d          24.826  10.661  20.943  0.00  0.00     0.023 A 
BRANCH  19  21
ATOM     21  C19 MOL d          27.300  10.801  20.465  0.00  0.00    -0.008 A 
ATOM     22  C18 MOL d          27.883   9.780  21.208  0.00  0.00     0.128 A 
ATOM     23  N4  MOL d          29.126   9.823  21.709  0.00  0.00    -0.272 NA
ATOM     24  C17 MOL d          29.854  10.913  21.451  0.00  0.00     0.116 A 
ATOM     25  C21 MOL d          29.385  11.978  20.713  0.00  0.00     0.020 A 
ATOM     26  C20 MOL d          28.093  11.919  20.220  0.00  0.00     0.015 A 
ENDBRANCH  19  21
ENDBRANCH   3  15
BRANCH   5  27
ATOM     27  N3  MOL d          22.997   9.111  24.749  0.00  0.00    -0.234 N 
ATOM     28  H2  MOL d          22.984   8.088  24.626  0.00  0.00     0.174 HD
ATOM     29  H3  MOL d          23.177   9.515  25.679  0.00  0.00     0.174 HD
ENDBRANCH   5  27
TORSDOF 4
