REMARK  5 active torsions:
REMARK  status: ('A' for Active; 'I' for Inactive)
REMARK    1  A    between atoms: C2_2  and  O2_12 
REMARK    2  A    between atoms: C3_4  and  O3_11 
REMARK    3  A    between atoms: C4_5  and  O4_13 
REMARK    4  A    between atoms: C5_6  and  C6_7 
REMARK    5  A    between atoms: C6_7  and  O6_14 
ROOT
ATOM      1  C1  GIM d          30.797  65.942   9.697  0.00  0.00     0.138 A 
ATOM      2  C2  GIM d          31.961  65.318   8.925  0.00  0.00     0.219 C 
ATOM      3  N10 GIM d          29.809  66.594   8.982  0.00  0.00    -0.332 N 
ATOM      4  C3  GIM d          32.365  66.303   7.826  0.00  0.00     0.185 C 
ATOM      5  C4  GIM d          31.199  66.435   6.865  0.00  0.00     0.175 C 
ATOM      6  C5  GIM d          29.875  66.847   7.535  0.00  0.00     0.145 C 
ATOM      7  C7  GIM d          29.352  66.656  11.116  0.00  0.00     0.136 A 
ATOM      8  C8  GIM d          28.898  66.996   9.908  0.00  0.00     0.112 A 
ATOM      9  N1  GIM d          30.516  65.994  10.980  0.00  0.00    -0.243 NA
ENDROOT
BRANCH   6  10
ATOM     10  C6  GIM d          28.749  66.083   6.785  0.00  0.00     0.192 C 
BRANCH  10  11
ATOM     11  O6  GIM d          27.475  66.504   7.299  0.00  0.00    -0.399 OA
ATOM     12  H12 GIM d          27.430  66.311   8.228  0.00  0.00     0.209 HD
ENDBRANCH  10  11
ENDBRANCH   6  10
BRANCH   5  13
ATOM     13  O4  GIM d          31.488  67.451   5.894  0.00  0.00    -0.391 OA
ATOM     14  H11 GIM d          32.301  67.241   5.450  0.00  0.00     0.210 HD
ENDBRANCH   5  13
BRANCH   4  15
ATOM     15  O3  GIM d          33.491  65.680   7.140  0.00  0.00    -0.390 OA
ATOM     16  H9  GIM d          34.221  65.598   7.742  0.00  0.00     0.210 HD
ENDBRANCH   4  15
BRANCH   2  17
ATOM     17  O2  GIM d          33.057  64.938   9.717  0.00  0.00    -0.385 OA
ATOM     18  H10 GIM d          33.712  64.522   9.170  0.00  0.00     0.210 HD
ENDBRANCH   2  17
TORSDOF 5
