REMARK  3 active torsions:
REMARK  status: ('A' for Active; 'I' for Inactive)
REMARK    1  A    between atoms: C3_3  and  C31_16 
REMARK    2  A    between atoms: N9_12  and  C91_14 
REMARK    3  A    between atoms: C31_16  and  N32_17 
ROOT
ATOM      1  C1  P83 d         125.208 105.194 -40.994  0.00  0.00     0.031 A 
ATOM      2  C2  P83 d         125.067 106.617 -40.924  0.00  0.00     0.011 A 
ATOM      3  C3  P83 d         124.723 107.386 -42.087  0.00  0.00    -0.032 A 
ATOM      4  C4  P83 d         124.517 106.729 -43.325  0.00  0.00     0.023 A 
ATOM      5  C4A P83 d         124.653 105.295 -43.427  0.00  0.00     0.004 A 
ATOM      6  C4B P83 d         124.515 104.373 -44.511  0.00  0.00     0.003 A 
ATOM      7  C5  P83 d         124.184 104.531 -45.902  0.00  0.00     0.014 A 
ATOM      8  C6  P83 d         124.129 103.389 -46.744  0.00  0.00     0.001 A 
ATOM      9  C7  P83 d         124.401 102.095 -46.226  0.00  0.00     0.002 A 
ATOM     10  C8  P83 d         124.732 101.915 -44.855  0.00  0.00     0.030 A 
ATOM     11  C8A P83 d         124.783 103.070 -44.011  0.00  0.00     0.046 A 
ATOM     12  N9  P83 d         125.073 103.208 -42.651  0.00  0.00    -0.346 N 
ATOM     13  C9A P83 d         125.000 104.546 -42.262  0.00  0.00     0.046 A 
ENDROOT
BRANCH   3  14
ATOM     14  C31 P83 d         124.609 108.895 -41.914  0.00  0.00     0.270 C 
BRANCH  14  15
ATOM     15  N32 P83 d         123.231 109.301 -41.610  0.00  0.00    -0.075 N 
ATOM     16  C33 P83 d         123.140 110.751 -41.337  0.00  0.00     0.267 C 
ATOM     17  H15 P83 d         122.912 108.795 -40.799  0.00  0.00     0.277 HD
ATOM     18  H16 P83 d         122.643 109.079 -42.398  0.00  0.00     0.277 HD
ENDBRANCH  14  15
ENDBRANCH   3  14
BRANCH  12  19
ATOM     19  C91 P83 d         125.418 102.086 -41.766  0.00  0.00     0.125 C 
ATOM     20  C92 P83 d         126.935 101.929 -41.643  0.00  0.00     0.027 C 
ENDBRANCH  12  19
TORSDOF 3
