REMARK  11 active torsions:
REMARK  status: ('A' for Active; 'I' for Inactive)
REMARK    1  A    between atoms: N3B_8  and  PG_1 
REMARK    2  A    between atoms: PB_5  and  N3B_8 
REMARK    3  A    between atoms: O3A_12  and  PB_5 
REMARK    4  A    between atoms: PA_9  and  O3A_12 
REMARK    5  A    between atoms: PA_9  and  O5_13 
REMARK    6  A    between atoms: O5_13  and  C5_14 
REMARK    7  A    between atoms: C5_14  and  C4_15 
REMARK    8  A    between atoms: C3_17  and  O3_18 
REMARK    9  A    between atoms: C2_19  and  O2_20 
REMARK   10  A    between atoms: C1_21  and  N9_22 
REMARK   11  A    between atoms: C6_26  and  N6_27 
ROOT
ATOM      1  C4  ANP d          16.200  34.275  68.503  0.00  0.00     0.180 C 
ATOM      2  O4  ANP d          14.886  34.473  67.918  0.00  0.00    -0.353 OA
ATOM      3  C3  ANP d          16.314  35.323  69.607  0.00  0.00     0.182 C 
ATOM      4  C2  ANP d          15.352  36.431  69.134  0.00  0.00     0.198 C 
ATOM      5  C1  ANP d          14.409  35.756  68.146  0.00  0.00     0.262 C 
ENDROOT
BRANCH   1   6
ATOM      6  C5  ANP d          16.402  32.808  68.913  0.00  0.00     0.216 C 
BRANCH   6   7
ATOM      7  O5  ANP d          15.613  32.408  70.071  0.00  0.00    -0.287 OA
BRANCH   7   8
ATOM      8  PA  ANP d          16.251  31.320  71.076  0.00  0.00     0.417 P 
ATOM      9  O1A ANP d          15.201  30.806  72.027  0.00  0.00    -0.624 OA
ATOM     10  O2A ANP d          17.389  31.909  71.858  0.00  0.00    -0.624 OA
BRANCH   8  11
ATOM     11  O3A ANP d          16.831  30.101  70.247  0.00  0.00    -0.186 OA
BRANCH  11  12
ATOM     12  PB  ANP d          17.974  29.111  70.712  0.00  0.00     0.379 P 
ATOM     13  O1B ANP d          18.314  28.302  69.483  0.00  0.00    -0.629 OA
ATOM     14  O2B ANP d          17.409  28.261  71.817  0.00  0.00    -0.629 OA
BRANCH  12  15
ATOM     15  N3B ANP d          19.288  29.935  71.237  0.00  0.00    -0.218 N 
ATOM     16  H1  ANP d          19.162  30.925  71.301  0.00  0.00     0.179 HD
BRANCH  15  17
ATOM     17  PG  ANP d          20.742  29.416  71.665  0.00  0.00     0.381 P 
ATOM     18  O1G ANP d          21.597  29.035  70.445  0.00  0.00    -0.622 OA
ATOM     19  O2G ANP d          21.468  30.441  72.447  0.00  0.00    -0.622 OA
ATOM     20  O3G ANP d          20.527  28.165  72.660  0.00  0.00    -0.622 OA
ENDBRANCH  15  17
ENDBRANCH  12  15
ENDBRANCH  11  12
ENDBRANCH   8  11
ENDBRANCH   7   8
ENDBRANCH   6   7
ENDBRANCH   1   6
BRANCH   3  21
ATOM     21  O3  ANP d          17.685  35.684  69.861  0.00  0.00    -0.390 OA
ATOM     22  H6  ANP d          18.069  36.041  69.069  0.00  0.00     0.210 HD
ENDBRANCH   3  21
BRANCH   5  23
ATOM     23  N9  ANP d          13.047  35.655  68.698  0.00  0.00    -0.294 N 
ATOM     24  C8  ANP d          12.586  34.795  69.638  0.00  0.00     0.214 A 
ATOM     25  N7  ANP d          11.279  34.923  69.885  0.00  0.00    -0.236 NA
ATOM     26  C5  ANP d          10.866  35.948  69.072  0.00  0.00     0.149 A 
ATOM     27  C6  ANP d           9.579  36.535  68.926  0.00  0.00     0.155 A 
ATOM     28  C4  ANP d          11.943  36.430  68.343  0.00  0.00     0.167 A 
ATOM     29  N1  ANP d           9.624  37.549  68.012  0.00  0.00    -0.222 NA
ATOM     30  C2  ANP d          10.734  37.974  67.315  0.00  0.00     0.237 A 
ATOM     31  N3  ANP d          11.922  37.448  67.450  0.00  0.00    -0.222 NA
BRANCH  27  32
ATOM     32  N6  ANP d           8.525  36.223  69.542  0.00  0.00    -0.382 N 
ATOM     33  H11 ANP d           7.647  36.725  69.348  0.00  0.00     0.157 HD
ATOM     34  H12 ANP d           8.541  35.465  70.240  0.00  0.00     0.157 HD
ENDBRANCH  27  32
ENDBRANCH   5  23
BRANCH   4  35
ATOM     35  O2  ANP d          16.040  37.537  68.528  0.00  0.00    -0.388 OA
ATOM     36  H8  ANP d          16.639  37.919  69.158  0.00  0.00     0.210 HD
ENDBRANCH   4  35
TORSDOF 11
