REMARK  1 active torsions:
REMARK  status: ('A' for Active; 'I' for Inactive)
REMARK    1  A    between atoms: C1_4  and  S1_5 
ROOT
ATOM      1  C6  MOL d          14.965   5.116  15.387  0.00  0.00     0.048 C 
ATOM      2  C3  MOL d          15.405   3.685  15.098  0.00  0.00    -0.058 A 
ATOM      3  C2  MOL d          15.042   2.632  15.992  0.00  0.00     0.045 A 
ATOM      4  C1  MOL d          15.448   1.369  15.746  0.00  0.00     0.090 A 
ATOM      5  N1  MOL d          16.223   1.092  14.615  0.00  0.00    -0.254 NA
ATOM      6  C5  MOL d          16.530   2.098  13.730  0.00  0.00     0.118 A 
ATOM      7  C4  MOL d          16.118   3.410  13.991  0.00  0.00     0.026 A 
ENDROOT
BRANCH   4   8
ATOM      8  S1  MOL d          15.011   0.061  16.865  0.00  0.00    -0.123 SA
ATOM      9  H5  MOL d          14.480  -0.639  16.371  0.00  0.00     0.108 HD
ENDBRANCH   4   8
TORSDOF 1
