REMARK  6 active torsions:
REMARK  status: ('A' for Active; 'I' for Inactive)
REMARK    1  A    between atoms: C4_7  and  S_1 
REMARK    2  A    between atoms: S_1  and  N3S_21 
REMARK       I    between atoms: N'_2  and  C7_10 
REMARK    3  A    between atoms: C1'_16  and  N'_2 
REMARK    4  A    between atoms: C7_10  and  C1_4 
REMARK    5  A    between atoms: C2'_18  and  C1'_16 
REMARK    6  A    between atoms: C2'_18  and  C3'_20 
ROOT
ATOM      1  C1  RYX d          16.845   3.621  14.775  0.00  0.00     0.032 A 
ATOM      2  C2  RYX d          17.292   1.432  15.844  0.00  0.00     0.026 A 
ATOM      3  C3  RYX d          17.704   2.555  15.123  0.00  0.00     0.018 A 
ATOM      4  C4  RYX d          15.909   1.288  16.140  0.00  0.00     0.079 A 
ATOM      5  C5  RYX d          15.479   3.540  15.077  0.00  0.00     0.018 A 
ATOM      6  C6  RYX d          15.058   2.356  15.701  0.00  0.00     0.026 A 
ENDROOT
BRANCH   1   7
ATOM      7  C7  RYX d          17.392   4.796  14.035  0.00  0.00     0.251 C 
ATOM      8  N'  RYX d          18.674   4.834  13.641  0.00  0.00    -0.351 N 
ATOM      9  H1  RYX d          19.290   4.078  13.861  0.00  0.00     0.162 HD
ATOM     10  O'  RYX d          16.634   5.716  13.755  0.00  0.00    -0.268 OA
BRANCH   8  11
ATOM     11  C1' RYX d          19.160   5.971  12.898  0.00  0.00     0.212 C 
BRANCH  11  12
ATOM     12  C2' RYX d          20.168   6.578  13.878  0.00  0.00     0.354 C 
ATOM     13  F2' RYX d          21.221   5.912  13.406  0.00  0.00    -0.194 F 
ATOM     14  F2' RYX d          19.911   6.473  15.197  0.00  0.00    -0.194 F 
BRANCH  12  15
ATOM     15  C3' RYX d          20.087   8.065  13.813  0.00  0.00     0.456 C 
ATOM     16  F3' RYX d          20.344   8.391  12.528  0.00  0.00    -0.165 F 
ATOM     17  F3' RYX d          20.879   8.716  14.669  0.00  0.00    -0.165 F 
ATOM     18  F3' RYX d          18.856   8.127  14.326  0.00  0.00    -0.165 F 
ENDBRANCH  12  15
ENDBRANCH  11  12
ENDBRANCH   8  11
ENDBRANCH   1   7
BRANCH   4  19
ATOM     19  S   RYX d          15.320  -0.061  16.956  0.00  0.00     0.256 S 
ATOM     20  O1S RYX d          13.865   0.045  16.831  0.00  0.00    -0.201 OA
ATOM     21  O2S RYX d          15.839   0.018  18.289  0.00  0.00    -0.201 OA
BRANCH  19  22
ATOM     22  N3S RYX d          15.941  -1.324  16.223  0.00  0.00    -0.324 N 
ATOM     23  H8  RYX d          15.723  -2.246  16.544  0.00  0.00     0.169 HD
ATOM     24  H9  RYX d          16.550  -1.198  15.440  0.00  0.00     0.169 HD
ENDBRANCH  19  22
ENDBRANCH   4  19
TORSDOF 6
