REMARK  14 active torsions:
REMARK  status: ('A' for Active; 'I' for Inactive)
REMARK    1  A    between atoms: C2_2  and  N1_1 
REMARK    2  A    between atoms: S8_8  and  C5_5 
REMARK    3  A    between atoms: N11_11  and  S8_8 
REMARK    4  A    between atoms: N11_11  and  C12_12 
REMARK    5  A    between atoms: C16_16  and  N11_11 
REMARK    6  A    between atoms: C12_12  and  C13_13 
REMARK    7  A    between atoms: C17_17  and  C16_16 
REMARK    8  A    between atoms: C17_17  and  O18_18 
REMARK    9  A    between atoms: C19_19  and  C17_17 
REMARK   10  A    between atoms: C19_19  and  N20_20 
REMARK   11  A    between atoms: C32_32  and  C19_19 
REMARK       I    between atoms: N20_20  and  C21_21 
REMARK   12  A    between atoms: C21_21  and  O23_23 
REMARK   13  A    between atoms: O23_23  and  C24_24 
REMARK   14  A    between atoms: C38_38  and  C32_32 
ROOT
ATOM      1  C17 MOL d         -10.002  17.105  26.646  0.00  0.00     0.155 C 
ENDROOT
BRANCH   1   2
ATOM      2  C16 MOL d          -9.555  17.085  25.176  0.00  0.00     0.141 C 
BRANCH   2   3
ATOM      3  N11 MOL d          -8.302  16.306  25.058  0.00  0.00    -0.204 NA
BRANCH   3   4
ATOM      4  S8  MOL d          -8.425  14.971  24.116  0.00  0.00     0.243 S 
ATOM      5  O9  MOL d          -9.589  14.227  24.495  0.00  0.00    -0.206 OA
ATOM      6  O10 MOL d          -7.273  14.169  24.374  0.00  0.00    -0.206 OA
BRANCH   4   7
ATOM      7  C5  MOL d          -8.506  15.309  22.546  0.00  0.00     0.074 A 
ATOM      8  C4  MOL d          -9.747  15.525  21.941  0.00  0.00     0.027 A 
ATOM      9  C3  MOL d          -9.826  15.832  20.583  0.00  0.00     0.030 A 
ATOM     10  C2  MOL d          -8.659  15.912  19.819  0.00  0.00     0.025 A 
ATOM     11  C7  MOL d          -7.418  15.673  20.412  0.00  0.00     0.030 A 
ATOM     12  C6  MOL d          -7.339  15.371  21.776  0.00  0.00     0.027 A 
BRANCH  10  13
ATOM     13  N1  MOL d          -8.728  16.190  18.490  0.00  0.00    -0.399 N 
ATOM     14  H   MOL d          -9.641  16.367  18.048  0.00  0.00     0.156 HD
ATOM     15  H   MOL d          -7.867  16.224  17.925  0.00  0.00     0.156 HD
ENDBRANCH  10  13
ENDBRANCH   4   7
ENDBRANCH   3   4
BRANCH   3  16
ATOM     16  C12 MOL d          -7.169  17.194  24.703  0.00  0.00     0.111 C 
BRANCH  16  17
ATOM     17  C13 MOL d          -6.590  17.922  25.921  0.00  0.00    -0.009 C 
ATOM     18  C14 MOL d          -6.216  16.966  27.053  0.00  0.00     0.011 C 
ATOM     19  C15 MOL d          -5.396  18.801  25.525  0.00  0.00     0.011 C 
ENDBRANCH  16  17
ENDBRANCH   3  16
ENDBRANCH   2   3
ENDBRANCH   1   2
BRANCH   1  20
ATOM     20  O18 MOL d         -11.083  18.030  26.890  0.00  0.00    -0.392 OA
ATOM     21  H   MOL d         -11.833  17.785  26.361  0.00  0.00     0.210 HD
ENDBRANCH   1  20
BRANCH   1  22
ATOM     22  C19 MOL d         -10.400  15.731  27.161  0.00  0.00     0.120 C 
BRANCH  22  23
ATOM     23  N20 MOL d         -10.498  15.921  28.604  0.00  0.00    -0.329 N 
ATOM     24  C21 MOL d          -9.714  15.260  29.447  0.00  0.00     0.361 C 
ATOM     25  O22 MOL d          -8.844  14.445  29.115  0.00  0.00    -0.238 OA
ATOM     26  H   MOL d         -11.172  16.565  28.967  0.00  0.00     0.165 HD
BRANCH  24  27
ATOM     27  O23 MOL d          -9.940  15.581  30.845  0.00  0.00    -0.296 OA
BRANCH  27  28
ATOM     28  C24 MOL d          -9.345  14.725  31.795  0.00  0.00     0.166 C 
ATOM     29  C25 MOL d          -9.090  15.630  32.984  0.00  0.00     0.204 C 
ATOM     30  O26 MOL d         -10.319  15.634  33.711  0.00  0.00    -0.358 OA
ATOM     31  C27 MOL d         -11.107  14.478  33.392  0.00  0.00     0.266 C 
ATOM     32  O28 MOL d         -12.368  14.856  32.840  0.00  0.00    -0.361 OA
ATOM     33  C31 MOL d         -10.379  13.739  32.300  0.00  0.00     0.075 C 
ATOM     34  C29 MOL d         -12.723  13.990  31.755  0.00  0.00     0.171 C 
ATOM     35  C30 MOL d         -11.440  13.330  31.291  0.00  0.00     0.038 C 
ENDBRANCH  27  28
ENDBRANCH  24  27
ENDBRANCH  22  23
BRANCH  22  36
ATOM     36  C32 MOL d         -11.792  15.287  26.704  0.00  0.00     0.066 C 
BRANCH  36  37
ATOM     37  C38 MOL d         -12.160  13.957  27.306  0.00  0.00    -0.056 A 
ATOM     38  C33 MOL d         -13.280  13.875  28.147  0.00  0.00     0.007 A 
ATOM     39  C34 MOL d         -13.649  12.653  28.706  0.00  0.00     0.001 A 
ATOM     40  C35 MOL d         -12.891  11.516  28.423  0.00  0.00     0.000 A 
ATOM     41  C36 MOL d         -11.782  11.602  27.581  0.00  0.00     0.001 A 
ATOM     42  C37 MOL d         -11.409  12.819  27.017  0.00  0.00     0.007 A 
ENDBRANCH  36  37
ENDBRANCH  22  36
ENDBRANCH   1  22
TORSDOF 14
