3efs_ligand

Created by X-TOOL on Fri Sep 26 17:34:45 2014
 43 45  0  0  0  0  0  0  0  0999 V2000
  -11.6320   -3.5670    5.1340  P 0  0  0  1  0  4
  -12.6080   -4.2540    6.0580  O 0  0  0  1  0  1
  -10.3680   -4.3470    4.8640  O 0  0  0  1  0  1
  -12.2670   -2.9580    3.9080  O 0  0  0  1  0  1
  -10.2430   -2.4750    7.3140  P 0  0  0  1  0  4
   -9.1840   -1.3970    7.3230  O 0  0  0  1  0  1
   -9.8430   -3.9260    7.4330  O 0  0  0  1  0  1
  -11.1380   -2.2950    5.9870  O 0  0  0  1  0  2
  -10.9880   -1.1900    9.7130  P 0  0  0  1  0  4
  -10.7880    0.2110    9.1880  O 0  0  0  1  0  1
   -9.9350   -1.8300   10.5830  O 0  0  0  1  0  1
  -11.3230   -2.1440    8.4610  O 0  0  0  1  0  2
  -12.3790   -1.2070   10.5170  O 0  0  0  1  0  2
  -12.7960   -0.0440   11.2220  C 0  0  0  3  0  4
  -14.1450    0.3580   10.6450  C 0  0  0  2  0  4
  -15.1760   -0.4800   11.1680  O 0  0  0  1  0  2
  -14.5220    1.7910   10.9840  C 0  0  0  2  0  4
  -14.3040    2.6320    9.8480  O 0  0  0  2  0  2
  -15.9970    1.7490   11.3310  C 0  0  0  2  0  4
  -16.7520    2.4550   10.3440  O 0  0  0  2  0  2
  -16.3770    0.2760   11.3210  C 0  0  0  2  0  4
  -17.0350   -0.0720   12.6010  N 0  0  0  1  0  3
  -17.0270    0.6800   13.7180  C 0  0  0  2  0  3
  -17.7300    0.0830   14.7120  N 0  0  0  1  0  2
  -18.2070   -1.0770   14.2250  C 0  0  0  1  0  3
  -19.0280   -2.1940   14.7440  C 0  0  0  1  0  3
  -19.4930   -2.1890   16.0160  N 0  0  0  3  0  3
  -19.2980   -3.2170   13.9040  N 0  0  0  1  0  2
  -18.8430   -3.2370   12.6380  C 0  0  0  2  0  3
  -18.0930   -2.2600   12.1010  N 0  0  0  1  0  2
  -17.7520   -1.1720   12.8300  C 0  0  0  1  0  3
  -12.0665    0.7670   11.0803  H 0  0  0  1  0  1
  -12.8938   -0.2660   12.2949  H 0  0  0  1  0  1
  -14.1015    0.2478    9.5514  H 0  0  0  1  0  1
  -13.9328    2.1576   11.8374  H 0  0  0  1  0  1
  -14.8391    2.3291    9.1238  H 0  0  0  1  0  1
  -16.1757    2.1898   12.3228  H 0  0  0  1  0  1
  -16.4633    3.3596   10.3133  H 0  0  0  1  0  1
  -17.0613    0.0679   10.4853  H 0  0  0  1  0  1
  -16.5226    1.6407   13.8108  H 0  0  0  1  0  1
  -20.0628   -2.9754   16.3591  H 0  0  0  1  0  1
  -19.2768   -1.3988   16.6403  H 0  0  0  1  0  1
  -19.0955   -4.0886   12.0167  H 0  0  0  1  0  1
  1  2  2  0  0  2
  1  3  2  0  0  2
  1  4  2  0  0  2
  8  1  1  0  0  2
  5  6  2  0  0  2
  5  7  2  0  0  2
  5  8  1  0  0  2
 12  5  1  0  0  2
  9 10  2  0  0  2
  9 11  2  0  0  2
  9 12  1  0  0  2
  9 13  1  0  0  2
 13 14  1  0  0  2
 14 15  1  0  0  2
 15 16  1  0  0  1
 15 17  1  0  0  1
 16 21  1  0  0  1
 17 18  1  0  0  2
 17 19  1  0  0  1
 19 20  1  0  0  2
 19 21  1  0  0  1
 21 22  1  0  0  2
 22 23  1  0  0  1
 22 31  1  0  0  1
 23 24  2  0  0  1
 24 25  1  0  0  1
 25 26  4  0  0  1
 25 31  4  0  0  1
 26 27  1  0  0  2
 26 28  4  0  0  1
 28 29  4  0  0  1
 29 30  4  0  0  1
 30 31  4  0  0  1
 14 32  1  0  0  2
 14 33  1  0  0  2
 15 34  1  0  0  2
 17 35  1  0  0  2
 18 36  1  0  0  2
 19 37  1  0  0  2
 20 38  1  0  0  2
 21 39  1  0  0  2
 23 40  1  0  0  2
 27 41  1  0  0  2
 27 42  1  0  0  2
 29 43  1  0  0  2
M  END
> <MOLECULAR_FORMULA>
C10H12N5O13P3

> <MOLECULAR_WEIGHT>
503.1

> <NUM_HB_ATOMS>
18 

> <NUM_ROTOR>
7  

> <XLOGP2>
-3.94

$$$$
