REMARK  6 active torsions:
REMARK  status: ('A' for Active; 'I' for Inactive)
REMARK    1  A    between atoms: C4_4  and  N5_5 
REMARK    2  A    between atoms: N5_5  and  C6_6 
REMARK    3  A    between atoms: C6_6  and  C7_7 
REMARK    4  A    between atoms: C12_12  and  N13_13 
REMARK    5  A    between atoms: N13_13  and  S14_14 
REMARK    6  A    between atoms: C22_22  and  C24_24 
ROOT
ATOM      1  N1  10N d          23.630  -6.707 -39.417  0.00  0.00    -0.241 NA
ATOM      2  C2  10N d          22.843  -5.686 -39.258  0.00  0.00     0.144 A 
ATOM      3  C3  10N d          21.977  -5.272 -40.267  0.00  0.00     0.089 A 
ATOM      4  C4  10N d          21.947  -5.966 -41.493  0.00  0.00     0.065 A 
ATOM      5  C19 10N d          22.823  -7.065 -41.624  0.00  0.00     0.040 A 
ATOM      6  C20 10N d          23.657  -7.399 -40.540  0.00  0.00     0.140 A 
ATOM      7  N21 10N d          24.397  -8.479 -40.898  0.00  0.00    -0.340 N 
ATOM      8  C22 10N d          24.089  -8.867 -42.167  0.00  0.00     0.045 A 
ATOM      9  C23 10N d          23.132  -8.044 -42.668  0.00  0.00     0.048 A 
ATOM     10  C30 10N d          21.134  -4.148 -40.025  0.00  0.00     0.103 C 
ATOM     11  N31 10N d          20.472  -3.258 -39.825  0.00  0.00    -0.191 NA
ATOM     12  H14 10N d          25.093  -8.940 -40.295  0.00  0.00     0.167 HD
ENDROOT
BRANCH   4  13
ATOM     13  N5  10N d          21.077  -5.525 -42.479  0.00  0.00    -0.383 N 
ATOM     14  H2  10N d          20.719  -4.559 -42.489  0.00  0.00     0.160 HD
BRANCH  13  15
ATOM     15  C6  10N d          20.690  -6.495 -43.506  0.00  0.00     0.162 C 
BRANCH  15  16
ATOM     16  C7  10N d          19.691  -5.840 -44.435  0.00  0.00     0.006 A 
ATOM     17  C8  10N d          20.147  -5.074 -45.490  0.00  0.00     0.014 A 
ATOM     18  C9  10N d          19.224  -4.477 -46.333  0.00  0.00     0.020 A 
ATOM     19  C10 10N d          17.882  -4.663 -46.101  0.00  0.00     0.119 A 
ATOM     20  N11 10N d          17.470  -5.394 -45.090  0.00  0.00    -0.242 NA
ATOM     21  C12 10N d          18.313  -5.976 -44.261  0.00  0.00     0.146 A 
BRANCH  21  22
ATOM     22  N13 10N d          17.772  -6.734 -43.231  0.00  0.00    -0.264 N 
ATOM     23  C18 10N d          17.561  -8.162 -43.439  0.00  0.00     0.171 C 
BRANCH  22  24
ATOM     24  S14 10N d          17.318  -6.031 -41.805  0.00  0.00     0.230 S 
ATOM     25  O15 10N d          18.267  -5.031 -41.576  0.00  0.00    -0.206 OA
ATOM     26  O16 10N d          15.974  -5.684 -42.025  0.00  0.00    -0.206 OA
ATOM     27  C17 10N d          17.429  -7.353 -40.582  0.00  0.00     0.186 C 
ENDBRANCH  22  24
ENDBRANCH  21  22
ENDBRANCH  15  16
ENDBRANCH  13  15
ENDBRANCH   4  13
BRANCH   8  28
ATOM     28  C24 10N d          24.733 -10.016 -42.834  0.00  0.00    -0.009 A 
ATOM     29  C25 10N d          25.910 -10.545 -42.302  0.00  0.00     0.013 A 
ATOM     30  C26 10N d          26.523 -11.617 -42.910  0.00  0.00     0.001 A 
ATOM     31  C27 10N d          25.968 -12.173 -44.043  0.00  0.00     0.000 A 
ATOM     32  C28 10N d          24.802 -11.657 -44.574  0.00  0.00     0.001 A 
ATOM     33  C29 10N d          24.180 -10.585 -43.977  0.00  0.00     0.013 A 
ENDBRANCH   8  28
TORSDOF 6
