REMARK  30 active torsions:
REMARK  status: ('A' for Active; 'I' for Inactive)
REMARK    1  A    between atoms: CT1_2  and  OT2_3 
REMARK       I    between atoms: N_8  and  CT1_2 
REMARK    2  A    between atoms: OT2_3  and  CT2_4 
REMARK    3  A    between atoms: CA_9  and  N_8 
REMARK    4  A    between atoms: CA_9  and  CB_12 
REMARK    5  A    between atoms: C_10  and  CA_9 
REMARK       I    between atoms: N_19  and  C_10 
REMARK    6  A    between atoms: CB_12  and  CG_13 
REMARK    7  A    between atoms: CA_20  and  N_19 
REMARK    8  A    between atoms: CA_20  and  CB_23 
REMARK    9  A    between atoms: C_21  and  CA_20 
REMARK       I    between atoms: N_29  and  C_21 
REMARK   10  A    between atoms: CB_23  and  CG_24 
REMARK   11  A    between atoms: CA_30  and  N_29 
REMARK   12  A    between atoms: CA_30  and  CB_31 
REMARK   13  A    between atoms: CH_38  and  CA_30 
REMARK   14  A    between atoms: CB_31  and  CG_32 
REMARK   15  A    between atoms: CH_38  and  OH_39 
REMARK   16  A    between atoms: CM_40  and  CH_38 
REMARK   17  A    between atoms: N1_41  and  CM_40 
REMARK   18  A    between atoms: N1_41  and  CB2_42 
REMARK       I    between atoms: C_46  and  N1_41 
REMARK   19  A    between atoms: CB2_42  and  CG2_43 
REMARK       I    between atoms: C_46  and  N_48 
REMARK   20  A    between atoms: N_48  and  CA_49 
REMARK   21  A    between atoms: CA_49  and  CB_52 
REMARK   22  A    between atoms: CA_49  and  C_50 
REMARK       I    between atoms: C_50  and  N_57 
REMARK   23  A    between atoms: CB_52  and  CG_53 
REMARK   24  A    between atoms: CG_53  and  CD_54 
REMARK   25  A    between atoms: CD_54  and  CE_55 
REMARK   26  A    between atoms: CE_55  and  NZ_56 
REMARK   27  A    between atoms: N_57  and  CA_58 
REMARK   28  A    between atoms: CA_58  and  CB_61 
REMARK   29  A    between atoms: CA_58  and  C_59 
REMARK   30  A    between atoms: CB_61  and  CG_62 
ROOT
ATOM      1  CA  MOL d           4.918  33.177  14.966  0.00  0.00     0.115 C 
ENDROOT
BRANCH   1   2
ATOM      2  N   MOL d           4.032  32.013  15.130  0.00  0.00    -0.352 N 
ATOM      3  C   MOL d           3.044  32.062  15.994  0.00  0.00     0.241 C 
ATOM      4  O   MOL d           2.686  33.090  16.565  0.00  0.00    -0.271 OA
ATOM      5  H26 MOL d           4.182  31.188  14.585  0.00  0.00     0.163 HD
BRANCH   3   6
ATOM      6  CA  MOL d           2.372  30.722  16.253  0.00  0.00     0.182 C 
BRANCH   6   7
ATOM      7  N   MOL d           3.091  30.040  17.382  0.00  0.00    -0.346 N 
ATOM      8  C   MOL d           3.297  28.729  17.310  0.00  0.00     0.241 C 
ATOM      9  O   MOL d           2.962  28.012  16.373  0.00  0.00    -0.271 OA
ATOM     10  H19 MOL d           3.409  30.563  18.173  0.00  0.00     0.163 HD
BRANCH   8  11
ATOM     11  CA  MOL d           4.064  28.153  18.491  0.00  0.00     0.183 C 
BRANCH  11  12
ATOM     12  N   MOL d           3.680  26.756  18.722  0.00  0.00    -0.323 N 
ATOM     13  CT1 MOL d           2.645  26.383  19.451  0.00  0.00     0.362 C 
ATOM     14  OT1 MOL d           1.891  27.163  20.024  0.00  0.00    -0.238 OA
ATOM     15  H10 MOL d           4.238  26.041  18.300  0.00  0.00     0.165 HD
BRANCH  13  16
ATOM     16  OT2 MOL d           2.512  24.968  19.499  0.00  0.00    -0.294 OA
BRANCH  16  17
ATOM     17  CT2 MOL d           1.425  24.470  20.272  0.00  0.00     0.061 C 
ATOM     18  CT3 MOL d           1.523  22.937  20.230  0.00  0.00     0.046 C 
ATOM     19  CT4 MOL d           0.082  24.915  19.693  0.00  0.00     0.046 C 
ATOM     20  CT5 MOL d           1.546  24.927  21.729  0.00  0.00     0.046 C 
ENDBRANCH  16  17
ENDBRANCH  13  16
ENDBRANCH  11  12
BRANCH  11  21
ATOM     21  CB  MOL d           5.566  28.249  18.207  0.00  0.00     0.073 C 
BRANCH  21  22
ATOM     22  CG  MOL d           6.352  28.102  19.511  0.00  0.00    -0.056 A 
ATOM     23  CD1 MOL d           5.979  28.847  20.623  0.00  0.00     0.007 A 
ATOM     24  CE1 MOL d           6.693  28.716  21.809  0.00  0.00     0.001 A 
ATOM     25  CZ  MOL d           7.771  27.840  21.869  0.00  0.00     0.000 A 
ATOM     26  CE2 MOL d           8.137  27.100  20.751  0.00  0.00     0.001 A 
ATOM     27  CD2 MOL d           7.428  27.225  19.562  0.00  0.00     0.007 A 
ENDBRANCH  21  22
ENDBRANCH  11  21
ENDBRANCH   8  11
ENDBRANCH   6   7
BRANCH   6  28
ATOM     28  CB  MOL d           0.932  30.974  16.651  0.00  0.00     0.093 C 
BRANCH  28  29
ATOM     29  CG  MOL d           0.137  31.376  15.414  0.00  0.00     0.030 A 
ATOM     30  ND1 MOL d           0.509  31.074  14.106  0.00  0.00    -0.353 N 
ATOM     31  CE1 MOL d          -0.458  31.609  13.257  0.00  0.00     0.207 A 
ATOM     32  H23 MOL d           1.348  30.550  13.818  0.00  0.00     0.166 HD
ATOM     33  NE2 MOL d          -1.426  32.267  14.028  0.00  0.00    -0.254 NA
ATOM     34  CD2 MOL d          -1.060  32.114  15.366  0.00  0.00     0.143 A 
ENDBRANCH  28  29
ENDBRANCH   6  28
ENDBRANCH   3   6
ENDBRANCH   1   2
BRANCH   1  35
ATOM     35  CB  MOL d           6.379  32.757  15.114  0.00  0.00     0.032 C 
BRANCH  35  36
ATOM     36  CG  MOL d           6.740  32.370  16.545  0.00  0.00    -0.013 C 
ATOM     37  CD1 MOL d           6.308  33.403  17.588  0.00  0.00     0.005 C 
ATOM     38  CE1 MOL d           6.580  32.858  18.996  0.00  0.00     0.000 C 
ATOM     39  CZ  MOL d           8.054  32.491  19.179  0.00  0.00     0.000 C 
ATOM     40  CE2 MOL d           8.544  31.532  18.093  0.00  0.00     0.000 C 
ATOM     41  CD2 MOL d           8.232  32.060  16.692  0.00  0.00     0.005 C 
ENDBRANCH  35  36
ENDBRANCH   1  35
BRANCH   1  42
ATOM     42  CH  MOL d           4.657  33.833  13.604  0.00  0.00     0.159 C 
BRANCH  42  43
ATOM     43  OH  MOL d           5.241  33.028  12.573  0.00  0.00    -0.392 OA
ATOM     44  H42 MOL d           5.081  33.432  11.728  0.00  0.00     0.210 HD
ENDBRANCH  42  43
BRANCH  42  45
ATOM     45  CM  MOL d           3.162  33.993  13.343  0.00  0.00     0.161 C 
BRANCH  45  46
ATOM     46  N1  MOL d           2.958  35.114  12.414  0.00  0.00    -0.331 N 
ATOM     47  C   MOL d           3.043  36.353  12.866  0.00  0.00     0.319 C 
ATOM     48  O   MOL d           3.262  36.544  14.065  0.00  0.00    -0.247 OA
ATOM     49  N   MOL d           3.034  37.366  12.015  0.00  0.00    -0.330 N 
ATOM     50  H54 MOL d           3.097  37.204  11.030  0.00  0.00     0.165 HD
BRANCH  46  51
ATOM     51  CB2 MOL d           2.573  34.842  11.021  0.00  0.00     0.131 C 
BRANCH  51  52
ATOM     52  CG2 MOL d           1.124  34.386  10.914  0.00  0.00    -0.005 C 
ATOM     53  CD3 MOL d           0.163  35.561  10.923  0.00  0.00     0.011 C 
ATOM     54  CD4 MOL d           0.893  33.447   9.746  0.00  0.00     0.011 C 
ENDBRANCH  51  52
ENDBRANCH  46  51
BRANCH  49  55
ATOM     55  CA  MOL d           2.930  38.737  12.544  0.00  0.00     0.178 C 
BRANCH  55  56
ATOM     56  CB  MOL d           3.688  39.698  11.644  0.00  0.00     0.035 C 
BRANCH  56  57
ATOM     57  CG  MOL d           3.899  41.023  12.356  0.00  0.00     0.004 C 
BRANCH  57  58
ATOM     58  CD  MOL d           4.077  42.149  11.351  0.00  0.00     0.027 C 
BRANCH  58  59
ATOM     59  CE  MOL d           3.756  43.480  12.015  0.00  0.00     0.229 C 
BRANCH  59  60
ATOM     60  NZ  MOL d           3.887  44.562  11.027  0.00  0.00    -0.079 N 
ATOM     61  H64 MOL d           3.675  45.445  11.465  0.00  0.00     0.274 HD
ATOM     62  H65 MOL d           3.246  44.402  10.266  0.00  0.00     0.274 HD
ATOM     63  H66 MOL d           4.830  44.581  10.673  0.00  0.00     0.274 HD
ENDBRANCH  59  60
ENDBRANCH  58  59
ENDBRANCH  57  58
ENDBRANCH  56  57
ENDBRANCH  55  56
BRANCH  55  64
ATOM     64  C   MOL d           1.477  39.156  12.656  0.00  0.00     0.241 C 
ATOM     65  O   MOL d           0.708  39.087  11.698  0.00  0.00    -0.271 OA
ATOM     66  N   MOL d           1.051  39.600  13.826  0.00  0.00    -0.344 N 
ATOM     67  H67 MOL d           1.672  39.672  14.607  0.00  0.00     0.163 HD
BRANCH  66  68
ATOM     68  CA  MOL d          -0.371  39.987  13.945  0.00  0.00     0.189 C 
BRANCH  68  69
ATOM     69  CB  MOL d          -1.159  38.881  14.635  0.00  0.00     0.074 C 
BRANCH  69  70
ATOM     70  CG  MOL d          -2.331  38.285  13.860  0.00  0.00    -0.056 A 
ATOM     71  CD1 MOL d          -3.490  37.929  14.549  0.00  0.00     0.007 A 
ATOM     72  CE1 MOL d          -4.584  37.383  13.889  0.00  0.00     0.001 A 
ATOM     73  CZ  MOL d          -4.545  37.176  12.514  0.00  0.00     0.000 A 
ATOM     74  CE2 MOL d          -3.395  37.524  11.810  0.00  0.00     0.001 A 
ATOM     75  CD2 MOL d          -2.307  38.071  12.485  0.00  0.00     0.007 A 
ENDBRANCH  69  70
ENDBRANCH  68  69
BRANCH  68  76
ATOM     76  C   MOL d          -0.489  41.280  14.738  0.00  0.00     0.197 C 
ATOM     77  O   MOL d          -0.276  42.352  14.170  0.00  0.00    -0.646 OA
ATOM     78  OXT MOL d          -0.793  41.176  16.017  0.00  0.00    -0.646 OA
ENDBRANCH  68  76
ENDBRANCH  66  68
ENDBRANCH  55  64
ENDBRANCH  49  55
ENDBRANCH  45  46
ENDBRANCH  42  45
ENDBRANCH   1  42
TORSDOF 30
