REMARK  11 active torsions:
REMARK  status: ('A' for Active; 'I' for Inactive)
REMARK    1  A    between atoms: CA_15  and  C_1 
REMARK    2  A    between atoms: CA_15  and  N_2 
REMARK    3  A    between atoms: C6_10  and  N6_11 
REMARK    4  A    between atoms: C1'_19  and  N9_14 
REMARK    5  A    between atoms: CB_16  and  CA_15 
REMARK    6  A    between atoms: CG_18  and  CB_16 
REMARK    7  A    between atoms: SD_17  and  CG_18 
REMARK    8  A    between atoms: C5'_26  and  SD_17 
REMARK    9  A    between atoms: C2'_20  and  O2'_21 
REMARK   10  A    between atoms: C3'_22  and  O3'_23 
REMARK   11  A    between atoms: C4'_24  and  C5'_26 
ROOT
ATOM      1  C1' TT8 d          44.096  48.820   7.771  0.00  0.00     0.262 C 
ATOM      2  C2' TT8 d          44.288  50.015   8.679  0.00  0.00     0.198 C 
ATOM      3  C3' TT8 d          43.924  51.184   7.767  0.00  0.00     0.180 C 
ATOM      4  C4' TT8 d          44.084  50.621   6.356  0.00  0.00     0.165 C 
ATOM      5  O4' TT8 d          44.519  49.270   6.492  0.00  0.00    -0.355 OA
ENDROOT
BRANCH   1   6
ATOM      6  N9  TT8 d          44.863  47.628   8.197  0.00  0.00    -0.294 N 
ATOM      7  C4  TT8 d          44.346  46.364   8.282  0.00  0.00     0.167 A 
ATOM      8  N3  TT8 d          43.089  45.858   8.033  0.00  0.00    -0.222 NA
ATOM      9  C5  TT8 d          45.393  45.520   8.708  0.00  0.00     0.149 A 
ATOM     10  C2  TT8 d          42.805  44.499   8.190  0.00  0.00     0.237 A 
ATOM     11  N1  TT8 d          43.845  43.658   8.614  0.00  0.00    -0.222 NA
ATOM     12  C6  TT8 d          45.133  44.138   8.876  0.00  0.00     0.157 A 
ATOM     13  N7  TT8 d          46.492  46.284   8.867  0.00  0.00    -0.236 NA
ATOM     14  C8  TT8 d          46.195  47.565   8.563  0.00  0.00     0.214 A 
BRANCH  12  15
ATOM     15  N6  TT8 d          46.076  43.257   9.276  0.00  0.00    -0.377 N 
ATOM     16  C1  TT8 d          47.507  43.517   9.610  0.00  0.00     0.148 C 
ATOM     17  H8  TT8 d          45.767  42.278   9.362  0.00  0.00     0.160 HD
ENDBRANCH  12  15
ENDBRANCH   1   6
BRANCH   2  18
ATOM     18  O2' TT8 d          43.478  49.934   9.824  0.00  0.00    -0.388 OA
ATOM     19  H17 TT8 d          42.565  49.900   9.563  0.00  0.00     0.210 HD
ENDBRANCH   2  18
BRANCH   3  20
ATOM     20  O3' TT8 d          42.631  51.714   7.998  0.00  0.00    -0.390 OA
ATOM     21  H19 TT8 d          42.574  52.028   8.893  0.00  0.00     0.210 HD
ENDBRANCH   3  20
BRANCH   4  22
ATOM     22  C5' TT8 d          45.131  51.373   5.546  0.00  0.00     0.108 C 
BRANCH  22  23
ATOM     23  SD  TT8 d          44.539  53.004   5.027  0.00  0.00    -0.166 SA
BRANCH  23  24
ATOM     24  CG  TT8 d          43.741  52.670   3.440  0.00  0.00     0.076 C 
BRANCH  24  25
ATOM     25  CB  TT8 d          42.202  52.807   3.445  0.00  0.00     0.054 C 
BRANCH  25  26
ATOM     26  CA  TT8 d          41.515  52.530   2.076  0.00  0.00     0.284 C 
BRANCH  26  27
ATOM     27  C   TT8 d          41.941  53.507   0.977  0.00  0.00     0.204 C 
ATOM     28  O   TT8 d          42.688  53.112   0.064  0.00  0.00    -0.646 OA
ATOM     29  OXT TT8 d          41.569  54.699   0.984  0.00  0.00    -0.646 OA
ENDBRANCH  26  27
BRANCH  26  30
ATOM     30  N   TT8 d          41.821  51.139   1.604  0.00  0.00    -0.065 N 
ATOM     31  H1  TT8 d          41.548  50.476   2.313  0.00  0.00     0.275 HD
ATOM     32  H2  TT8 d          42.810  51.054   1.427  0.00  0.00     0.275 HD
ATOM     33  H3  TT8 d          41.310  50.952   0.755  0.00  0.00     0.275 HD
ENDBRANCH  26  30
ENDBRANCH  25  26
ENDBRANCH  24  25
ENDBRANCH  23  24
ENDBRANCH  22  23
ENDBRANCH   4  22
TORSDOF 11
