3g2l_ligand

Created by X-TOOL on Fri Sep 26 17:34:46 2014
 45 48  0  0  0  0  0  0  0  0999 V2000
   36.6650   26.6870   29.7240  C 0  0  0  1  0  3
   36.2660   26.8680   28.3820  C 0  0  0  2  0  3
   36.8380   27.8690   27.6020  C 0  0  0  2  0  3
   37.8180   28.7030   28.1550  C 0  0  0  2  0  3
   38.2140   28.5330   29.4870  C 0  0  0  2  0  3
   37.6490   27.5240   30.2730  C 0  0  0  1  0  3
   38.0570   27.3520   31.6030  C 0  0  0  2  0  3
   37.4850   26.3430   32.3930  C 0  0  0  2  0  3
   36.5040   25.5040   31.8480  C 0  0  0  2  0  3
   36.1130   25.6550   30.5120  C 0  0  0  1  0  3
   35.1040   24.8600   29.9690  C 0  0  0  1  0  3
   35.0550   24.2120   28.8100  C 0  0  0  2  0  3
   33.9190   24.6910   30.5380  N 0  0  0  1  0  2
   33.2200   23.9890   29.8100  N 0  0  0  1  0  2
   33.8360   23.6800   28.7890  N 0  0  0  1  0  3
   33.1580   22.8470   27.7720  C 0  0  0  2  0  4
   33.2050   21.4420   28.0700  O 0  0  0  1  0  2
   32.1860   20.7470   27.3050  C 0  0  0  2  0  4
   32.2250   19.2860   27.7560  C 0  0  0  3  0  4
   33.3910   18.6200   27.2360  O 0  0  0  2  0  2
   32.3840   20.9300   25.7740  C 0  0  0  2  0  4
   31.2290   20.4800   25.0810  O 0  0  0  2  0  2
   32.6370   22.4020   25.3860  C 0  0  0  2  0  4
   33.0990   22.4970   24.0380  O 0  0  0  2  0  2
   33.6480   23.0390   26.3300  C 0  0  0  2  0  4
   33.8170   24.4340   26.0240  O 0  0  0  2  0  2
   35.5075   26.2218   27.9552  H 0  0  0  1  0  1
   36.5267   28.0023   26.5723  H 0  0  0  1  0  1
   38.2704   29.4811   27.5509  H 0  0  0  1  0  1
   38.9648   29.1890   29.9125  H 0  0  0  1  0  1
   38.8172   28.0008   32.0228  H 0  0  0  1  0  1
   37.8011   26.2131   33.4217  H 0  0  0  1  0  1
   36.0468   24.7364   32.4619  H 0  0  0  1  0  1
   35.8332   24.1344   28.0522  H 0  0  0  1  0  1
   32.1009   23.1503   27.7922  H 0  0  0  1  0  1
   31.2018   21.1654   27.5624  H 0  0  0  1  0  1
   31.3236   18.7720   27.3910  H 0  0  0  1  0  1
   32.2488   19.2486   28.8551  H 0  0  0  1  0  1
   33.3946   17.7160   27.5280  H 0  0  0  1  0  1
   33.2507   20.3289   25.4618  H 0  0  0  1  0  1
   31.3569   20.5947   24.1467  H 0  0  0  1  0  1
   31.6874   22.9509   25.4690  H 0  0  0  1  0  1
   33.2485   23.4093   23.8192  H 0  0  0  1  0  1
   34.6181   22.5342   26.2115  H 0  0  0  1  0  1
   34.4500   24.8138   26.6219  H 0  0  0  1  0  1
  1  2  4  0  0  1
  1  6  4  0  0  1
  1 10  4  0  0  1
  2  3  4  0  0  1
  3  4  4  0  0  1
  4  5  4  0  0  1
  5  6  4  0  0  1
  6  7  4  0  0  1
  7  8  4  0  0  1
  8  9  4  0  0  1
  9 10  4  0  0  1
 10 11  1  0  0  2
 11 12  2  0  0  1
 11 13  1  0  0  1
 12 15  1  0  0  1
 13 14  2  0  0  1
 14 15  1  0  0  1
 15 16  1  0  0  2
 16 17  1  0  0  1
 16 25  1  0  0  1
 17 18  1  0  0  1
 18 19  1  0  0  2
 18 21  1  0  0  1
 19 20  1  0  0  2
 21 22  1  0  0  2
 21 23  1  0  0  1
 23 24  1  0  0  2
 23 25  1  0  0  1
 25 26  1  0  0  2
  2 27  1  0  0  2
  3 28  1  0  0  2
  4 29  1  0  0  2
  5 30  1  0  0  2
  7 31  1  0  0  2
  8 32  1  0  0  2
  9 33  1  0  0  2
 12 34  1  0  0  2
 16 35  1  0  0  2
 18 36  1  0  0  2
 19 37  1  0  0  2
 19 38  1  0  0  2
 20 39  1  0  0  2
 21 40  1  0  0  2
 22 41  1  0  0  2
 23 42  1  0  0  2
 24 43  1  0  0  2
 25 44  1  0  0  2
 26 45  1  0  0  2
M  END
> <MOLECULAR_FORMULA>
C18H19N3O5

> <MOLECULAR_WEIGHT>
357.2

> <NUM_HB_ATOMS>
8  

> <NUM_ROTOR>
2  

> <XLOGP2>
0.75 

$$$$
