REMARK  14 active torsions:
REMARK  status: ('A' for Active; 'I' for Inactive)
REMARK    1  A    between atoms: O3C_40  and  PD_1 
REMARK    2  A    between atoms: O3B_12  and  PG_5 
REMARK    3  A    between atoms: PB_9  and  O3B_12 
REMARK    4  A    between atoms: O3A_13  and  PB_9 
REMARK    5  A    between atoms: PA_14  and  O3A_13 
REMARK    6  A    between atoms: O5'_17  and  PA_14 
REMARK    7  A    between atoms: C5'_18  and  O5'_17 
REMARK    8  A    between atoms: C4'_19  and  C5'_18 
REMARK    9  A    between atoms: O3'_22  and  C3'_21 
REMARK   10  A    between atoms: PC_37  and  O3'_22 
REMARK   11  A    between atoms: C2'_23  and  O2'_24 
REMARK   12  A    between atoms: C1'_25  and  N9_26 
REMARK   13  A    between atoms: C2_33  and  N2_34 
REMARK   14  A    between atoms: PC_37  and  O3C_40 
ROOT
ATOM      1  C4' MOL d          97.216 -27.104 101.807  0.00  0.00     0.180 C 
ATOM      2  O4' MOL d          97.464 -27.416 100.366  0.00  0.00    -0.353 OA
ATOM      3  C3' MOL d          96.672 -25.728 101.878  0.00  0.00     0.198 C 
ATOM      4  C2' MOL d          96.426 -25.305 100.498  0.00  0.00     0.199 C 
ATOM      5  C1' MOL d          97.398 -26.081  99.703  0.00  0.00     0.262 C 
ENDROOT
BRANCH   5   6
ATOM      6  N9  MOL d          97.040 -26.245  98.357  0.00  0.00    -0.295 N 
ATOM      7  C8  MOL d          95.831 -26.501  97.841  0.00  0.00     0.214 A 
ATOM      8  N7  MOL d          95.902 -26.593  96.514  0.00  0.00    -0.234 NA
ATOM      9  C5  MOL d          97.166 -26.401  96.129  0.00  0.00     0.171 A 
ATOM     10  C6  MOL d          97.856 -26.374  94.909  0.00  0.00     0.292 A 
ATOM     11  C4  MOL d          97.901 -26.193  97.307  0.00  0.00     0.161 A 
ATOM     12  O6  MOL d          97.317 -26.526  93.823  0.00  0.00    -0.265 OA
ATOM     13  N1  MOL d          99.169 -26.159  94.918  0.00  0.00    -0.154 N 
ATOM     14  C2  MOL d          99.852 -25.962  96.047  0.00  0.00     0.680 A 
ATOM     15  H9  MOL d          99.661 -26.145  94.048  0.00  0.00     0.187 HD
ATOM     16  N3  MOL d          99.233 -25.970  97.248  0.00  0.00    -0.174 N 
ATOM     17  H12 MOL d          99.771 -25.808  98.111  0.00  0.00     0.186 HD
BRANCH  14  18
ATOM     18  N2  MOL d         101.231 -25.715  95.984  0.00  0.00    -0.234 N 
ATOM     19  H10 MOL d         101.767 -25.562  96.850  0.00  0.00     0.174 HD
ATOM     20  H11 MOL d         101.708 -25.687  95.072  0.00  0.00     0.174 HD
ENDBRANCH  14  18
ENDBRANCH   5   6
BRANCH   4  21
ATOM     21  O2' MOL d          96.625 -23.876 100.263  0.00  0.00    -0.388 OA
ATOM     22  H6  MOL d          96.033 -23.380 100.816  0.00  0.00     0.210 HD
ENDBRANCH   4  21
BRANCH   1  23
ATOM     23  C5' MOL d          96.322 -28.147 102.350  0.00  0.00     0.216 C 
BRANCH  23  24
ATOM     24  O5' MOL d          95.053 -28.113 101.733  0.00  0.00    -0.287 OA
BRANCH  24  25
ATOM     25  PA  MOL d          93.937 -29.061 102.351  0.00  0.00     0.417 P 
ATOM     26  O1A MOL d          92.669 -28.828 101.583  0.00  0.00    -0.624 OA
ATOM     27  O2A MOL d          94.408 -30.482 102.250  0.00  0.00    -0.624 OA
BRANCH  25  28
ATOM     28  O3A MOL d          93.756 -28.929 103.931  0.00  0.00    -0.180 OA
BRANCH  28  29
ATOM     29  PB  MOL d          93.298 -27.728 104.866  0.00  0.00     0.428 P 
ATOM     30  O1B MOL d          94.305 -26.602 104.816  0.00  0.00    -0.624 OA
ATOM     31  O2B MOL d          91.909 -27.271 104.485  0.00  0.00    -0.624 OA
BRANCH  29  32
ATOM     32  O3B MOL d          93.271 -28.282 106.356  0.00  0.00    -0.173 OA
BRANCH  32  33
ATOM     33  PG  MOL d          94.554 -28.815 107.154  0.00  0.00     0.431 P 
ATOM     34  O1G MOL d          94.672 -30.305 106.953  0.00  0.00    -0.616 OA
ATOM     35  O2G MOL d          94.347 -28.538 108.629  0.00  0.00    -0.616 OA
ATOM     36  O3G MOL d          95.822 -28.144 106.684  0.00  0.00    -0.616 OA
ENDBRANCH  32  33
ENDBRANCH  29  32
ENDBRANCH  28  29
ENDBRANCH  25  28
ENDBRANCH  24  25
ENDBRANCH  23  24
ENDBRANCH   1  23
BRANCH   3  37
ATOM     37  O3' MOL d          97.707 -24.922 102.500  0.00  0.00    -0.279 OA
BRANCH  37  38
ATOM     38  PC  MOL d          97.566 -24.568 104.055  0.00  0.00     0.419 P 
ATOM     39  O1C MOL d          98.854 -23.954 104.464  0.00  0.00    -0.624 OA
ATOM     40  O2C MOL d          97.168 -25.802 104.822  0.00  0.00    -0.624 OA
BRANCH  38  41
ATOM     41  O3C MOL d          96.386 -23.500 103.998  0.00  0.00    -0.173 OA
BRANCH  41  42
ATOM     42  PD  MOL d          95.581 -22.819 105.193  0.00  0.00     0.431 P 
ATOM     43  O1D MOL d          94.143 -22.780 104.769  0.00  0.00    -0.616 OA
ATOM     44  O2D MOL d          95.802 -23.670 106.436  0.00  0.00    -0.616 OA
ATOM     45  O3D MOL d          96.139 -21.429 105.392  0.00  0.00    -0.616 OA
ENDBRANCH  41  42
ENDBRANCH  38  41
ENDBRANCH  37  38
ENDBRANCH   3  37
TORSDOF 14
