REMARK  5 active torsions:
REMARK  status: ('A' for Active; 'I' for Inactive)
REMARK    1  A    between atoms: C1'_19  and  C9_1 
REMARK    2  A    between atoms: C5'_12  and  O5'_11 
REMARK    3  A    between atoms: C4'_13  and  C5'_12 
REMARK    4  A    between atoms: C3'_15  and  O3'_16 
REMARK    5  A    between atoms: C2'_17  and  O2'_18 
ROOT
ATOM      1  C4' IMH d           2.983  19.747  23.053  0.00  0.00     0.241 C 
ATOM      2  N4' IMH d           3.664  19.841  24.322  0.00  0.00    -0.055 N 
ATOM      3  C3' IMH d           3.051  18.322  22.598  0.00  0.00     0.182 C 
ATOM      4  C2' IMH d           3.514  17.561  23.811  0.00  0.00     0.184 C 
ATOM      5  C1' IMH d           4.006  18.561  24.896  0.00  0.00     0.254 C 
ATOM      6  H9  IMH d           3.065  20.329  24.969  0.00  0.00     0.278 HD
ATOM      7  H10 IMH d           4.514  20.367  24.189  0.00  0.00     0.278 HD
ENDROOT
BRANCH   5   8
ATOM      8  C9  IMH d           3.211  18.453  26.217  0.00  0.00     0.022 A 
ATOM      9  C8  IMH d           3.168  19.440  27.192  0.00  0.00     0.100 A 
ATOM     10  N7  IMH d           2.425  19.159  28.233  0.00  0.00    -0.359 N 
ATOM     11  C5  IMH d           1.906  17.895  27.978  0.00  0.00     0.130 A 
ATOM     12  H2  IMH d           2.261  19.748  29.062  0.00  0.00     0.165 HD
ATOM     13  C6  IMH d           1.012  17.078  28.782  0.00  0.00     0.275 A 
ATOM     14  C4  IMH d           2.371  17.417  26.751  0.00  0.00     0.100 A 
ATOM     15  O6  IMH d           0.521  17.367  29.870  0.00  0.00    -0.266 OA
ATOM     16  N1  IMH d           0.701  15.835  28.194  0.00  0.00    -0.316 N 
ATOM     17  C2  IMH d           1.197  15.403  26.957  0.00  0.00     0.210 A 
ATOM     18  H3  IMH d           0.087  15.222  28.692  0.00  0.00     0.170 HD
ATOM     19  N3  IMH d           2.043  16.175  26.191  0.00  0.00    -0.241 NA
ENDBRANCH   5   8
BRANCH   4  20
ATOM     20  O2' IMH d           4.556  16.630  23.471  0.00  0.00    -0.390 OA
ATOM     21  H14 IMH d           5.295  17.103  23.108  0.00  0.00     0.210 HD
ENDBRANCH   4  20
BRANCH   1  22
ATOM     22  C5' IMH d           1.574  20.207  23.125  0.00  0.00     0.199 C 
BRANCH  22  23
ATOM     23  O5' IMH d           1.572  21.559  23.554  0.00  0.00    -0.399 OA
ATOM     24  H5  IMH d           0.677  21.872  23.606  0.00  0.00     0.209 HD
ENDBRANCH  22  23
ENDBRANCH   1  22
BRANCH   3  25
ATOM     25  O3' IMH d           4.001  18.312  21.517  0.00  0.00    -0.391 OA
ATOM     26  H12 IMH d           4.089  17.427  21.183  0.00  0.00     0.210 HD
ENDBRANCH   3  25
TORSDOF 5
