REMARK  9 active torsions:
REMARK  status: ('A' for Active; 'I' for Inactive)
REMARK    1  A    between atoms: C2_4  and  C1_1 
REMARK    2  A    between atoms: C4_6  and  N4_7 
REMARK    3  A    between atoms: C5_8  and  N5_9 
REMARK       I    between atoms: N5_9  and  C10_10 
REMARK    4  A    between atoms: C6_13  and  C7_15 
REMARK    5  A    between atoms: C7_15  and  C8_17 
REMARK    6  A    between atoms: C7_15  and  O7_16 
REMARK    7  A    between atoms: C8_17  and  C9_19 
REMARK    8  A    between atoms: C8_17  and  O8_18 
REMARK    9  A    between atoms: C9_19  and  O9_20 
ROOT
ATOM      1  C2  MOL d          24.221  18.831  63.984  0.00  0.00     0.144 C 
ATOM      2  C3  MOL d          23.560  17.682  63.570  0.00  0.00     0.051 C 
ATOM      3  C4  MOL d          24.201  16.643  62.604  0.00  0.00     0.234 C 
ATOM      4  C5  MOL d          25.731  16.704  62.689  0.00  0.00     0.150 C 
ATOM      5  C6  MOL d          26.199  18.192  62.595  0.00  0.00     0.185 C 
ATOM      6  O6  MOL d          25.590  18.982  63.686  0.00  0.00    -0.335 OA
ENDROOT
BRANCH   5   7
ATOM      7  C7  MOL d          27.765  18.364  62.724  0.00  0.00     0.180 C 
BRANCH   7   8
ATOM      8  C8  MOL d          28.125  19.850  62.553  0.00  0.00     0.173 C 
BRANCH   8   9
ATOM      9  C9  MOL d          29.627  20.130  62.732  0.00  0.00     0.198 C 
BRANCH   9  10
ATOM     10  O9  MOL d          30.430  19.415  61.824  0.00  0.00    -0.398 OA
ATOM     11  H18 MOL d          30.194  19.657  60.936  0.00  0.00     0.209 HD
ENDBRANCH   9  10
ENDBRANCH   8   9
BRANCH   8  12
ATOM     12  O8  MOL d          27.728  20.283  61.289  0.00  0.00    -0.391 OA
ATOM     13  H15 MOL d          28.222  19.816  60.626  0.00  0.00     0.210 HD
ENDBRANCH   8  12
ENDBRANCH   7   8
BRANCH   7  14
ATOM     14  O7  MOL d          28.162  17.913  64.043  0.00  0.00    -0.390 OA
ATOM     15  H13 MOL d          27.708  18.425  64.702  0.00  0.00     0.210 HD
ENDBRANCH   7  14
ENDBRANCH   5   7
BRANCH   4  16
ATOM     16  N5  MOL d          26.292  15.928  61.568  0.00  0.00    -0.352 N 
ATOM     17  C10 MOL d          26.950  14.793  61.773  0.00  0.00     0.214 C 
ATOM     18  C11 MOL d          27.464  14.082  60.544  0.00  0.00     0.117 C 
ATOM     19  O10 MOL d          27.152  14.330  62.895  0.00  0.00    -0.274 OA
ATOM     20  H7  MOL d          26.174  16.264  60.633  0.00  0.00     0.163 HD
ENDBRANCH   4  16
BRANCH   3  21
ATOM     21  N4  MOL d          23.739  15.323  63.039  0.00  0.00    -0.070 N 
ATOM     22  H3  MOL d          22.733  15.284  62.983  0.00  0.00     0.275 HD
ATOM     23  H4  MOL d          24.029  15.162  63.991  0.00  0.00     0.275 HD
ATOM     24  H5  MOL d          24.137  14.614  62.443  0.00  0.00     0.275 HD
ENDBRANCH   3  21
BRANCH   1  25
ATOM     25  C1  MOL d          23.622  19.843  64.731  0.00  0.00     0.233 C 
ATOM     26  O1B MOL d          22.485  19.669  65.224  0.00  0.00    -0.642 OA
ATOM     27  O1A MOL d          24.257  20.916  64.886  0.00  0.00    -0.642 OA
ENDBRANCH   1  25
TORSDOF 9
