REMARK  6 active torsions:
REMARK  status: ('A' for Active; 'I' for Inactive)
REMARK    1  A    between atoms: C4A_13  and  N4A_2 
REMARK    2  A    between atoms: C7_5  and  O1_4 
REMARK    3  A    between atoms: C6_6  and  C7_5 
REMARK    4  A    between atoms: C5_9  and  C6_6 
REMARK    5  A    between atoms: C7A_12  and  N3_11 
REMARK    6  A    between atoms: C5A_18  and  C7A_12 
ROOT
ATOM      1  C7A VIB d          34.499 -23.338  46.524  0.00  0.00     0.172 C 
ENDROOT
BRANCH   1   2
ATOM      2  N3  VIB d          33.434 -22.347  46.304  0.00  0.00    -0.349 N 
ATOM      3  C2  VIB d          32.977 -21.937  45.115  0.00  0.00     0.141 A 
ATOM      4  S1  VIB d          31.725 -20.733  45.153  0.00  0.00    -0.087 SA
ATOM      5  C5  VIB d          31.815 -20.791  46.875  0.00  0.00     0.008 A 
ATOM      6  C4  VIB d          32.797 -21.733  47.341  0.00  0.00     0.021 A 
ATOM      7  CM4 VIB d          33.074 -21.902  48.799  0.00  0.00     0.069 C 
BRANCH   5   8
ATOM      8  C6  VIB d          30.912 -19.896  47.681  0.00  0.00     0.074 C 
BRANCH   8   9
ATOM      9  C7  VIB d          29.493 -20.402  47.568  0.00  0.00     0.169 C 
BRANCH   9  10
ATOM     10  O1  VIB d          28.996 -20.349  48.898  0.00  0.00    -0.401 OA
ATOM     11  H9  VIB d          28.097 -20.655  48.911  0.00  0.00     0.209 HD
ENDBRANCH   9  10
ENDBRANCH   8   9
ENDBRANCH   5   8
ENDBRANCH   1   2
BRANCH   1  12
ATOM     12  C5A VIB d          35.158 -23.831  45.278  0.00  0.00     0.023 A 
ATOM     13  C4A VIB d          35.957 -22.983  44.508  0.00  0.00     0.132 A 
ATOM     14  N3A VIB d          36.522 -23.468  43.404  0.00  0.00    -0.216 NA
ATOM     15  C2A VIB d          36.395 -24.775  43.055  0.00  0.00     0.124 A 
ATOM     16  CM2 VIB d          37.065 -25.236  41.791  0.00  0.00     0.093 C 
ATOM     17  N1A VIB d          35.632 -25.616  43.772  0.00  0.00    -0.245 NA
ATOM     18  C6A VIB d          35.021 -25.171  44.889  0.00  0.00     0.131 A 
BRANCH  13  19
ATOM     19  N4A VIB d          36.209 -21.697  44.831  0.00  0.00    -0.383 N 
ATOM     20  H4  VIB d          35.790 -21.287  45.678  0.00  0.00     0.157 HD
ATOM     21  H5  VIB d          36.821 -21.126  44.231  0.00  0.00     0.157 HD
ENDBRANCH  13  19
ENDBRANCH   1  12
TORSDOF 6
