REMARK  18 active torsions:
REMARK  status: ('A' for Active; 'I' for Inactive)
REMARK    1  A    between atoms: CBM_4  and  NBV_5 
REMARK    2  A    between atoms: NBP_14  and  CBQ_15 
REMARK    3  A    between atoms: CBX_17  and  OCA_18 
REMARK    4  A    between atoms: CBY_19  and  OCB_20 
REMARK    5  A    between atoms: CBS_21  and  CBT_22 
REMARK    6  A    between atoms: CBT_22  and  OBU_23 
REMARK    7  A    between atoms: OBU_23  and  PBK_24 
REMARK    8  A    between atoms: PBK_24  and  OBD_27 
REMARK    9  A    between atoms: OBD_27  and  PAZ_28 
REMARK   10  A    between atoms: PAZ_28  and  OAX_31 
REMARK   11  A    between atoms: OAX_31  and  PAT_32 
REMARK   12  A    between atoms: PAT_32  and  O5_35 
REMARK   13  A    between atoms: O5_35  and  C5_36 
REMARK   14  A    between atoms: C5_36  and  C4_37 
REMARK   15  A    between atoms: C3_39  and  O3_40 
REMARK   16  A    between atoms: C2_41  and  O2_42 
REMARK   17  A    between atoms: C1_43  and  N9_44 
REMARK   18  A    between atoms: C2_50  and  N2_51 
ROOT
ATOM      1  PAZ TPG d          14.794  34.107   2.933  0.00  0.00     0.427 P 
ATOM      2  OBA TPG d          15.179  33.205   1.655  0.00  0.00    -0.624 OA
ATOM      3  OAY TPG d          15.807  34.894   3.671  0.00  0.00    -0.624 OA
ENDROOT
BRANCH   1   4
ATOM      4  OBD TPG d          13.231  34.495   2.939  0.00  0.00    -0.180 OA
BRANCH   4   5
ATOM      5  PBK TPG d          12.635  35.519   4.030  0.00  0.00     0.417 P 
ATOM      6  OBL TPG d          13.873  36.369   4.613  0.00  0.00    -0.624 OA
ATOM      7  OBJ TPG d          11.577  36.403   3.492  0.00  0.00    -0.624 OA
BRANCH   5   8
ATOM      8  OBU TPG d          12.089  34.611   5.241  0.00  0.00    -0.287 OA
BRANCH   8   9
ATOM      9  CBT TPG d          12.665  34.735   6.543  0.00  0.00     0.216 C 
BRANCH   9  10
ATOM     10  CBS TPG d          11.648  34.321   7.607  0.00  0.00     0.180 C 
ATOM     11  OBR TPG d          12.135  34.523   8.945  0.00  0.00    -0.353 OA
ATOM     12  CBQ TPG d          11.064  35.068   9.738  0.00  0.00     0.262 C 
ATOM     13  CBX TPG d           9.799  34.877   8.898  0.00  0.00     0.198 C 
ATOM     14  CBY TPG d          10.363  35.140   7.505  0.00  0.00     0.182 C 
BRANCH  12  15
ATOM     15  NBP TPG d          11.409  36.484  10.006  0.00  0.00    -0.295 N 
ATOM     16  CBO TPG d          12.105  36.940  11.045  0.00  0.00     0.184 A 
ATOM     17  NBN TPG d          12.636  36.268  12.080  0.00  0.00    -0.044 NA
ATOM     18  CBG TPG d          12.332  38.306  10.888  0.00  0.00     0.151 A 
ATOM     19  CBM TPG d          13.402  36.863  13.007  0.00  0.00     0.706 A 
ATOM     20  NBE TPG d          13.660  38.236  12.903  0.00  0.00    -0.152 N 
ATOM     21  CBF TPG d          13.120  38.960  11.831  0.00  0.00     0.290 A 
ATOM     22  H1  TPG d          14.225  38.696  13.588  0.00  0.00     0.187 HD
ATOM     23  OBB TPG d          13.343  40.165  11.728  0.00  0.00    -0.265 OA
ATOM     24  NBH TPG d          11.796  38.701   9.736  0.00  0.00    -0.340 N 
ATOM     25  CBC TPG d          11.941  40.044   9.131  0.00  0.00     0.157 C 
ATOM     26  CBI TPG d          11.018  37.607   9.142  0.00  0.00     0.190 C 
BRANCH  19  27
ATOM     27  NBV TPG d          13.938  36.146  13.993  0.00  0.00    -0.224 N 
ATOM     28  CBZ TPG d          13.670  34.704  14.094  0.00  0.00     0.168 C 
ATOM     29  CBW TPG d          14.811  36.787  14.987  0.00  0.00     0.168 C 
ENDBRANCH  19  27
ENDBRANCH  12  15
BRANCH  13  30
ATOM     30  OCA TPG d           9.336  33.530   9.029  0.00  0.00    -0.388 OA
ATOM     31  H14 TPG d           8.551  33.414   8.507  0.00  0.00     0.210 HD
ENDBRANCH  13  30
BRANCH  14  32
ATOM     32  OCB TPG d           9.489  34.600   6.510  0.00  0.00    -0.390 OA
ATOM     33  H16 TPG d           9.850  34.769   5.648  0.00  0.00     0.210 HD
ENDBRANCH  14  32
ENDBRANCH   9  10
ENDBRANCH   8   9
ENDBRANCH   5   8
ENDBRANCH   4   5
ENDBRANCH   1   4
BRANCH   1  34
ATOM     34  OAX TPG d          14.610  32.854   3.929  0.00  0.00    -0.180 OA
BRANCH  34  35
ATOM     35  PAT TPG d          15.878  32.212   4.689  0.00  0.00     0.417 P 
ATOM     36  OAU TPG d          16.500  30.965   3.880  0.00  0.00    -0.624 OA
ATOM     37  OAS TPG d          16.657  32.962   5.698  0.00  0.00    -0.624 OA
BRANCH  35  38
ATOM     38  O5  TPG d          14.985  31.281   5.653  0.00  0.00    -0.287 OA
BRANCH  38  39
ATOM     39  C5  TPG d          14.158  31.834   6.682  0.00  0.00     0.216 C 
BRANCH  39  40
ATOM     40  C4  TPG d          14.854  31.847   8.045  0.00  0.00     0.180 C 
ATOM     41  O4  TPG d          15.877  32.851   8.153  0.00  0.00    -0.353 OA
ATOM     42  C1  TPG d          16.009  33.179   9.551  0.00  0.00     0.262 C 
ATOM     43  C2  TPG d          14.908  32.400  10.276  0.00  0.00     0.198 C 
ATOM     44  C3  TPG d          13.883  32.243   9.156  0.00  0.00     0.182 C 
BRANCH  42  45
ATOM     45  N9  TPG d          15.823  34.640   9.718  0.00  0.00    -0.293 N 
ATOM     46  C8  TPG d          15.274  35.468   8.832  0.00  0.00     0.214 A 
ATOM     47  N7  TPG d          15.352  36.718   9.283  0.00  0.00    -0.234 NA
ATOM     48  C5  TPG d          15.950  36.689  10.470  0.00  0.00     0.173 A 
ATOM     49  C4  TPG d          16.244  35.360  10.755  0.00  0.00     0.186 A 
ATOM     50  C6  TPG d          16.298  37.671  11.390  0.00  0.00     0.292 A 
ATOM     51  N3  TPG d          16.847  35.020  11.905  0.00  0.00    -0.044 NA
ATOM     52  C2  TPG d          17.193  35.938  12.820  0.00  0.00     0.703 A 
ATOM     53  N1  TPG d          16.927  37.293  12.583  0.00  0.00    -0.152 N 
ATOM     54  H31 TPG d          17.184  37.984  13.259  0.00  0.00     0.187 HD
ATOM     55  O6  TPG d          16.079  38.858  11.153  0.00  0.00    -0.265 OA
BRANCH  52  56
ATOM     56  N2  TPG d          17.778  35.563  13.954  0.00  0.00    -0.233 N 
ATOM     57  H29 TPG d          17.973  34.567  14.128  0.00  0.00     0.174 HD
ATOM     58  H30 TPG d          18.036  36.269  14.659  0.00  0.00     0.174 HD
ENDBRANCH  52  56
ENDBRANCH  42  45
BRANCH  43  59
ATOM     59  O2  TPG d          15.403  31.115  10.662  0.00  0.00    -0.388 OA
ATOM     60  H26 TPG d          14.682  30.578  10.968  0.00  0.00     0.210 HD
ENDBRANCH  43  59
BRANCH  44  61
ATOM     61  O3  TPG d          13.026  31.137   9.452  0.00  0.00    -0.390 OA
ATOM     62  H24 TPG d          13.551  30.398   9.736  0.00  0.00     0.210 HD
ENDBRANCH  44  61
ENDBRANCH  39  40
ENDBRANCH  38  39
ENDBRANCH  35  38
ENDBRANCH  34  35
ENDBRANCH   1  34
TORSDOF 18
