REMARK  2 active torsions:
REMARK  status: ('A' for Active; 'I' for Inactive)
REMARK    1  A    between atoms: N1_2  and  C4_5 
REMARK    2  A    between atoms: C9_10  and  N1_2 
ROOT
ATOM      1  C7  FNA d          -9.759  -8.312  10.992  0.00  0.00     0.001 A 
ATOM      2  C8  FNA d         -10.375  -9.528  10.853  0.00  0.00    -0.024 A 
ATOM      3  C9  FNA d          -9.593  -7.422   9.791  0.00  0.00     0.043 C 
ATOM      4  C10 FNA d         -10.834 -10.087   9.527  0.00  0.00     0.012 C 
ATOM      5  C11 FNA d          -9.686  -8.075   8.493  0.00  0.00     0.030 C 
ATOM      6  C12 FNA d         -10.591  -9.188   8.356  0.00  0.00     0.003 C 
ATOM      7  C13 FNA d         -10.208  -9.907  13.208  0.00  0.00     0.001 A 
ATOM      8  C14 FNA d         -10.598 -10.339  12.011  0.00  0.00     0.012 A 
ATOM      9  C15 FNA d          -9.411  -7.852  12.255  0.00  0.00     0.014 A 
ATOM     10  C16 FNA d          -9.626  -8.629  13.350  0.00  0.00     0.001 A 
ENDROOT
BRANCH   3  11
ATOM     11  N1  FNA d          -8.662  -6.310   9.912  0.00  0.00    -0.356 N 
ATOM     12  H2  FNA d          -8.980  -5.414   9.515  0.00  0.00     0.166 HD
BRANCH  11  13
ATOM     13  C4  FNA d          -7.348  -6.299  10.517  0.00  0.00     0.032 A 
ATOM     14  C2  FNA d          -6.698  -7.425  10.944  0.00  0.00     0.029 A 
ATOM     15  C1  FNA d          -5.415  -7.297  11.503  0.00  0.00     0.002 A 
ATOM     16  C3  FNA d          -4.819  -5.986  11.611  0.00  0.00     0.000 A 
ATOM     17  C5  FNA d          -5.476  -4.916  11.198  0.00  0.00     0.002 A 
ATOM     18  C6  FNA d          -6.790  -5.046  10.623  0.00  0.00     0.029 A 
ENDBRANCH  11  13
ENDBRANCH   3  11
TORSDOF 2
