REMARK  10 active torsions:
REMARK  status: ('A' for Active; 'I' for Inactive)
REMARK    1  A    between atoms: C1_1  and  C8_8 
REMARK    2  A    between atoms: C8_8  and  N7_7 
REMARK    3  A    between atoms: N7_7  and  C28_28 
REMARK    4  A    between atoms: C8_8  and  C9_9 
REMARK       I    between atoms: C9_9  and  N11_11 
REMARK    5  A    between atoms: C12_12  and  C13_13 
REMARK       I    between atoms: C13_13  and  N15_15 
REMARK    6  A    between atoms: N15_15  and  C16_16 
REMARK    7  A    between atoms: C16_16  and  C17_17 
REMARK    8  A    between atoms: C20_20  and  C23_23 
REMARK    9  A    between atoms: C23_23  and  N25_25 
REMARK   10  A    between atoms: C28_28  and  C29_29 
ROOT
ATOM      1  C9  MEL d          17.942 -13.373  22.263  0.00  0.00     0.251 C 
ATOM      2  O0  MEL d          16.893 -12.809  22.560  0.00  0.00    -0.271 OA
ATOM      3  N11 MEL d          18.735 -12.799  21.337  0.00  0.00    -0.337 N 
ATOM      4  C12 MEL d          18.502 -11.623  20.494  0.00  0.00     0.180 C 
ATOM      5  C26 MEL d          19.670 -12.018  19.570  0.00  0.00     0.055 C 
ATOM      6  C27 MEL d          19.990 -13.098  20.611  0.00  0.00     0.129 C 
ENDROOT
BRANCH   4   7
ATOM      7  C13 MEL d          17.107 -11.790  19.902  0.00  0.00     0.240 C 
ATOM      8  O14 MEL d          16.790 -12.872  19.423  0.00  0.00    -0.271 OA
ATOM      9  N15 MEL d          16.176 -10.815  20.004  0.00  0.00    -0.355 N 
ATOM     10  H16 MEL d          16.398  -9.937  20.429  0.00  0.00     0.162 HD
BRANCH   9  11
ATOM     11  C16 MEL d          14.825 -11.078  19.473  0.00  0.00     0.161 C 
BRANCH  11  12
ATOM     12  C17 MEL d          13.844 -11.014  20.613  0.00  0.00    -0.040 A 
ATOM     13  C18 MEL d          13.464 -12.167  21.284  0.00  0.00     0.010 A 
ATOM     14  C19 MEL d          12.581 -12.081  22.358  0.00  0.00     0.016 A 
ATOM     15  C20 MEL d          12.099 -10.821  22.764  0.00  0.00     0.007 A 
ATOM     16  C21 MEL d          12.494  -9.661  22.074  0.00  0.00     0.016 A 
ATOM     17  C22 MEL d          13.390  -9.769  21.031  0.00  0.00     0.010 A 
BRANCH  15  18
ATOM     18  C23 MEL d          11.119 -10.732  23.878  0.00  0.00     0.102 C 
ATOM     19  N24 MEL d          10.889  -9.596  24.470  0.00  0.00    -0.385 N 
ATOM     20  H23 MEL d          10.208  -9.546  25.241  0.00  0.00     0.157 HD
ATOM     21  H24 MEL d          11.388  -8.747  24.168  0.00  0.00     0.157 HD
BRANCH  18  22
ATOM     22  N25 MEL d          10.399 -11.854  24.265  0.00  0.00    -0.385 N 
ATOM     23  H25 MEL d          10.570 -12.760  23.805  0.00  0.00     0.157 HD
ATOM     24  H26 MEL d           9.693 -11.781  25.012  0.00  0.00     0.157 HD
ENDBRANCH  18  22
ENDBRANCH  15  18
ENDBRANCH  11  12
ENDBRANCH   9  11
ENDBRANCH   4   7
BRANCH   1  25
ATOM     25  C8  MEL d          18.279 -14.686  22.918  0.00  0.00     0.281 C 
BRANCH  25  26
ATOM     26  C1  MEL d          18.817 -14.423  24.339  0.00  0.00     0.026 C 
ATOM     27  C2  MEL d          19.053 -15.753  25.072  0.00  0.00     0.007 C 
ATOM     28  C3  MEL d          19.519 -15.448  26.504  0.00  0.00     0.000 C 
ATOM     29  C4  MEL d          20.809 -14.610  26.501  0.00  0.00     0.000 C 
ATOM     30  C5  MEL d          20.612 -13.286  25.747  0.00  0.00     0.000 C 
ATOM     31  C6  MEL d          20.114 -13.579  24.318  0.00  0.00     0.007 C 
ENDBRANCH  25  26
BRANCH  25  32
ATOM     32  N7  MEL d          17.034 -15.495  22.987  0.00  0.00    -0.052 N 
ATOM     33  H12 MEL d          16.363 -14.982  23.537  0.00  0.00     0.278 HD
ATOM     34  H13 MEL d          17.255 -16.362  23.451  0.00  0.00     0.278 HD
BRANCH  32  35
ATOM     35  C28 MEL d          16.397 -15.826  21.686  0.00  0.00     0.345 C 
BRANCH  35  36
ATOM     36  C29 MEL d          14.989 -16.355  21.881  0.00  0.00     0.199 C 
ATOM     37  O30 MEL d          14.530 -16.592  22.981  0.00  0.00    -0.647 OA
ATOM     38  O31 MEL d          14.230 -16.597  20.810  0.00  0.00    -0.647 OA
ENDBRANCH  35  36
ENDBRANCH  32  35
ENDBRANCH  25  32
ENDBRANCH   1  25
TORSDOF 10
