REMARK  6 active torsions:
REMARK  status: ('A' for Active; 'I' for Inactive)
REMARK    1  A    between atoms: C1'_1  and  O1_14 
REMARK    2  A    between atoms: C2'_3  and  O2'_4 
REMARK    3  A    between atoms: C3'_5  and  O3'_6 
REMARK    4  A    between atoms: C4'_7  and  C5'_8 
REMARK    5  A    between atoms: C5'_8  and  O5'_9 
REMARK    6  A    between atoms: O5'_9  and  P'_10 
ROOT
ATOM      1  C1' HSX d         -34.604 -20.288  -5.880  0.00  0.00     0.288 C 
ATOM      2  O1' HSX d         -35.066 -21.057  -4.703  0.00  0.00    -0.349 OA
ATOM      3  C2' HSX d         -34.293 -18.963  -5.337  0.00  0.00     0.204 C 
ATOM      4  C3' HSX d         -35.466 -18.725  -4.577  0.00  0.00     0.182 C 
ATOM      5  C4' HSX d         -35.810 -20.154  -3.984  0.00  0.00     0.180 C 
ENDROOT
BRANCH   5   6
ATOM      6  C5' HSX d         -37.210 -20.600  -4.486  0.00  0.00     0.217 C 
BRANCH   6   7
ATOM      7  O5' HSX d         -37.641 -21.664  -3.690  0.00  0.00    -0.280 OA
BRANCH   7   8
ATOM      8  P'  HSX d         -39.141 -21.972  -3.394  0.00  0.00     0.422 P 
ATOM      9  O1X HSX d         -40.042 -20.694  -3.596  0.00  0.00    -0.617 OA
ATOM     10  O2X HSX d         -39.224 -22.381  -1.871  0.00  0.00    -0.617 OA
ATOM     11  O3X HSX d         -39.551 -23.133  -4.225  0.00  0.00    -0.617 OA
ENDBRANCH   7   8
ENDBRANCH   6   7
ENDBRANCH   5   6
BRANCH   4  12
ATOM     12  O3' HSX d         -35.011 -17.732  -3.738  0.00  0.00    -0.390 OA
ATOM     13  H5  HSX d         -34.280 -18.060  -3.228  0.00  0.00     0.210 HD
ENDBRANCH   4  12
BRANCH   1  14
ATOM     14  O1  HSX d         -33.366 -20.765  -6.586  0.00  0.00    -0.369 OA
ATOM     15  H9  HSX d         -33.178 -20.189  -7.318  0.00  0.00     0.212 HD
ENDBRANCH   1  14
BRANCH   3  16
ATOM     16  O2' HSX d         -33.230 -18.784  -4.367  0.00  0.00    -0.388 OA
ATOM     17  H3  HSX d         -33.172 -17.866  -4.129  0.00  0.00     0.210 HD
ENDBRANCH   3  16
TORSDOF 6
