REMARK  14 active torsions:
REMARK  status: ('A' for Active; 'I' for Inactive)
REMARK    1  A    between atoms: CA_15  and  CB_16 
REMARK    2  A    between atoms: CCA_22  and  OAK_23 
REMARK    3  A    between atoms: CCA_22  and  CBD_24 
REMARK    4  A    between atoms: CBD_24  and  CBA_25 
REMARK    5  A    between atoms: CBA_25  and  CBC_26 
REMARK    6  A    between atoms: CBC_26  and  NBY_27 
REMARK    7  A    between atoms: NBY_27  and  NBK_28 
REMARK    8  A    between atoms: NBY_27  and  CBE_41 
REMARK    9  A    between atoms: CBO_29  and  CBX_31 
REMARK   10  A    between atoms: CBX_31  and  CBZ_32 
REMARK   11  A    between atoms: CBX_31  and  NBI_36 
REMARK       I    between atoms: NBI_36  and  CBM_37 
REMARK   12  A    between atoms: CBM_37  and  OBL_39 
REMARK   13  A    between atoms: CBE_41  and  CBR_42 
REMARK   14  A    between atoms: CBU_47  and  CBT_48 
ROOT
ATOM      1  NBY MOL d          15.491  22.377   7.144  0.00  0.00     0.014 N 
ATOM      2  H   MOL d          14.585  21.987   7.349  0.00  0.00     0.309 HD
ENDROOT
BRANCH   1   3
ATOM      3  CBC MOL d          15.129  23.760   6.779  0.00  0.00     0.263 C 
BRANCH   3   4
ATOM      4  CBA MOL d          13.630  23.923   6.484  0.00  0.00     0.033 C 
BRANCH   4   5
ATOM      5  CBD MOL d          13.276  23.426   5.070  0.00  0.00     0.050 C 
BRANCH   5   6
ATOM      6  CCA MOL d          12.023  24.155   4.540  0.00  0.00     0.142 C 
ATOM      7  CBF MOL d          11.475  23.464   3.434  0.00  0.00     0.086 C 
ATOM      8  CBS MOL d          10.222  23.829   2.923  0.00  0.00    -0.055 A 
ATOM      9  CAT MOL d           9.099  23.034   3.141  0.00  0.00     0.008 A 
ATOM     10  CAU MOL d          10.068  25.037   2.254  0.00  0.00     0.008 A 
ATOM     11  CAR MOL d           7.835  23.484   2.773  0.00  0.00     0.008 A 
ATOM     12  CBQ MOL d           7.676  24.722   2.154  0.00  0.00    -0.055 A 
ATOM     13  CAS MOL d           8.802  25.497   1.909  0.00  0.00     0.008 A 
ATOM     14  CBB MOL d           6.414  25.212   1.789  0.00  0.00     0.065 C 
ATOM     15  CAM MOL d           5.417  24.874   2.707  0.00  0.00    -0.025 C 
ATOM     16  CAL MOL d           5.192  25.562   3.904  0.00  0.00    -0.011 C 
ATOM     17  CAZ MOL d           6.078  26.509   4.423  0.00  0.00     0.149 C 
ATOM     18  NBH MOL d           6.993  25.850   5.384  0.00  0.00    -0.356 N 
ATOM     19  C   MOL d           8.208  26.452   5.724  0.00  0.00     0.241 C 
ATOM     20  H   MOL d           6.741  24.972   5.791  0.00  0.00     0.162 HD
ATOM     21  O   MOL d           8.474  27.534   5.196  0.00  0.00    -0.271 OA
ATOM     22  CA  MOL d           9.169  25.733   6.470  0.00  0.00     0.180 C 
ATOM     23  N   MOL d          10.373  25.526   5.625  0.00  0.00    -0.345 N 
ATOM     24  CBP MOL d          11.038  24.296   5.534  0.00  0.00     0.253 C 
ATOM     25  H   MOL d          10.725  26.299   5.097  0.00  0.00     0.163 HD
ATOM     26  OAJ MOL d          10.584  23.323   6.144  0.00  0.00    -0.270 OA
BRANCH  22  27
ATOM     27  CB  MOL d           9.533  26.532   7.730  0.00  0.00     0.009 C 
ATOM     28  CG1 MOL d           8.279  26.728   8.588  0.00  0.00     0.012 C 
ATOM     29  CG2 MOL d          10.604  25.792   8.538  0.00  0.00     0.012 C 
ENDBRANCH  22  27
BRANCH   6  30
ATOM     30  OAK MOL d          12.438  25.466   4.121  0.00  0.00    -0.380 OA
ATOM     31  H   MOL d          13.104  25.386   3.449  0.00  0.00     0.211 HD
ENDBRANCH   6  30
ENDBRANCH   5   6
ENDBRANCH   4   5
ENDBRANCH   3   4
ENDBRANCH   1   3
BRANCH   1  32
ATOM     32  NBK MOL d          15.893  21.616   6.207  0.00  0.00    -0.196 N 
ATOM     33  CBO MOL d          15.377  20.526   5.607  0.00  0.00     0.199 C 
ATOM     34  OAI MOL d          14.071  20.177   6.064  0.00  0.00    -0.173 OA
ATOM     35  H   MOL d          16.782  21.884   5.837  0.00  0.00     0.195 HD
BRANCH  33  36
ATOM     36  CBX MOL d          16.152  19.738   4.815  0.00  0.00     0.173 C 
BRANCH  36  37
ATOM     37  CBZ MOL d          15.477  18.987   3.654  0.00  0.00    -0.023 C 
ATOM     38  CAD MOL d          14.589  17.860   4.195  0.00  0.00     0.017 C 
ATOM     39  CAE MOL d          14.628  19.955   2.832  0.00  0.00     0.017 C 
ATOM     40  CAF MOL d          16.551  18.371   2.759  0.00  0.00     0.017 C 
ENDBRANCH  36  37
BRANCH  36  41
ATOM     41  NBI MOL d          16.851  18.751   5.653  0.00  0.00    -0.324 N 
ATOM     42  CBM MOL d          18.181  18.753   5.789  0.00  0.00     0.360 C 
ATOM     43  OAG MOL d          18.878  19.510   5.107  0.00  0.00    -0.239 OA
ATOM     44  H   MOL d          16.315  18.058   6.135  0.00  0.00     0.165 HD
BRANCH  42  45
ATOM     45  OBL MOL d          18.745  17.901   6.690  0.00  0.00    -0.309 OA
ATOM     46  CAA MOL d          20.159  18.094   6.791  0.00  0.00     0.215 C 
ENDBRANCH  42  45
ENDBRANCH  36  41
ENDBRANCH  33  36
ENDBRANCH   1  32
BRANCH   1  47
ATOM     47  CBE MOL d          16.138  22.199   8.320  0.00  0.00     0.301 C 
BRANCH  47  48
ATOM     48  CBR MOL d          16.240  20.905   8.836  0.00  0.00    -0.030 C 
ATOM     49  CAW MOL d          17.481  20.290   8.972  0.00  0.00     0.010 C 
ATOM     50  CAY MOL d          17.605  19.059   9.622  0.00  0.00     0.013 C 
ATOM     51  CBU MOL d          16.488  18.466  10.199  0.00  0.00    -0.025 C 
ATOM     52  CAX MOL d          15.267  19.119  10.123  0.00  0.00     0.013 C 
ATOM     53  CAV MOL d          15.156  20.358   9.503  0.00  0.00     0.010 C 
BRANCH  51  54
ATOM     54  CBT MOL d          16.569  17.236  10.856  0.00  0.00    -0.008 A 
ATOM     55  CAQ MOL d          17.683  16.928  11.628  0.00  0.00     0.015 A 
ATOM     56  CAO MOL d          17.725  15.747  12.362  0.00  0.00     0.020 A 
ATOM     57  CAN MOL d          16.627  14.897  12.385  0.00  0.00     0.116 A 
ATOM     58  NBG MOL d          15.465  15.246  11.690  0.00  0.00    -0.272 NA
ATOM     59  CAP MOL d          15.447  16.415  10.917  0.00  0.00     0.128 A 
ENDBRANCH  51  54
ENDBRANCH  47  48
ENDBRANCH   1  47
TORSDOF 14
