REMARK  19 active torsions:
REMARK  status: ('A' for Active; 'I' for Inactive)
REMARK    1  A    between atoms: CA_2  and  N_1 
REMARK    2  A    between atoms: C_3  and  CA_2 
REMARK    3  A    between atoms: CA_2  and  CB_5 
REMARK       I    between atoms: N_9  and  C_3 
REMARK    4  A    between atoms: CB_5  and  CG_6 
REMARK    5  A    between atoms: CA_10  and  N_9 
REMARK    6  A    between atoms: C_11  and  CA_10 
REMARK       I    between atoms: N_14  and  C_11 
REMARK    7  A    between atoms: CA_15  and  N_14 
REMARK    8  A    between atoms: C_16  and  CA_15 
REMARK    9  A    between atoms: CA_15  and  CB_18 
REMARK       I    between atoms: N_22  and  C_16 
REMARK   10  A    between atoms: CB_18  and  CG1_19 
REMARK   11  A    between atoms: CA_23  and  N_22 
REMARK   12  A    between atoms: C_24  and  CA_23 
REMARK   13  A    between atoms: CA_23  and  CB_26 
REMARK       I    between atoms: C_24  and  N_34 
REMARK   14  A    between atoms: CB_26  and  CG_27 
REMARK   15  A    between atoms: CZ_32  and  OH_33 
REMARK   16  A    between atoms: N_34  and  CA_35 
REMARK   17  A    between atoms: CA_35  and  C_36 
REMARK   18  A    between atoms: CA_35  and  CB_38 
REMARK   19  A    between atoms: CB_38  and  OG_39 
ROOT
ATOM      1  C   MOL d          12.711  22.329  41.656  0.00  0.00     0.241 C 
ATOM      2  O   MOL d          12.662  23.302  40.907  0.00  0.00    -0.271 OA
ATOM      3  N   MOL d          13.144  22.415  42.903  0.00  0.00    -0.346 N 
ATOM      4  H30 MOL d          13.084  21.621  43.508  0.00  0.00     0.163 HD
ENDROOT
BRANCH   1   5
ATOM      5  CA  MOL d          12.235  20.954  41.167  0.00  0.00     0.180 C 
BRANCH   5   6
ATOM      6  CB  MOL d          13.494  20.080  41.131  0.00  0.00     0.013 C 
ATOM      7  CG2 MOL d          14.604  20.846  40.416  0.00  0.00     0.012 C 
BRANCH   6   8
ATOM      8  CG1 MOL d          13.933  19.728  42.557  0.00  0.00     0.002 C 
ATOM      9  CD1 MOL d          15.409  19.482  42.738  0.00  0.00     0.005 C 
ENDBRANCH   6   8
ENDBRANCH   5   6
BRANCH   5  10
ATOM     10  N   MOL d          11.616  21.059  39.834  0.00  0.00    -0.346 N 
ATOM     11  C   MOL d          10.479  20.435  39.525  0.00  0.00     0.240 C 
ATOM     12  O   MOL d           9.869  19.744  40.324  0.00  0.00    -0.271 OA
ATOM     13  H19 MOL d          12.065  21.618  39.136  0.00  0.00     0.163 HD
BRANCH  11  14
ATOM     14  CA  MOL d           9.928  20.605  38.112  0.00  0.00     0.172 C 
ATOM     15  CB  MOL d           8.930  21.739  38.072  0.00  0.00     0.042 C 
BRANCH  14  16
ATOM     16  N   MOL d           9.260  19.360  37.756  0.00  0.00    -0.346 N 
ATOM     17  C   MOL d           9.854  18.180  37.893  0.00  0.00     0.248 C 
ATOM     18  O   MOL d          11.010  18.054  38.307  0.00  0.00    -0.271 OA
ATOM     19  H14 MOL d           8.327  19.395  37.398  0.00  0.00     0.163 HD
BRANCH  17  20
ATOM     20  CA  MOL d           9.023  16.960  37.495  0.00  0.00     0.275 C 
BRANCH  20  21
ATOM     21  CB  MOL d           7.939  16.710  38.548  0.00  0.00     0.046 C 
BRANCH  21  22
ATOM     22  CG  MOL d           6.512  17.250  38.384  0.00  0.00    -0.020 C 
ATOM     23  CD2 MOL d           5.588  16.087  38.071  0.00  0.00     0.009 C 
ATOM     24  CD1 MOL d           6.439  18.296  37.283  0.00  0.00     0.009 C 
ENDBRANCH  21  22
ENDBRANCH  20  21
BRANCH  20  25
ATOM     25  N   MOL d           9.906  15.770  37.393  0.00  0.00    -0.066 N 
ATOM     26  H1  MOL d           9.357  14.966  37.131  0.00  0.00     0.275 HD
ATOM     27  H2  MOL d          10.346  15.600  38.284  0.00  0.00     0.275 HD
ATOM     28  H3  MOL d          10.614  15.936  36.695  0.00  0.00     0.275 HD
ENDBRANCH  20  25
ENDBRANCH  17  20
ENDBRANCH  14  16
ENDBRANCH  11  14
ENDBRANCH   5  10
ENDBRANCH   1   5
BRANCH   3  29
ATOM     29  CA  MOL d          13.703  23.652  43.393  0.00  0.00     0.180 C 
BRANCH  29  30
ATOM     30  C   MOL d          15.197  23.563  43.069  0.00  0.00     0.241 C 
ATOM     31  O   MOL d          15.972  22.980  43.817  0.00  0.00    -0.271 OA
ATOM     32  N   MOL d          15.534  24.124  41.931  0.00  0.00    -0.343 N 
ATOM     33  H39 MOL d          14.819  24.577  41.399  0.00  0.00     0.163 HD
BRANCH  32  34
ATOM     34  CA  MOL d          16.896  24.124  41.397  0.00  0.00     0.209 C 
BRANCH  34  35
ATOM     35  C   MOL d          17.959  24.472  42.423  0.00  0.00     0.198 C 
ATOM     36  OXT MOL d          19.219  24.074  42.011  0.00  0.00    -0.646 OA
ATOM     37  O   MOL d          17.667  24.632  43.605  0.00  0.00    -0.646 OA
ENDBRANCH  34  35
BRANCH  34  38
ATOM     38  CB  MOL d          16.578  24.759  40.037  0.00  0.00     0.200 C 
BRANCH  38  39
ATOM     39  OG  MOL d          17.916  25.170  39.835  0.00  0.00    -0.398 OA
ATOM     40  H43 MOL d          18.483  24.408  39.833  0.00  0.00     0.209 HD
ENDBRANCH  38  39
ENDBRANCH  34  38
ENDBRANCH  32  34
ENDBRANCH  29  30
BRANCH  29  41
ATOM     41  CB  MOL d          13.365  23.897  44.882  0.00  0.00     0.073 C 
BRANCH  41  42
ATOM     42  CG  MOL d          14.486  23.737  45.920  0.00  0.00    -0.056 A 
ATOM     43  CD2 MOL d          14.371  22.748  46.899  0.00  0.00     0.010 A 
ATOM     44  CE2 MOL d          15.365  22.549  47.841  0.00  0.00     0.037 A 
ATOM     45  CZ  MOL d          16.493  23.337  47.818  0.00  0.00     0.065 A 
ATOM     46  CE1 MOL d          16.639  24.336  46.869  0.00  0.00     0.037 A 
ATOM     47  CD1 MOL d          15.631  24.533  45.923  0.00  0.00     0.010 A 
BRANCH  45  48
ATOM     48  OH  MOL d          17.486  23.135  48.754  0.00  0.00    -0.361 OA
ATOM     49  H38 MOL d          17.238  22.420  49.328  0.00  0.00     0.217 HD
ENDBRANCH  45  48
ENDBRANCH  41  42
ENDBRANCH  29  41
ENDBRANCH   3  29
TORSDOF 19
