REMARK  9 active torsions:
REMARK  status: ('A' for Active; 'I' for Inactive)
REMARK    1  A    between atoms: CAR_18  and  SAC_3 
REMARK    2  A    between atoms: CAK_11  and  CAJ_10 
REMARK    3  A    between atoms: CAJ_10  and  CAL_12 
REMARK    4  A    between atoms: NAN_14  and  CAK_11 
REMARK    5  A    between atoms: CAL_12  and  NAV_22 
REMARK    6  A    between atoms: CAR_18  and  NAN_14 
REMARK    7  A    between atoms: CAS_19  and  NAO_15 
REMARK    8  A    between atoms: CAT_20  and  OAP_16 
REMARK    9  A    between atoms: OAQ_17  and  CAU_21 
ROOT
ATOM      1  NAO PBD d         -23.087  22.078  -5.054  0.00  0.00    -0.225 NA
ATOM      2  CAR PBD d         -21.935  22.336  -5.706  0.00  0.00     0.160 C 
ENDROOT
BRANCH   2   3
ATOM      3  SAC PBD d         -21.985  23.484  -7.030  0.00  0.00    -0.105 SA
ATOM      4  H   PBD d         -22.939  23.766  -7.193  0.00  0.00     0.110 HD
ENDBRANCH   2   3
BRANCH   2   5
ATOM      5  NAN PBD d         -20.791  21.766  -5.242  0.00  0.00    -0.369 N 
ATOM      6  H   PBD d         -20.867  21.145  -4.424  0.00  0.00     0.161 HD
BRANCH   5   7
ATOM      7  CAK PBD d         -19.457  21.969  -5.818  0.00  0.00     0.123 C 
BRANCH   7   8
ATOM      8  CAJ PBD d         -19.116  20.707  -6.578  0.00  0.00     0.040 C 
BRANCH   8   9
ATOM      9  CAL PBD d         -17.686  20.775  -7.043  0.00  0.00     0.131 C 
BRANCH   9  10
ATOM     10  NAV PBD d         -16.934  19.576  -6.679  0.00  0.00    -0.350 N 
ATOM     11  CAG PBD d         -16.097  18.910  -7.462  0.00  0.00     0.111 A 
ATOM     12  CAD PBD d         -15.587  17.892  -6.772  0.00  0.00     0.135 A 
ATOM     13  NAM PBD d         -16.114  17.949  -5.558  0.00  0.00    -0.255 NA
ATOM     14  CAH PBD d         -16.940  18.968  -5.501  0.00  0.00     0.209 A 
ENDBRANCH   9  10
ENDBRANCH   8   9
ENDBRANCH   7   8
ENDBRANCH   5   7
ENDBRANCH   2   5
BRANCH   1  15
ATOM     15  CAS PBD d         -23.141  21.156  -4.082  0.00  0.00     0.062 A 
ATOM     16  CAE PBD d         -22.473  21.260  -2.849  0.00  0.00     0.034 A 
ATOM     17  CAF PBD d         -22.608  20.219  -1.914  0.00  0.00     0.042 A 
ATOM     18  CAT PBD d         -23.399  19.087  -2.216  0.00  0.00     0.101 A 
ATOM     19  CAU PBD d         -24.057  19.000  -3.458  0.00  0.00     0.103 A 
ATOM     20  CAI PBD d         -23.922  20.030  -4.382  0.00  0.00     0.071 A 
BRANCH  18  21
ATOM     21  OAP PBD d         -23.582  18.019  -1.358  0.00  0.00    -0.353 OA
ATOM     22  CAA PBD d         -22.720  17.947  -0.208  0.00  0.00     0.210 C 
ENDBRANCH  18  21
BRANCH  19  23
ATOM     23  OAQ PBD d         -24.814  17.886  -3.713  0.00  0.00    -0.353 OA
ATOM     24  CAB PBD d         -25.505  17.864  -4.983  0.00  0.00     0.210 C 
ENDBRANCH  19  23
ENDBRANCH   1  15
TORSDOF 9
