REMARK  5 active torsions:
REMARK  status: ('A' for Active; 'I' for Inactive)
REMARK    1  A    between atoms: C4_5  and  C17_22 
REMARK    2  A    between atoms: C9_12  and  N1_10 
REMARK    3  A    between atoms: C10_13  and  C9_12 
REMARK    4  A    between atoms: C15_18  and  C19_26 
REMARK    5  A    between atoms: C17_22  and  C18_23 
ROOT
ATOM      1  C1  ZST d          -5.053  14.064  -0.717  0.00  0.00     0.275 A 
ATOM      2  O1  ZST d          -6.138  14.598  -0.728  0.00  0.00    -0.266 OA
ATOM      3  C2  ZST d          -4.773  12.893   0.117  0.00  0.00     0.046 A 
ATOM      4  C3  ZST d          -3.529  12.225   0.030  0.00  0.00     0.006 A 
ATOM      5  C4  ZST d          -2.526  12.810  -0.909  0.00  0.00     0.076 A 
ATOM      6  C5  ZST d          -5.774  12.397   0.960  0.00  0.00     0.018 A 
ATOM      7  C6  ZST d          -5.556  11.238   1.686  0.00  0.00     0.001 A 
ATOM      8  C7  ZST d          -4.349  10.566   1.582  0.00  0.00     0.001 A 
ATOM      9  C8  ZST d          -3.335  11.055   0.764  0.00  0.00     0.014 A 
ATOM     10  N1  ZST d          -3.971  14.502  -1.586  0.00  0.00    -0.228 N 
ATOM     11  N2  ZST d          -2.735  13.855  -1.645  0.00  0.00    -0.172 NA
ENDROOT
BRANCH  10  12
ATOM     12  C9  ZST d          -4.175  15.657  -2.445  0.00  0.00     0.221 C 
BRANCH  12  13
ATOM     13  C10 ZST d          -4.095  16.925  -1.650  0.00  0.00     0.096 A 
ATOM     14  N3  ZST d          -5.001  17.844  -1.569  0.00  0.00    -0.243 NA
ATOM     15  C12 ZST d          -4.590  18.856  -0.697  0.00  0.00     0.075 A 
ATOM     16  C11 ZST d          -3.338  18.648  -0.106  0.00  0.00     0.035 A 
ATOM     17  C16 ZST d          -5.298  20.016  -0.410  0.00  0.00     0.049 A 
ATOM     18  C13 ZST d          -2.802  19.564   0.794  0.00  0.00     0.022 A 
ATOM     19  S1  ZST d          -2.654  17.173  -0.691  0.00  0.00    -0.071 SA
ATOM     20  C14 ZST d          -3.523  20.711   1.072  0.00  0.00     0.017 A 
ATOM     21  C15 ZST d          -4.754  20.946   0.474  0.00  0.00     0.050 A 
BRANCH  21  22
ATOM     22  C19 ZST d          -5.490  22.196   0.779  0.00  0.00     0.417 C 
ATOM     23  F1  ZST d          -6.558  21.962   1.540  0.00  0.00    -0.166 F 
ATOM     24  F2  ZST d          -4.706  22.982   1.437  0.00  0.00    -0.166 F 
ATOM     25  F3  ZST d          -5.890  22.908  -0.321  0.00  0.00    -0.166 F 
ENDBRANCH  21  22
ENDBRANCH  12  13
ENDBRANCH  10  12
BRANCH   5  26
ATOM     26  C17 ZST d          -1.139  12.214  -1.016  0.00  0.00     0.175 C 
BRANCH  26  27
ATOM     27  C18 ZST d          -0.328  12.322   0.253  0.00  0.00     0.178 C 
ATOM     28  O2  ZST d          -0.825  13.135   1.152  0.00  0.00    -0.648 OA
ATOM     29  O3  ZST d           0.694  11.685   0.436  0.00  0.00    -0.648 OA
ENDBRANCH  26  27
ENDBRANCH   5  26
TORSDOF 5
