REMARK  14 active torsions:
REMARK  status: ('A' for Active; 'I' for Inactive)
REMARK    1  A    between atoms: C35_2  and  C34_4 
REMARK    2  A    between atoms: C34_4  and  C32_5 
REMARK    3  A    between atoms: C28_9  and  O27_10 
REMARK    4  A    between atoms: O27_10  and  C26_11 
REMARK    5  A    between atoms: C26_11  and  C25_12 
REMARK    6  A    between atoms: C25_12  and  C17_13 
REMARK    7  A    between atoms: C17_13  and  N09_14 
REMARK    8  A    between atoms: N09_14  and  C16_15 
REMARK    9  A    between atoms: N09_14  and  C08_27 
REMARK   10  A    between atoms: C16_15  and  C18_16 
REMARK   11  A    between atoms: C20_20  and  C39_23 
REMARK   12  A    between atoms: C08_27  and  C07_28 
REMARK   13  A    between atoms: C07_28  and  C01_29 
REMARK   14  A    between atoms: C07_28  and  C10_35 
ROOT
ATOM      1  N09 MOL d          40.500  14.946  -6.138  0.00  0.00    -0.066 N 
ATOM      2  H12 MOL d          40.812  15.741  -5.602  0.00  0.00     0.280 HD
ENDROOT
BRANCH   1   3
ATOM      3  C17 MOL d          41.815  14.724  -6.721  0.00  0.00     0.237 C 
BRANCH   3   4
ATOM      4  C25 MOL d          42.902  14.279  -5.756  0.00  0.00     0.054 C 
BRANCH   4   5
ATOM      5  C26 MOL d          43.428  15.416  -4.906  0.00  0.00     0.177 C 
BRANCH   5   6
ATOM      6  O27 MOL d          44.758  15.130  -4.481  0.00  0.00    -0.351 OA
BRANCH   6   7
ATOM      7  C28 MOL d          45.720  16.044  -4.166  0.00  0.00     0.069 A 
ATOM      8  C29 MOL d          45.464  17.432  -4.096  0.00  0.00     0.037 A 
ATOM      9  C30 MOL d          46.503  18.295  -3.766  0.00  0.00     0.003 A 
ATOM     10  C31 MOL d          47.765  17.806  -3.451  0.00  0.00     0.008 A 
ATOM     11  C32 MOL d          47.999  16.434  -3.508  0.00  0.00    -0.046 A 
ATOM     12  C33 MOL d          46.969  15.560  -3.844  0.00  0.00     0.044 A 
BRANCH  11  13
ATOM     13  C34 MOL d          49.357  15.896  -3.169  0.00  0.00     0.151 C 
BRANCH  13  14
ATOM     14  C35 MOL d          50.401  16.325  -4.182  0.00  0.00     0.176 C 
ATOM     15  O37 MOL d          50.160  16.409  -5.403  0.00  0.00    -0.648 OA
ATOM     16  O36 MOL d          51.511  16.576  -3.734  0.00  0.00    -0.648 OA
ENDBRANCH  13  14
ENDBRANCH  11  13
ENDBRANCH   6   7
ENDBRANCH   5   6
ENDBRANCH   4   5
ENDBRANCH   3   4
ENDBRANCH   1   3
BRANCH   1  17
ATOM     17  C16 MOL d          40.089  14.217  -4.924  0.00  0.00     0.275 C 
BRANCH  17  18
ATOM     18  C18 MOL d          38.991  14.835  -4.088  0.00  0.00    -0.010 A 
ATOM     19  C23 MOL d          39.284  16.021  -3.439  0.00  0.00     0.010 A 
ATOM     20  C22 MOL d          38.320  16.618  -2.663  0.00  0.00     0.002 A 
ATOM     21  C21 MOL d          37.072  16.034  -2.512  0.00  0.00     0.018 A 
ATOM     22  C20 MOL d          36.755  14.845  -3.162  0.00  0.00     0.070 A 
ATOM     23  C19 MOL d          37.736  14.241  -3.946  0.00  0.00     0.057 A 
ATOM     24 CL4  MOL d          37.380  12.677  -4.771  0.00  0.00    -0.083 Cl
BRANCH  22  25
ATOM     25  C39 MOL d          35.379  14.217  -2.994  0.00  0.00     0.419 C 
ATOM     26  F41 MOL d          35.598  12.967  -2.613  0.00  0.00    -0.166 F 
ATOM     27  F40 MOL d          34.647  14.824  -2.066  0.00  0.00    -0.166 F 
ATOM     28  F42 MOL d          34.680  14.258  -4.138  0.00  0.00    -0.166 F 
ENDBRANCH  22  25
ENDBRANCH  17  18
ENDBRANCH   1  17
BRANCH   1  29
ATOM     29  C08 MOL d          39.543  15.754  -6.917  0.00  0.00     0.249 C 
BRANCH  29  30
ATOM     30  C07 MOL d          40.119  17.134  -7.349  0.00  0.00     0.077 C 
BRANCH  30  31
ATOM     31  C01 MOL d          40.010  18.106  -6.223  0.00  0.00    -0.048 A 
ATOM     32  C02 MOL d          41.172  18.615  -5.667  0.00  0.00     0.008 A 
ATOM     33  C03 MOL d          41.081  19.520  -4.616  0.00  0.00     0.001 A 
ATOM     34  C04 MOL d          39.851  19.913  -4.114  0.00  0.00     0.000 A 
ATOM     35  C05 MOL d          38.690  19.413  -4.665  0.00  0.00     0.001 A 
ATOM     36  C06 MOL d          38.773  18.511  -5.730  0.00  0.00     0.008 A 
ENDBRANCH  30  31
BRANCH  30  37
ATOM     37  C10 MOL d          39.452  17.690  -8.553  0.00  0.00    -0.048 A 
ATOM     38  C15 MOL d          40.210  18.484  -9.410  0.00  0.00     0.008 A 
ATOM     39  C14 MOL d          39.651  19.003 -10.562  0.00  0.00     0.001 A 
ATOM     40  C13 MOL d          38.316  18.766 -10.860  0.00  0.00     0.000 A 
ATOM     41  C12 MOL d          37.551  17.992 -10.004  0.00  0.00     0.001 A 
ATOM     42  C11 MOL d          38.123  17.439  -8.856  0.00  0.00     0.008 A 
ENDBRANCH  30  37
ENDBRANCH  29  30
ENDBRANCH   1  29
TORSDOF 14
