REMARK  7 active torsions:
REMARK  status: ('A' for Active; 'I' for Inactive)
REMARK    1  A    between atoms: CA_4  and  C_1 
REMARK    2  A    between atoms: N_2  and  CA_4 
REMARK    3  A    between atoms: OAQ_18  and  CAN_16 
REMARK    4  A    between atoms: CAN_16  and  CAV_22 
REMARK    5  A    between atoms: CAU_21  and  OAP_17 
REMARK    6  A    between atoms: CAT_20  and  OAQ_18 
REMARK    7  A    between atoms: CAT_20  and  CAW_23 
ROOT
ATOM      1  N   FG4 d          15.544  10.296  -1.263  0.00  0.00    -0.331 N 
ATOM      2  CAG FG4 d          14.317   9.658  -4.716  0.00  0.00     0.039 A 
ATOM      3  CAJ FG4 d          15.271   9.794  -3.703  0.00  0.00     0.033 A 
ATOM      4  CAK FG4 d          12.585  10.170  -3.077  0.00  0.00     0.050 A 
ATOM      5  CAM FG4 d          13.447  10.584  -0.749  0.00  0.00     0.050 A 
ATOM      6  CAU FG4 d          12.972   9.849  -4.394  0.00  0.00     0.069 A 
ATOM      7  CAW FG4 d          14.687  10.570  -0.258  0.00  0.00     0.112 A 
ATOM      8  CAY FG4 d          13.532  10.298  -2.067  0.00  0.00    -0.004 A 
ATOM      9  CBA FG4 d          14.875  10.104  -2.389  0.00  0.00     0.046 A 
ENDROOT
BRANCH   7  10
ATOM     10  CAT FG4 d          15.053  10.848   1.248  0.00  0.00     0.310 C 
ATOM     11  OAC FG4 d          16.095  10.400   1.724  0.00  0.00    -0.258 OA
BRANCH  10  12
ATOM     12  OAQ FG4 d          14.264  11.595   2.096  0.00  0.00    -0.310 OA
BRANCH  12  13
ATOM     13  CAN FG4 d          14.964  11.901   3.246  0.00  0.00     0.244 C 
BRANCH  13  14
ATOM     14  CAV FG4 d          14.854  10.890   4.384  0.00  0.00     0.078 A 
ATOM     15  CAL FG4 d          13.824  10.849   5.205  0.00  0.00     0.049 A 
ATOM     16  CAX FG4 d          13.986   9.857   6.064  0.00  0.00     0.000 A 
ATOM     17  CAH FG4 d          13.199   9.428   7.121  0.00  0.00     0.014 A 
ATOM     18  CAZ FG4 d          15.182   9.229   5.746  0.00  0.00     0.086 A 
ATOM     19  CAE FG4 d          13.609   8.345   7.869  0.00  0.00     0.001 A 
ATOM     20  CAF FG4 d          14.808   7.713   7.561  0.00  0.00     0.003 A 
ATOM     21  CAI FG4 d          15.610   8.155   6.515  0.00  0.00     0.038 A 
ATOM     22  OAR FG4 d          15.724   9.884   4.669  0.00  0.00    -0.312 OA
ENDBRANCH  13  14
ENDBRANCH  12  13
ENDBRANCH  10  12
ENDBRANCH   7  10
BRANCH   1  23
ATOM     23  CA  FG4 d          17.027  10.161  -1.212  0.00  0.00     0.242 C 
BRANCH  23  24
ATOM     24  C   FG4 d          17.811  11.429  -0.781  0.00  0.00     0.191 C 
ATOM     25  O   FG4 d          17.215  12.523  -0.631  0.00  0.00    -0.647 OA
ATOM     26  OXT FG4 d          19.043  11.244  -0.629  0.00  0.00    -0.647 OA
ENDBRANCH  23  24
ENDBRANCH   1  23
BRANCH   6  27
ATOM     27  OAP FG4 d          12.043   9.738  -5.377  0.00  0.00    -0.356 OA
ATOM     28  CAA FG4 d          10.991   8.877  -5.013  0.00  0.00     0.210 C 
ENDBRANCH   6  27
TORSDOF 7
