REMARK  6 active torsions:
REMARK  status: ('A' for Active; 'I' for Inactive)
REMARK    1  A    between atoms: C1_1  and  C12_7 
REMARK    2  A    between atoms: C12_7  and  C13_8 
REMARK    3  A    between atoms: C13_8  and  C14_9 
REMARK    4  A    between atoms: C13_8  and  N17_12 
REMARK    5  A    between atoms: N17_12  and  S18_13 
REMARK    6  A    between atoms: S18_13  and  N19_14 
ROOT
ATOM      1  C13 CXA d           5.371  -9.343  15.225  0.00  0.00     0.199 C 
ENDROOT
BRANCH   1   2
ATOM      2  C12 CXA d           5.836 -10.186  13.959  0.00  0.00     0.075 C 
BRANCH   2   3
ATOM      3  C1  CXA d           5.564  -9.575  12.589  0.00  0.00    -0.056 A 
ATOM      4  C2  CXA d           6.470  -8.655  11.984  0.00  0.00     0.007 A 
ATOM      5  C3  CXA d           6.186  -8.088  10.710  0.00  0.00     0.001 A 
ATOM      6  C4  CXA d           4.995  -8.433  10.026  0.00  0.00     0.000 A 
ATOM      7  C5  CXA d           4.096  -9.343  10.613  0.00  0.00     0.001 A 
ATOM      8  C6  CXA d           4.383  -9.905  11.876  0.00  0.00     0.007 A 
ENDBRANCH   2   3
ENDBRANCH   1   2
BRANCH   1   9
ATOM      9  C14 CXA d           3.824  -9.165  15.202  0.00  0.00     0.197 C 
ATOM     10  O15 CXA d           3.426  -7.960  14.746  0.00  0.00    -0.646 OA
ATOM     11  O16 CXA d           3.034  -9.988  15.548  0.00  0.00    -0.646 OA
ENDBRANCH   1   9
BRANCH   1  12
ATOM     12  N17 CXA d           5.684  -9.953  16.559  0.00  0.00    -0.288 N 
ATOM     13  H9  CXA d           6.000 -10.902  16.586  0.00  0.00     0.174 HD
BRANCH  12  14
ATOM     14  S18 CXA d           5.524  -9.086  18.072  0.00  0.00     0.313 S 
ATOM     15  O20 CXA d           5.908  -9.933  19.161  0.00  0.00    -0.183 OA
ATOM     16  O21 CXA d           4.264  -8.405  18.046  0.00  0.00    -0.183 OA
BRANCH  14  17
ATOM     17  N19 CXA d           6.509  -7.722  18.308  0.00  0.00    -0.312 N 
ATOM     18  H10 CXA d           6.446  -7.201  19.159  0.00  0.00     0.170 HD
ATOM     19  H11 CXA d           7.152  -7.440  17.596  0.00  0.00     0.170 HD
ENDBRANCH  14  17
ENDBRANCH  12  14
ENDBRANCH   1  12
TORSDOF 6
