REMARK  2 active torsions:
REMARK  status: ('A' for Active; 'I' for Inactive)
REMARK    1  A    between atoms: CA_3  and  N_1 
REMARK    2  A    between atoms: CA_3  and  C_4 
ROOT
ATOM      1  CA  MOL d          21.389  32.699   7.852  0.00  0.00     0.210 C 
ATOM      2  CB1 MOL d          21.426  33.487   6.513  0.00  0.00     0.050 C 
ATOM      3  CG  MOL d          20.060  34.047   6.809  0.00  0.00     0.006 C 
ATOM      4  CB2 MOL d          20.143  33.541   8.256  0.00  0.00     0.050 C 
ENDROOT
BRANCH   1   5
ATOM      5  N   MOL d          21.177  31.264   7.648  0.00  0.00    -0.060 N 
ATOM      6  H1  MOL d          20.350  31.123   7.089  0.00  0.00     0.275 HD
ATOM      7  H2  MOL d          21.061  30.811   8.541  0.00  0.00     0.275 HD
ATOM      8  H3  MOL d          21.974  30.871   7.173  0.00  0.00     0.275 HD
ENDBRANCH   1   5
BRANCH   1   9
ATOM      9  C   MOL d          22.644  32.852   8.697  0.00  0.00     0.210 C 
ATOM     10  O   MOL d          22.930  34.099   8.929  0.00  0.00    -0.646 OA
ATOM     11  OXT MOL d          23.263  31.925   9.101  0.00  0.00    -0.646 OA
ENDBRANCH   1   9
TORSDOF 2
