REMARK  10 active torsions:
REMARK  status: ('A' for Active; 'I' for Inactive)
REMARK    1  A    between atoms: O2_2  and  C3_3 
REMARK    2  A    between atoms: C9_9  and  N10_10 
REMARK    3  A    between atoms: N10_10  and  C11_11 
REMARK    4  A    between atoms: C13_13  and  N14_14 
REMARK       I    between atoms: N14_14  and  C15_15 
REMARK    5  A    between atoms: C15_15  and  C17_17 
REMARK    6  A    between atoms: C21_21  and  N23_23 
REMARK    7  A    between atoms: C35_35  and  O36_36 
REMARK    8  A    between atoms: O36_36  and  C37_37 
REMARK    9  A    between atoms: C37_37  and  C38_38 
REMARK   10  A    between atoms: C38_38  and  N39_39 
ROOT
ATOM      1  C11 AQZ d          -4.403   1.623  18.789  0.00  0.00     0.041 A 
ATOM      2  C12 AQZ d          -3.423   2.217  17.979  0.00  0.00     0.059 A 
ATOM      3  C13 AQZ d          -3.716   2.519  16.640  0.00  0.00     0.037 A 
ATOM      4  C29 AQZ d          -4.969   2.193  16.130  0.00  0.00     0.030 A 
ATOM      5  C30 AQZ d          -5.936   1.621  16.927  0.00  0.00     0.011 A 
ATOM      6  C31 AQZ d          -5.692   1.311  18.253  0.00  0.00    -0.035 A 
ATOM      7  C32 AQZ d          -6.844   0.687  19.023  0.00  0.00     0.050 C 
ENDROOT
BRANCH   1   8
ATOM      8  N10 AQZ d          -4.135   1.372  20.141  0.00  0.00    -0.340 N 
ATOM      9  H6  AQZ d          -3.966   2.189  20.745  0.00  0.00     0.167 HD
BRANCH   8  10
ATOM     10  C9  AQZ d          -4.076   0.102  20.750  0.00  0.00     0.142 A 
ATOM     11  N8  AQZ d          -4.066  -0.981  19.965  0.00  0.00    -0.224 NA
ATOM     12  C7  AQZ d          -3.976  -2.170  20.570  0.00  0.00     0.236 A 
ATOM     13  N6  AQZ d          -3.918  -2.363  21.879  0.00  0.00    -0.241 NA
ATOM     14  C5  AQZ d          -3.949  -1.282  22.648  0.00  0.00     0.075 A 
ATOM     15  C4  AQZ d          -3.895  -1.488  24.017  0.00  0.00     0.072 A 
ATOM     16  C33 AQZ d          -4.035   0.025  22.137  0.00  0.00     0.042 A 
ATOM     17  C3  AQZ d          -3.924  -0.424  24.935  0.00  0.00     0.103 A 
ATOM     18  C35 AQZ d          -3.996   0.884  24.426  0.00  0.00     0.103 A 
ATOM     19  C34 AQZ d          -4.046   1.132  23.020  0.00  0.00     0.057 A 
BRANCH  17  20
ATOM     20  O2  AQZ d          -3.876  -0.517  26.330  0.00  0.00    -0.353 OA
ATOM     21  C1  AQZ d          -3.991  -1.788  26.967  0.00  0.00     0.210 C 
ENDBRANCH  17  20
BRANCH  18  22
ATOM     22  O36 AQZ d          -4.013   1.841  25.399  0.00  0.00    -0.347 OA
BRANCH  22  23
ATOM     23  C37 AQZ d          -3.852   3.185  24.929  0.00  0.00     0.203 C 
BRANCH  23  24
ATOM     24  C38 AQZ d          -3.809   4.181  26.122  0.00  0.00     0.261 C 
BRANCH  24  25
ATOM     25  N39 AQZ d          -2.975   3.718  27.246  0.00  0.00    -0.069 N 
ATOM     26  C40 AQZ d          -3.189   4.309  28.576  0.00  0.00     0.235 C 
ATOM     27  C41 AQZ d          -2.241   3.433  29.381  0.00  0.00     0.029 C 
ATOM     28  C42 AQZ d          -1.001   3.488  28.493  0.00  0.00     0.029 C 
ATOM     29  C43 AQZ d          -1.513   3.732  27.063  0.00  0.00     0.235 C 
ATOM     30  H30 AQZ d          -3.231   2.747  27.337  0.00  0.00     0.280 HD
ENDBRANCH  24  25
ENDBRANCH  23  24
ENDBRANCH  22  23
ENDBRANCH  18  22
ENDBRANCH   8  10
ENDBRANCH   1   8
BRANCH   3  31
ATOM     31  N14 AQZ d          -2.721   3.114  15.837  0.00  0.00    -0.323 N 
ATOM     32  C15 AQZ d          -1.361   2.865  15.910  0.00  0.00     0.256 C 
ATOM     33  O16 AQZ d          -0.825   2.072  16.710  0.00  0.00    -0.267 OA
ATOM     34  H8  AQZ d          -3.026   3.776  15.152  0.00  0.00     0.169 HD
BRANCH  32  35
ATOM     35  C17 AQZ d          -0.498   3.580  14.897  0.00  0.00     0.037 A 
ATOM     36  C18 AQZ d          -0.771   4.825  14.288  0.00  0.00     0.036 A 
ATOM     37  C19 AQZ d           0.148   5.299  13.345  0.00  0.00     0.120 A 
ATOM     38  N20 AQZ d           1.283   4.604  12.977  0.00  0.00    -0.243 NA
ATOM     39  C21 AQZ d           1.526   3.401  13.531  0.00  0.00     0.126 A 
ATOM     40  C22 AQZ d           0.635   2.870  14.487  0.00  0.00     0.067 A 
BRANCH  39  41
ATOM     41  N23 AQZ d           2.675   2.673  13.137  0.00  0.00    -0.362 N 
ATOM     42  C24 AQZ d           3.881   3.391  12.636  0.00  0.00     0.150 C 
ATOM     43  C25 AQZ d           4.934   2.408  12.026  0.00  0.00     0.187 C 
ATOM     44  O26 AQZ d           5.031   1.217  12.809  0.00  0.00    -0.388 OA
ATOM     45  C27 AQZ d           3.718   0.631  12.845  0.00  0.00     0.187 C 
ATOM     46  C28 AQZ d           2.932   1.426  13.858  0.00  0.00     0.150 C 
ENDBRANCH  39  41
ENDBRANCH  32  35
ENDBRANCH   3  31
TORSDOF 10
