REMARK  4 active torsions:
REMARK  status: ('A' for Active; 'I' for Inactive)
REMARK    1  A    between atoms: C1_1  and  C2_2 
REMARK    2  A    between atoms: C2_2  and  C1'_3 
REMARK    3  A    between atoms: C3'_5  and  O3'_6 
REMARK    4  A    between atoms: C6'_9  and  O6'_10 
ROOT
ATOM      1  C1' OMD d          17.380  42.601  -2.156  0.00  0.00    -0.012 A 
ATOM      2  C2' OMD d          17.630  41.567  -3.045  0.00  0.00     0.047 A 
ATOM      3  C3' OMD d          18.292  41.839  -4.239  0.00  0.00     0.066 A 
ATOM      4  C4' OMD d          18.689  43.134  -4.539  0.00  0.00     0.039 A 
ATOM      5  C5' OMD d          18.425  44.159  -3.648  0.00  0.00     0.040 A 
ATOM      6  C6' OMD d          17.778  43.896  -2.450  0.00  0.00     0.072 A 
ENDROOT
BRANCH   1   7
ATOM      7  C2  OMD d          16.675  42.348  -0.872  0.00  0.00     0.154 C 
BRANCH   7   8
ATOM      8  C1  OMD d          17.599  42.244   0.304  0.00  0.00     0.177 C 
ATOM      9  O1  OMD d          17.315  42.880   1.355  0.00  0.00    -0.648 OA
ATOM     10  O2  OMD d          18.630  41.515   0.263  0.00  0.00    -0.648 OA
ENDBRANCH   7   8
ENDBRANCH   1   7
BRANCH   6  11
ATOM     11  O6' OMD d          17.521  44.932  -1.562  0.00  0.00    -0.360 OA
ATOM     12  H7  OMD d          17.076  44.588  -0.796  0.00  0.00     0.217 HD
ENDBRANCH   6  11
BRANCH   3  13
ATOM     13  O3' OMD d          18.586  40.851  -5.146  0.00  0.00    -0.361 OA
ATOM     14  H4  OMD d          19.036  41.231  -5.891  0.00  0.00     0.217 HD
ENDBRANCH   3  13
TORSDOF 4
