REMARK  3 active torsions:
REMARK  status: ('A' for Active; 'I' for Inactive)
REMARK    1  A    between atoms: P_1  and  O1P_2 
REMARK    2  A    between atoms: O1P_2  and  C2_6 
REMARK    3  A    between atoms: C2_6  and  C1_7 
ROOT
ATOM      1  O1P PGA d          14.066   4.734  18.433  0.00  0.00    -0.272 OA
ENDROOT
BRANCH   1   2
ATOM      2  P   PGA d          13.188   3.387  18.461  0.00  0.00     0.422 P 
ATOM      3  O2P PGA d          13.522   2.581  17.228  0.00  0.00    -0.617 OA
ATOM      4  O3P PGA d          11.730   3.774  18.451  0.00  0.00    -0.617 OA
ATOM      5  O4P PGA d          13.456   2.572  19.703  0.00  0.00    -0.617 OA
ENDBRANCH   1   2
BRANCH   1   6
ATOM      6  C2  PGA d          15.279   4.854  19.133  0.00  0.00     0.295 C 
BRANCH   6   7
ATOM      7  C1  PGA d          16.371   5.212  18.161  0.00  0.00     0.198 C 
ATOM      8  O1  PGA d          17.372   4.482  18.097  0.00  0.00    -0.646 OA
ATOM      9  O2  PGA d          16.298   6.219  17.418  0.00  0.00    -0.646 OA
ENDBRANCH   6   7
ENDBRANCH   1   6
TORSDOF 3
