REMARK  1 active torsions:
REMARK  status: ('A' for Active; 'I' for Inactive)
REMARK    1  A    between atoms: N10_10  and  C11_11 
ROOT
ATOM      1  C1  JAK d           9.025  56.744  -0.457  0.00  0.00     0.091 C 
ATOM      2  C2  JAK d           7.894  57.742  -0.255  0.00  0.00     0.103 A 
ATOM      3  N3  JAK d           7.957  58.971  -0.638  0.00  0.00    -0.232 NA
ATOM      4  C4  JAK d           6.821  59.615  -0.326  0.00  0.00     0.104 A 
ATOM      5  C5  JAK d           6.412  60.930  -0.533  0.00  0.00     0.153 A 
ATOM      6  N6  JAK d           5.240  61.323  -0.120  0.00  0.00    -0.240 NA
ATOM      7  C7  JAK d           4.373  60.515   0.495  0.00  0.00     0.139 A 
ATOM      8  C8  JAK d           4.713  59.167   0.737  0.00  0.00     0.041 A 
ATOM      9  C9  JAK d           5.977  58.688   0.322  0.00  0.00     0.081 A 
ATOM     10  N10 JAK d           6.689  57.499   0.341  0.00  0.00    -0.328 N 
ATOM     11  C17 JAK d           3.541  58.602   1.413  0.00  0.00     0.034 A 
ATOM     12  C18 JAK d           2.623  59.577   1.536  0.00  0.00     0.091 A 
ATOM     13  N19 JAK d           3.100  60.734   0.994  0.00  0.00    -0.350 N 
ATOM     14  H18 JAK d           2.593  61.630   0.961  0.00  0.00     0.166 HD
ENDROOT
BRANCH  10  15
ATOM     15  C11 JAK d           6.326  56.184   0.912  0.00  0.00     0.095 C 
ATOM     16  C12 JAK d           6.047  56.352   2.407  0.00  0.00     0.053 C 
ATOM     17  C13 JAK d           5.816  54.974   3.027  0.00  0.00     0.234 C 
ATOM     18  N14 JAK d           4.711  54.270   2.353  0.00  0.00    -0.075 N 
ATOM     19  C15 JAK d           4.907  54.142   0.907  0.00  0.00     0.234 C 
ATOM     20  H10 JAK d           3.858  54.781   2.517  0.00  0.00     0.277 HD
ATOM     21  H11 JAK d           4.631  53.346   2.749  0.00  0.00     0.277 HD
ATOM     22  C16 JAK d           5.109  55.514   0.259  0.00  0.00     0.053 C 
ENDBRANCH  10  15
TORSDOF 1
