REMARK  0 active torsions:
REMARK  status: ('A' for Active; 'I' for Inactive)
ROOT
ATOM      1  C1A DRL d          18.857  -4.579  12.977  0.00  0.00     0.091 C 
ATOM      2  C1I DRL d          17.911  -5.595  12.324  0.00  0.00     0.103 A 
ATOM      3  N1G DRL d          18.325  -6.828  12.019  0.00  0.00    -0.239 NA
ATOM      4  C1J DRL d          17.534  -7.752  11.442  0.00  0.00     0.049 A 
ATOM      5  C1D DRL d          18.241  -9.100  11.224  0.00  0.00     0.070 C 
ATOM      6  C1C DRL d          17.268 -10.261  10.991  0.00  0.00     0.080 C 
ATOM      7  S1H DRL d          16.137  -9.817   9.640  0.00  0.00    -0.164 SA
ATOM      8  C1E DRL d          15.241  -8.456  10.485  0.00  0.00     0.120 C 
ATOM      9  C1K DRL d          16.198  -7.447  11.136  0.00  0.00     0.044 A 
ATOM     10  C1L DRL d          15.759  -6.158  11.446  0.00  0.00     0.255 A 
ATOM     11  O1B DRL d          14.607  -5.798  11.211  0.00  0.00    -0.268 OA
ATOM     12  N1F DRL d          16.604  -5.245  12.051  0.00  0.00    -0.311 N 
ATOM     13  H10 DRL d          16.269  -4.334  12.290  0.00  0.00     0.170 HD
ENDROOT
TORSDOF 0
