REMARK  5 active torsions:
REMARK  status: ('A' for Active; 'I' for Inactive)
REMARK    1  A    between atoms: C2_2  and  O2_8 
REMARK    2  A    between atoms: C3_3  and  O3_9 
REMARK    3  A    between atoms: C4_4  and  O4_10 
REMARK    4  A    between atoms: C5_5  and  C6_6 
REMARK    5  A    between atoms: C6_6  and  O6_12 
ROOT
ATOM      1  C1  MOL d         -11.271 -26.976 -25.678  0.00  0.00     0.291 C 
ATOM      2  C2  MOL d         -10.311 -28.018 -25.171  0.00  0.00     0.248 C 
ATOM      3  C3  MOL d          -9.588 -28.657 -26.342  0.00  0.00     0.188 C 
ATOM      4  C4  MOL d         -10.584 -29.070 -27.430  0.00  0.00     0.181 C 
ATOM      5  C5  MOL d         -11.261 -27.841 -28.029  0.00  0.00     0.186 C 
ATOM      6  O1  MOL d         -11.640 -26.074 -24.951  0.00  0.00    -0.262 OA
ATOM      7  O5  MOL d         -11.823 -26.990 -27.027  0.00  0.00    -0.309 OA
ENDROOT
BRANCH   5   8
ATOM      8  C6  MOL d         -12.408 -28.236 -28.950  0.00  0.00     0.199 C 
BRANCH   8   9
ATOM      9  O6  MOL d         -11.901 -28.799 -30.163  0.00  0.00    -0.398 OA
ATOM     10  H10 MOL d         -12.627 -29.040 -30.727  0.00  0.00     0.209 HD
ENDBRANCH   8   9
ENDBRANCH   5   8
BRANCH   4  11
ATOM     11  O4  MOL d         -11.606 -29.933 -26.920  0.00  0.00    -0.390 OA
ATOM     12  H9  MOL d         -11.206 -30.707 -26.541  0.00  0.00     0.210 HD
ENDBRANCH   4  11
BRANCH   3  13
ATOM     13  O3  MOL d          -8.841 -29.775 -25.849  0.00  0.00    -0.390 OA
ATOM     14  H8  MOL d          -8.236 -29.480 -25.178  0.00  0.00     0.210 HD
ENDBRANCH   3  13
BRANCH   2  15
ATOM     15  O2  MOL d          -9.331 -27.454 -24.293  0.00  0.00    -0.383 OA
ATOM     16  H7  MOL d          -8.752 -28.141 -23.984  0.00  0.00     0.210 HD
ENDBRANCH   2  15
TORSDOF 5
