REMARK  5 active torsions:
REMARK  status: ('A' for Active; 'I' for Inactive)
REMARK    1  A    between atoms: C11_1  and  C10_4 
REMARK    2  A    between atoms: C10_4  and  C9_5 
REMARK    3  A    between atoms: C9_5  and  C8_6 
REMARK    4  A    between atoms: C8_6  and  C7_7 
REMARK    5  A    between atoms: C7_7  and  C2_8 
ROOT
ATOM      1  C2  BTN d           6.030 -18.463   4.630  0.00  0.00     0.072 C 
ATOM      2  S1  BTN d           5.305 -17.835   6.094  0.00  0.00    -0.160 SA
ATOM      3  C6  BTN d           6.077 -19.138   7.125  0.00  0.00     0.101 C 
ATOM      4  C5  BTN d           7.474 -19.285   6.494  0.00  0.00     0.118 A 
ATOM      5  N1  BTN d           8.371 -18.292   7.095  0.00  0.00    -0.347 N 
ATOM      6  C3  BTN d           8.849 -17.493   6.132  0.00  0.00     0.248 A 
ATOM      7  O3  BTN d           9.511 -16.366   6.407  0.00  0.00    -0.152 OA
ATOM      8  N2  BTN d           8.383 -17.725   4.882  0.00  0.00    -0.347 N 
ATOM      9  C4  BTN d           7.498 -18.901   5.002  0.00  0.00     0.122 A 
ATOM     10  H13 BTN d           8.591 -18.223   8.068  0.00  0.00     0.163 HD
ATOM     11  H14 BTN d           8.594 -17.209   4.052  0.00  0.00     0.163 HD
ENDROOT
BRANCH   1  12
ATOM     12  C7  BTN d           5.944 -17.564   3.389  0.00  0.00     0.017 C 
BRANCH  12  13
ATOM     13  C8  BTN d           4.499 -17.491   2.900  0.00  0.00     0.002 C 
BRANCH  13  14
ATOM     14  C9  BTN d           4.445 -16.472   1.753  0.00  0.00     0.010 C 
BRANCH  14  15
ATOM     15  C10 BTN d           3.072 -16.299   1.068  0.00  0.00     0.113 C 
BRANCH  15  16
ATOM     16  C11 BTN d           2.505 -17.594   0.518  0.00  0.00     0.172 C 
ATOM     17  O11 BTN d           3.215 -18.345  -0.227  0.00  0.00    -0.648 OA
ATOM     18  O12 BTN d           1.272 -17.939   0.766  0.00  0.00    -0.648 OA
ENDBRANCH  15  16
ENDBRANCH  14  15
ENDBRANCH  13  14
ENDBRANCH  12  13
ENDBRANCH   1  12
TORSDOF 5
