REMARK  6 active torsions:
REMARK  status: ('A' for Active; 'I' for Inactive)
REMARK    1  A    between atoms: N15_14  and  C18_4 
REMARK    2  A    between atoms: C23_26  and  C24_7 
REMARK    3  A    between atoms: C7_11  and  C12_12 
REMARK       I    between atoms: C12_12  and  N15_14 
REMARK    4  A    between atoms: C2_17  and  C1_16 
REMARK    5  A    between atoms: C17_23  and  C14_20 
REMARK       I    between atoms: N19_25  and  C17_23 
REMARK    6  A    between atoms: N19_25  and  C23_26 
ROOT
ATOM      1  C9  GK5 d          39.630  32.309  30.181  0.00  0.00     0.049 C 
ATOM      2  C4  GK5 d          39.547  31.335  31.353  0.00  0.00    -0.051 A 
ATOM      3  C8  GK5 d          38.408  30.525  31.589  0.00  0.00     0.009 A 
ATOM      4  C13 GK5 d          38.312  29.639  32.665  0.00  0.00     0.017 A 
ATOM      5  C7  GK5 d          39.381  29.509  33.571  0.00  0.00     0.032 A 
ATOM      6  C3  GK5 d          40.506  30.325  33.311  0.00  0.00     0.029 A 
ATOM      7  C1  GK5 d          40.610  31.227  32.226  0.00  0.00    -0.019 A 
ENDROOT
BRANCH   7   8
ATOM      8  C2  GK5 d          41.911  31.977  32.176  0.00  0.00    -0.025 A 
ATOM      9  C5  GK5 d          42.987  31.506  31.448  0.00  0.00     0.013 A 
ATOM     10  C10 GK5 d          44.212  32.192  31.466  0.00  0.00     0.018 A 
ATOM     11  C14 GK5 d          44.400  33.346  32.242  0.00  0.00     0.032 A 
ATOM     12  C11 GK5 d          43.317  33.773  33.010  0.00  0.00     0.018 A 
ATOM     13  C6  GK5 d          42.099  33.092  32.956  0.00  0.00     0.013 A 
BRANCH  11  14
ATOM     14  C17 GK5 d          45.691  34.092  32.392  0.00  0.00     0.251 C 
ATOM     15  O20 GK5 d          45.788  35.270  32.745  0.00  0.00    -0.268 OA
ATOM     16  N19 GK5 d          46.791  33.299  32.265  0.00  0.00    -0.356 N 
ATOM     17  H18 GK5 d          46.669  32.417  31.809  0.00  0.00     0.162 HD
BRANCH  16  18
ATOM     18  C23 GK5 d          48.144  33.629  32.742  0.00  0.00     0.135 C 
BRANCH  18  19
ATOM     19  C24 GK5 d          48.811  34.530  31.723  0.00  0.00     0.048 A 
ATOM     20  C26 GK5 d          49.027  33.927  30.393  0.00  0.00    -0.020 A 
ATOM     21  C25 GK5 d          50.185  34.214  31.283  0.00  0.00    -0.020 A 
ENDBRANCH  18  19
ENDBRANCH  16  18
ENDBRANCH  11  14
ENDBRANCH   7   8
BRANCH   5  22
ATOM     22  C12 GK5 d          39.405  28.585  34.764  0.00  0.00     0.252 C 
ATOM     23  O16 GK5 d          40.286  28.721  35.631  0.00  0.00    -0.268 OA
ATOM     24  N15 GK5 d          38.417  27.623  34.905  0.00  0.00    -0.346 N 
ATOM     25  H12 GK5 d          37.692  27.588  34.217  0.00  0.00     0.163 HD
BRANCH  24  26
ATOM     26  C18 GK5 d          38.373  26.666  35.990  0.00  0.00     0.130 A 
ATOM     27  C22 GK5 d          36.971  26.719  36.516  0.00  0.00     0.000 A 
ATOM     28  C21 GK5 d          38.058  27.405  37.255  0.00  0.00     0.000 A 
ENDBRANCH  24  26
ENDBRANCH   5  22
TORSDOF 6
