REMARK  3 active torsions:
REMARK  status: ('A' for Active; 'I' for Inactive)
REMARK    1  A    between atoms: C1_1  and  N3_7 
REMARK    2  A    between atoms: N2_5  and  C6_10 
REMARK    3  A    between atoms: C6_10  and  C7_11 
ROOT
ATOM      1  C1  BDJ d          21.879  10.243  24.606  0.00  0.00     0.678 A 
ATOM      2  N1  BDJ d          21.805  10.828  25.818  0.00  0.00    -0.209 N 
ATOM      3  O1  BDJ d          19.408  12.407  23.771  0.00  0.00    -0.270 OA
ATOM      4  C2  BDJ d          20.296  11.721  24.284  0.00  0.00     0.266 A 
ATOM      5  N2  BDJ d          21.012  10.743  23.705  0.00  0.00    -0.145 N 
ATOM      6  C3  BDJ d          20.770  11.842  25.727  0.00  0.00     0.122 A 
ATOM      7  C4  BDJ d          19.562  11.483  26.601  0.00  0.00     0.049 C 
ATOM      8  C5  BDJ d          21.346  13.266  25.933  0.00  0.00     0.049 C 
ATOM      9  H1  BDJ d          22.372  10.600  26.647  0.00  0.00     0.179 HD
ENDROOT
BRANCH   5  10
ATOM     10  C6  BDJ d          20.880  10.302  22.318  0.00  0.00     0.189 C 
BRANCH  10  11
ATOM     11  C7  BDJ d          21.848  11.064  21.437  0.00  0.00    -0.038 A 
ATOM     12  C8  BDJ d          21.588  12.427  21.103  0.00  0.00     0.009 A 
ATOM     13  C9  BDJ d          22.499  13.150  20.276  0.00  0.00     0.002 A 
ATOM     14  C10 BDJ d          23.671  12.513  19.785  0.00  0.00     0.024 A 
ATOM     15  C11 BDJ d          23.935  11.157  20.115  0.00  0.00     0.034 A 
ATOM     16  C12 BDJ d          23.027  10.430  20.941  0.00  0.00     0.032 A 
ATOM     17 CL1  BDJ d          25.362  10.397  19.510  0.00  0.00    -0.084 Cl
ENDBRANCH  10  11
ENDBRANCH   5  10
BRANCH   1  18
ATOM     18  N3  BDJ d          22.722   9.261  24.310  0.00  0.00    -0.234 N 
ATOM     19  H2  BDJ d          23.370   8.905  25.027  0.00  0.00     0.174 HD
ATOM     20  H3  BDJ d          22.728   8.855  23.363  0.00  0.00     0.174 HD
ENDBRANCH   1  18
TORSDOF 3
