REMARK  3 active torsions:
REMARK  status: ('A' for Active; 'I' for Inactive)
REMARK    1  A    between atoms: C1_1  and  C2_2 
REMARK    2  A    between atoms: C2_2  and  C3_3 
REMARK    3  A    between atoms: C2_2  and  O3_6 
ROOT
ATOM      1  C2  TTN d         -21.934  20.199 -24.395  0.00  0.00     0.320 C 
ENDROOT
BRANCH   1   2
ATOM      2  C1  TTN d         -22.624  19.165 -23.556  0.00  0.00     0.214 C 
ATOM      3  O1  TTN d         -23.523  19.536 -22.771  0.00  0.00    -0.646 OA
ATOM      4  O2  TTN d         -22.273  17.971 -23.674  0.00  0.00    -0.646 OA
ENDBRANCH   1   2
BRANCH   1   5
ATOM      5  C3  TTN d         -22.820  21.389 -24.617  0.00  0.00     0.214 C 
ATOM      6  O4  TTN d         -23.213  22.034 -23.622  0.00  0.00    -0.646 OA
ATOM      7  O5  TTN d         -23.131  21.690 -25.790  0.00  0.00    -0.646 OA
ENDBRANCH   1   5
BRANCH   1   8
ATOM      8  O3  TTN d         -20.729  20.616 -23.743  0.00  0.00    -0.375 OA
ATOM      9  H   TTN d         -20.169  19.862 -23.603  0.00  0.00     0.211 HD
ENDBRANCH   1   8
TORSDOF 3
