REMARK  3 active torsions:
REMARK  status: ('A' for Active; 'I' for Inactive)
REMARK    1  A    between atoms: N2_8  and  C4_9 
REMARK    2  A    between atoms: C1_14  and  S1_15 
REMARK    3  A    between atoms: S1_15  and  N1_18 
ROOT
ATOM      1  C4  OSP d          -4.378   4.246  14.010  0.00  0.00     0.044 A 
ATOM      2  C3  OSP d          -3.585   3.136  14.300  0.00  0.00     0.032 A 
ATOM      3  C2  OSP d          -4.058   2.142  15.165  0.00  0.00     0.027 A 
ATOM      4  C5  OSP d          -5.654   4.345  14.573  0.00  0.00     0.032 A 
ATOM      5  C6  OSP d          -6.128   3.349  15.434  0.00  0.00     0.027 A 
ATOM      6  C1  OSP d          -5.337   2.230  15.739  0.00  0.00     0.079 A 
ENDROOT
BRANCH   1   7
ATOM      7  N2  OSP d          -3.853   5.232  13.142  0.00  0.00    -0.276 N 
ATOM      8  S2  OSP d          -4.007   5.127  11.608  0.00  0.00     0.233 S 
ATOM      9  O3  OSP d          -5.252   4.509  11.213  0.00  0.00    -0.205 OA
ATOM     10  O4  OSP d          -2.971   4.246  11.122  0.00  0.00    -0.205 OA
ATOM     11  C7  OSP d          -3.785   6.621  10.911  0.00  0.00     0.163 C 
ATOM     12  C8  OSP d          -2.526   7.302  11.460  0.00  0.00     0.018 C 
ATOM     13  C9  OSP d          -1.985   6.655  12.735  0.00  0.00     0.022 C 
ATOM     14  C10 OSP d          -3.083   6.319  13.737  0.00  0.00     0.142 C 
ENDBRANCH   1   7
BRANCH   6  15
ATOM     15  S1  OSP d          -5.865   1.047  16.721  0.00  0.00     0.256 S 
ATOM     16  O1  OSP d          -7.300   1.052  16.765  0.00  0.00    -0.201 OA
ATOM     17  O2  OSP d          -5.313   1.248  18.032  0.00  0.00    -0.201 OA
BRANCH  15  18
ATOM     18  N1  OSP d          -5.358  -0.342  16.127  0.00  0.00    -0.324 N 
ATOM     19  H13 OSP d          -5.583  -1.197  16.594  0.00  0.00     0.169 HD
ATOM     20  H14 OSP d          -4.815  -0.358  15.287  0.00  0.00     0.169 HD
ENDBRANCH  15  18
ENDBRANCH   6  15
TORSDOF 3
