REMARK  10 active torsions:
REMARK  status: ('A' for Active; 'I' for Inactive)
REMARK    1  A    between atoms: C1_3  and  C2_4 
REMARK    2  A    between atoms: C2_4  and  C3_5 
REMARK    3  A    between atoms: C3_5  and  C4_6 
REMARK    4  A    between atoms: C4_6  and  C5_7 
REMARK    5  A    between atoms: C5_7  and  C6_8 
REMARK    6  A    between atoms: C6_8  and  C7_9 
REMARK    7  A    between atoms: C7_9  and  C8_10 
REMARK    8  A    between atoms: C8_10  and  C9_11 
REMARK    9  A    between atoms: C9_11  and  C10_12 
REMARK   10  A    between atoms: C10_12  and  C11_13 
ROOT
ATOM      1  C5  DAO d         -35.200 -22.168 -42.261  0.00  0.00     0.000 C 
ENDROOT
BRANCH   1   2
ATOM      2  C4  DAO d         -36.398 -21.220 -42.280  0.00  0.00     0.001 C 
BRANCH   2   3
ATOM      3  C3  DAO d         -36.434 -20.392 -41.001  0.00  0.00     0.010 C 
BRANCH   3   4
ATOM      4  C2  DAO d         -35.904 -19.032 -41.341  0.00  0.00     0.113 C 
BRANCH   4   5
ATOM      5  C1  DAO d         -34.528 -18.687 -40.776  0.00  0.00     0.172 C 
ATOM      6  O1  DAO d         -33.827 -19.543 -40.173  0.00  0.00    -0.648 OA
ATOM      7  O2  DAO d         -34.135 -17.508 -40.948  0.00  0.00    -0.648 OA
ENDBRANCH   4   5
ENDBRANCH   3   4
ENDBRANCH   2   3
ENDBRANCH   1   2
BRANCH   1   8
ATOM      8  C6  DAO d         -35.533 -23.569 -42.759  0.00  0.00     0.000 C 
BRANCH   8   9
ATOM      9  C7  DAO d         -35.969 -24.439 -41.588  0.00  0.00     0.000 C 
BRANCH   9  10
ATOM     10  C8  DAO d         -37.387 -24.962 -41.797  0.00  0.00     0.000 C 
BRANCH  10  11
ATOM     11  C9  DAO d         -38.455 -24.055 -41.190  0.00  0.00     0.000 C 
BRANCH  11  12
ATOM     12  C10 DAO d         -39.849 -24.392 -41.738  0.00  0.00    -0.000 C 
BRANCH  12  13
ATOM     13  C11 DAO d         -40.967 -23.374 -41.466  0.00  0.00    -0.005 C 
ATOM     14  C12 DAO d         -40.755 -22.457 -40.269  0.00  0.00     0.005 C 
ENDBRANCH  12  13
ENDBRANCH  11  12
ENDBRANCH  10  11
ENDBRANCH   9  10
ENDBRANCH   8   9
ENDBRANCH   1   8
TORSDOF 10
