REMARK  14 active torsions:
REMARK  status: ('A' for Active; 'I' for Inactive)
REMARK    1  A    between atoms: N1_1  and  C31_39 
REMARK    2  A    between atoms: C2_3  and  C3_4 
REMARK       I    between atoms: C3_4  and  N2_6 
REMARK    3  A    between atoms: N2_6  and  C4_7 
REMARK    4  A    between atoms: N3_11  and  C10_14 
REMARK    5  A    between atoms: C10_14  and  C11_15 
REMARK    6  A    between atoms: C11_15  and  C12_17 
REMARK    7  A    between atoms: C11_15  and  O2_16 
REMARK    8  A    between atoms: C12_17  and  C13_18 
REMARK    9  A    between atoms: C13_18  and  C21_26 
REMARK   10  A    between atoms: C13_18  and  C14_19 
REMARK   11  A    between atoms: C14_19  and  C15_20 
REMARK       I    between atoms: C21_26  and  N4_28 
REMARK   12  A    between atoms: N4_28  and  C22_29 
REMARK   13  A    between atoms: C23_30  and  O4_31 
REMARK   14  A    between atoms: C31_39  and  C38_47 
ROOT
ATOM      1  C10 L75 d          12.795  25.088   4.562  0.00  0.00     0.267 C 
ENDROOT
BRANCH   1   2
ATOM      2  N3  L75 d          11.671  24.240   4.130  0.00  0.00    -0.053 N 
ATOM      3  C2  L75 d          10.395  24.782   4.644  0.00  0.00     0.305 C 
ATOM      4  C1  L75 d           9.232  23.899   4.162  0.00  0.00     0.278 C 
ATOM      5  N1  L75 d           9.213  23.920   2.696  0.00  0.00    -0.061 N 
ATOM      6  C9  L75 d          10.446  23.339   2.164  0.00  0.00     0.263 C 
ATOM      7  H1  L75 d           9.166  24.881   2.396  0.00  0.00     0.280 HD
ATOM      8  C8  L75 d          11.661  24.176   2.643  0.00  0.00     0.263 C 
ATOM      9  H15 L75 d          11.799  23.310   4.497  0.00  0.00     0.281 HD
BRANCH   3  10
ATOM     10  C3  L75 d          10.389  24.856   6.162  0.00  0.00     0.251 C 
ATOM     11  N2  L75 d          10.048  26.052   6.674  0.00  0.00    -0.351 N 
ATOM     12  H5  L75 d           9.788  26.783   6.044  0.00  0.00     0.163 HD
ATOM     13  O1  L75 d          10.751  23.854   6.823  0.00  0.00    -0.271 OA
BRANCH  11  14
ATOM     14  C4  L75 d          10.040  26.338   8.133  0.00  0.00     0.022 C 
ATOM     15  C7  L75 d           9.079  25.351   8.863  0.00  0.00     0.037 C 
ATOM     16  C6  L75 d          11.464  26.256   8.696  0.00  0.00     0.037 C 
ATOM     17  C5  L75 d           9.535  27.776   8.341  0.00  0.00     0.037 C 
ENDBRANCH  11  14
ENDBRANCH   3  10
BRANCH   5  18
ATOM     18  C31 L75 d           8.001  23.211   2.171  0.00  0.00     0.299 C 
BRANCH  18  19
ATOM     19  C38 L75 d           8.076  21.686   2.373  0.00  0.00     0.080 A 
ATOM     20  C39 L75 d           6.936  20.897   2.834  0.00  0.00     0.048 A 
ATOM     21  C35 L75 d           7.453  19.570   2.592  0.00  0.00     0.000 A 
ATOM     22  C34 L75 d           8.765  19.621   2.137  0.00  0.00     0.086 A 
ATOM     23  C36 L75 d           6.799  18.331   2.781  0.00  0.00     0.014 A 
ATOM     24  O5  L75 d           9.156  20.899   1.953  0.00  0.00    -0.312 OA
ATOM     25  C33 L75 d           9.570  18.478   1.938  0.00  0.00     0.038 A 
ATOM     26  C32 L75 d           8.942  17.201   2.182  0.00  0.00     0.003 A 
ATOM     27  C37 L75 d           7.554  17.137   2.570  0.00  0.00     0.001 A 
ENDBRANCH  18  19
ENDBRANCH   5  18
ENDBRANCH   1   2
BRANCH   1  28
ATOM     28  C11 L75 d          13.998  24.224   4.828  0.00  0.00     0.145 C 
BRANCH  28  29
ATOM     29  C12 L75 d          14.244  23.966   6.284  0.00  0.00     0.047 C 
BRANCH  29  30
ATOM     30  C13 L75 d          15.449  23.130   6.738  0.00  0.00     0.084 C 
BRANCH  30  31
ATOM     31  C21 L75 d          15.317  21.691   6.225  0.00  0.00     0.222 C 
ATOM     32  N4  L75 d          16.395  21.220   5.577  0.00  0.00    -0.350 N 
ATOM     33  H34 L75 d          17.087  21.847   5.218  0.00  0.00     0.163 HD
ATOM     34  O3  L75 d          14.292  21.051   6.471  0.00  0.00    -0.273 OA
BRANCH  32  35
ATOM     35  C22 L75 d          16.542  19.762   5.403  0.00  0.00     0.147 C 
ATOM     36  C30 L75 d          16.510  19.311   4.015  0.00  0.00    -0.027 A 
ATOM     37  C25 L75 d          17.374  18.293   3.819  0.00  0.00    -0.047 A 
ATOM     38  C29 L75 d          15.744  19.834   2.996  0.00  0.00     0.010 A 
ATOM     39  C24 L75 d          18.173  18.005   5.067  0.00  0.00     0.073 C 
ATOM     40  C26 L75 d          17.636  17.774   2.553  0.00  0.00     0.008 A 
ATOM     41  C23 L75 d          17.985  19.326   5.883  0.00  0.00     0.149 C 
ATOM     42  C27 L75 d          16.912  18.295   1.488  0.00  0.00     0.001 A 
ATOM     43  C28 L75 d          15.970  19.333   1.713  0.00  0.00     0.001 A 
BRANCH  41  44
ATOM     44  O4  L75 d          18.908  20.267   5.354  0.00  0.00    -0.393 OA
ATOM     45  H37 L75 d          18.826  21.088   5.825  0.00  0.00     0.210 HD
ENDBRANCH  41  44
ENDBRANCH  32  35
ENDBRANCH  30  31
BRANCH  30  46
ATOM     46  C14 L75 d          15.556  23.174   8.265  0.00  0.00     0.052 C 
BRANCH  46  47
ATOM     47  C15 L75 d          16.584  22.175   8.820  0.00  0.00    -0.057 A 
ATOM     48  C20 L75 d          16.126  21.103   9.635  0.00  0.00     0.007 A 
ATOM     49  C19 L75 d          17.043  20.191  10.155  0.00  0.00     0.001 A 
ATOM     50  C18 L75 d          18.403  20.354   9.872  0.00  0.00     0.000 A 
ATOM     51  C17 L75 d          18.875  21.404   9.063  0.00  0.00     0.001 A 
ATOM     52  C16 L75 d          17.972  22.316   8.525  0.00  0.00     0.007 A 
ENDBRANCH  46  47
ENDBRANCH  30  46
ENDBRANCH  29  30
ENDBRANCH  28  29
BRANCH  28  53
ATOM     53  O2  L75 d          15.119  24.900   4.338  0.00  0.00    -0.394 OA
ATOM     54  H23 L75 d          14.999  25.081   3.413  0.00  0.00     0.210 HD
ENDBRANCH  28  53
ENDBRANCH   1  28
TORSDOF 14
