REMARK  4 active torsions:
REMARK  status: ('A' for Active; 'I' for Inactive)
REMARK    1  A    between atoms: CP1_2  and  C44_4 
REMARK    2  A    between atoms: C41_9  and  N3_10 
REMARK       I    between atoms: N3_10  and  C3_11 
REMARK    3  A    between atoms: C3_11  and  C25_13 
REMARK    4  A    between atoms: C21_18  and  C11_19 
ROOT
ATOM      1  C25 MOL d          25.066 -19.295   7.794  0.00  0.00     0.095 A 
ATOM      2  C24 MOL d          26.284 -19.818   8.150  0.00  0.00     0.093 A 
ATOM      3  CM  MOL d          27.688 -19.343   8.085  0.00  0.00     0.080 C 
ATOM      4  O23 MOL d          26.123 -21.106   8.503  0.00  0.00    -0.217 OA
ATOM      5  N22 MOL d          24.759 -21.460   8.334  0.00  0.00    -0.127 NA
ATOM      6  C21 MOL d          24.139 -20.378   7.904  0.00  0.00     0.114 A 
ENDROOT
BRANCH   1   7
ATOM      7  C3  MOL d          24.848 -17.926   7.278  0.00  0.00     0.261 C 
ATOM      8  N3  MOL d          23.542 -17.491   7.251  0.00  0.00    -0.323 N 
ATOM      9  H   MOL d          22.864 -18.151   7.574  0.00  0.00     0.169 HD
ATOM     10  O3  MOL d          25.803 -17.246   6.903  0.00  0.00    -0.267 OA
BRANCH   8  11
ATOM     11  C41 MOL d          23.022 -16.241   6.830  0.00  0.00     0.035 A 
ATOM     12  C46 MOL d          21.825 -15.823   7.403  0.00  0.00     0.030 A 
ATOM     13  C45 MOL d          21.217 -14.656   6.974  0.00  0.00     0.010 A 
ATOM     14  C44 MOL d          21.782 -13.877   5.971  0.00  0.00    -0.055 A 
ATOM     15  C43 MOL d          22.982 -14.297   5.411  0.00  0.00     0.010 A 
ATOM     16  C42 MOL d          23.600 -15.462   5.833  0.00  0.00     0.030 A 
BRANCH  14  17
ATOM     17  CP1 MOL d          21.137 -12.575   5.518  0.00  0.00     0.010 C 
ATOM     18  CP3 MOL d          21.546 -11.410   6.415  0.00  0.00     0.015 C 
ATOM     19  CP2 MOL d          19.616 -12.660   5.414  0.00  0.00     0.015 C 
ENDBRANCH  14  17
ENDBRANCH   8  11
ENDBRANCH   1   7
BRANCH   6  20
ATOM     20  C11 MOL d          22.688 -20.557   7.797  0.00  0.00     0.018 A 
ATOM     21  C12 MOL d          22.139 -20.863   6.547  0.00  0.00     0.046 A 
ATOM     22 CL   MOL d          23.144 -20.939   5.130  0.00  0.00    -0.083 Cl
ATOM     23  C13 MOL d          20.768 -21.004   6.376  0.00  0.00     0.025 A 
ATOM     24  C14 MOL d          19.922 -20.780   7.449  0.00  0.00     0.002 A 
ATOM     25  C15 MOL d          20.442 -20.413   8.677  0.00  0.00     0.001 A 
ATOM     26  C16 MOL d          21.813 -20.298   8.851  0.00  0.00     0.015 A 
ENDBRANCH   6  20
TORSDOF 4
