REMARK  10 active torsions:
REMARK  status: ('A' for Active; 'I' for Inactive)
REMARK    1  A    between atoms: C19_20  and  C12_13 
REMARK    2  A    between atoms: C21_22  and  C13_14 
REMARK    3  A    between atoms: C14_15  and  N35_36 
REMARK    4  A    between atoms: C15_16  and  N37_38 
REMARK    5  A    between atoms: C16_17  and  N39_40 
REMARK    6  A    between atoms: S47_48  and  C17_18 
REMARK    7  A    between atoms: C34_35  and  C20_21 
REMARK       I    between atoms: N38_39  and  C21_22 
REMARK    8  A    between atoms: N37_38  and  C33_34 
REMARK    9  A    between atoms: N36_37  and  C34_35 
REMARK   10  A    between atoms: N38_39  and  S47_48 
ROOT
ATOM      1  C3  1XV d          22.914  31.427  12.532  0.00  0.00     0.019 A 
ATOM      2  C4  1XV d          24.518  33.173  12.923  0.00  0.00     0.019 A 
ATOM      3  C5  1XV d          23.871  30.706  11.830  0.00  0.00     0.030 A 
ATOM      4  C6  1XV d          25.455  32.442  12.212  0.00  0.00     0.030 A 
ATOM      5  C13 1XV d          23.248  32.652  13.074  0.00  0.00     0.033 A 
ATOM      6  C14 1XV d          25.156  31.201  11.656  0.00  0.00     0.030 A 
ENDROOT
BRANCH   5   7
ATOM      7  C21 1XV d          22.232  33.457  13.788  0.00  0.00     0.265 C 
ATOM      8  N38 1XV d          20.943  32.918  13.695  0.00  0.00    -0.246 N 
ATOM      9  H39 1XV d          20.833  31.992  13.334  0.00  0.00     0.182 HD
ATOM     10  O41 1XV d          22.463  34.519  14.343  0.00  0.00    -0.267 OA
BRANCH   8  11
ATOM     11  S47 1XV d          19.570  33.773  14.169  0.00  0.00     0.265 S 
ATOM     12  O43 1XV d          18.402  32.961  13.868  0.00  0.00    -0.200 OA
ATOM     13  O44 1XV d          19.747  34.225  15.543  0.00  0.00    -0.200 OA
BRANCH  11  14
ATOM     14  C17 1XV d          19.564  35.222  13.138  0.00  0.00     0.082 A 
ATOM     15  C8  1XV d          20.174  36.393  13.543  0.00  0.00     0.028 A 
ATOM     16  C7  1XV d          20.139  37.503  12.715  0.00  0.00     0.033 A 
ATOM     17  C15 1XV d          19.504  37.459  11.478  0.00  0.00     0.061 A 
ATOM     18  C16 1XV d          18.883  36.267  11.120  0.00  0.00     0.130 A 
ATOM     19  C11 1XV d          18.890  35.159  11.939  0.00  0.00     0.063 A 
BRANCH  17  20
ATOM     20  N37 1XV d          19.439  38.560  10.590  0.00  0.00    -0.383 N 
ATOM     21  H38 1XV d          18.886  38.491   9.724  0.00  0.00     0.160 HD
BRANCH  20  22
ATOM     22  C33 1XV d          20.159  39.798  10.903  0.00  0.00     0.085 C 
ATOM     23  C24 1XV d          19.331  40.658  11.842  0.00  0.00     0.051 C 
ATOM     24  C31 1XV d          20.026  41.996  12.047  0.00  0.00     0.169 C 
ATOM     25  O46 1XV d          20.065  42.688  10.803  0.00  0.00    -0.391 OA
ATOM     26  C32 1XV d          20.870  41.988   9.833  0.00  0.00     0.169 C 
ATOM     27  C25 1XV d          20.365  40.566   9.592  0.00  0.00     0.051 C 
ENDBRANCH  20  22
ENDBRANCH  17  20
BRANCH  18  28
ATOM     28  N39 1XV d          18.166  36.091   9.865  0.00  0.00    -0.113 N 
ATOM     29  O40 1XV d          17.679  34.985   9.637  0.00  0.00    -0.532 OA
ATOM     30  O42 1XV d          18.071  37.038   9.093  0.00  0.00    -0.532 OA
ENDBRANCH  18  28
ENDBRANCH  11  14
ENDBRANCH   8  11
ENDBRANCH   5   7
BRANCH   6  31
ATOM     31  N35 1XV d          26.144  30.473  10.903  0.00  0.00    -0.378 N 
ATOM     32  C26 1XV d          25.922  29.031  10.733  0.00  0.00     0.150 C 
ATOM     33  C28 1XV d          26.756  28.561   9.550  0.00  0.00     0.255 C 
ATOM     34  N36 1XV d          28.193  28.915   9.790  0.00  0.00    -0.064 N 
ATOM     35  C29 1XV d          28.424  30.384   9.973  0.00  0.00     0.255 C 
ATOM     36  H37 1XV d          28.429  28.485  10.671  0.00  0.00     0.280 HD
ATOM     37  C27 1XV d          27.526  30.923  11.089  0.00  0.00     0.150 C 
BRANCH  34  38
ATOM     38  C34 1XV d          29.157  28.340   8.783  0.00  0.00     0.272 C 
BRANCH  38  39
ATOM     39  C20 1XV d          28.857  26.962   8.274  0.00  0.00    -0.024 C 
ATOM     40  C19 1XV d          28.479  26.660   7.009  0.00  0.00    -0.040 C 
ATOM     41  C22 1XV d          28.172  25.258   6.577  0.00  0.00     0.066 C 
ATOM     42  C30 1XV d          28.539  24.226   7.633  0.00  0.00     0.172 C 
ATOM     43  O45 1XV d          28.238  24.707   8.944  0.00  0.00    -0.387 OA
ATOM     44  C23 1XV d          29.026  25.861   9.279  0.00  0.00     0.204 C 
BRANCH  40  45
ATOM     45  C12 1XV d          28.347  27.624   5.914  0.00  0.00    -0.029 A 
ATOM     46  C1  1XV d          29.484  28.233   5.405  0.00  0.00     0.013 A 
ATOM     47  C9  1XV d          29.384  29.110   4.345  0.00  0.00     0.024 A 
ATOM     48  C18 1XV d          28.141  29.366   3.797  0.00  0.00     0.034 A 
ATOM     49 CL4  1XV d          28.020  30.449   2.459  0.00  0.00    -0.084 Cl
ATOM     50  C10 1XV d          27.006  28.764   4.296  0.00  0.00     0.024 A 
ATOM     51  C2  1XV d          27.109  27.875   5.343  0.00  0.00     0.013 A 
ENDBRANCH  40  45
ENDBRANCH  38  39
ENDBRANCH  34  38
ENDBRANCH   6  31
TORSDOF 10
