REMARK  3 active torsions:
REMARK  status: ('A' for Active; 'I' for Inactive)
REMARK    1  A    between atoms: C2_2  and  O2_7 
REMARK    2  A    between atoms: C3_3  and  O3_8 
REMARK    3  A    between atoms: C4_4  and  O4_9 
ROOT
ATOM      1  C1  FU4 d          20.141  11.547 -19.172  0.00  0.00     0.202 C 
ATOM      2  C2  FU4 d          20.479  11.326 -17.698  0.00  0.00     0.173 C 
ATOM      3  C3  FU4 d          21.847  10.650 -17.612  0.00  0.00     0.180 C 
ATOM      4  C4  FU4 d          22.945  11.451 -18.356  0.00  0.00     0.178 C 
ATOM      5  C5  FU4 d          22.446  11.793 -19.769  0.00  0.00     0.148 C 
ATOM      6  C6  FU4 d          23.444  12.654 -20.492  0.00  0.00     0.042 C 
ATOM      7  O5  FU4 d          21.146  12.398 -19.739  0.00  0.00    -0.381 OA
ENDROOT
BRANCH   2   8
ATOM      8  O2  FU4 d          19.479  10.519 -17.070  0.00  0.00    -0.391 OA
ATOM      9  H10 FU4 d          19.704  10.393 -16.156  0.00  0.00     0.210 HD
ENDBRANCH   2   8
BRANCH   3  10
ATOM     10  O3  FU4 d          22.123  10.349 -16.244  0.00  0.00    -0.390 OA
ATOM     11  H11 FU4 d          21.397   9.859 -15.876  0.00  0.00     0.210 HD
ENDBRANCH   3  10
BRANCH   4  12
ATOM     12  O4  FU4 d          23.330  12.702 -17.787  0.00  0.00    -0.390 OA
ATOM     13  H12 FU4 d          22.578  13.282 -17.763  0.00  0.00     0.210 HD
ENDBRANCH   4  12
TORSDOF 3
