REMARK  2 active torsions:
REMARK  status: ('A' for Active; 'I' for Inactive)
REMARK    1  A    between atoms: C9_8  and  N13_12 
REMARK    2  A    between atoms: N13_12  and  C14_13 
ROOT
ATOM      1  C1  1Q4 d          16.781   3.430   1.336  0.00  0.00     0.035 A 
ATOM      2  C2  1Q4 d          17.290   2.191   1.260  0.00  0.00     0.092 A 
ATOM      3  N3  1Q4 d          16.654   1.155   0.628  0.00  0.00    -0.332 N 
ATOM      4  C5  1Q4 d          15.450   1.305   0.023  0.00  0.00     0.275 A 
ATOM      5  O6  1Q4 d          14.906   0.361  -0.551  0.00  0.00    -0.266 OA
ATOM      6  C7  1Q4 d          14.808   2.631   0.070  0.00  0.00     0.140 A 
ATOM      7  C8  1Q4 d          15.479   3.686   0.730  0.00  0.00     0.045 A 
ATOM      8  C9  1Q4 d          14.853   4.960   0.752  0.00  0.00     0.138 A 
ATOM      9  N10 1Q4 d          13.676   5.091   0.153  0.00  0.00    -0.224 NA
ATOM     10  C11 1Q4 d          13.088   4.063  -0.440  0.00  0.00     0.236 A 
ATOM     11  N12 1Q4 d          13.627   2.874  -0.489  0.00  0.00    -0.235 NA
ATOM     12  H3  1Q4 d          17.093   0.257   0.612  0.00  0.00     0.168 HD
ENDROOT
BRANCH   8  13
ATOM     13  N13 1Q4 d          15.441   6.040   1.381  0.00  0.00    -0.369 N 
ATOM     14  H5  1Q4 d          16.325   5.918   1.896  0.00  0.00     0.161 HD
BRANCH  13  15
ATOM     15  C14 1Q4 d          14.807   7.357   1.315  0.00  0.00     0.083 C 
ATOM     16  C15 1Q4 d          13.992   7.556   2.593  0.00  0.00     0.025 C 
ATOM     17  C16 1Q4 d          13.506   9.009   2.705  0.00  0.00     0.002 C 
ATOM     18  C17 1Q4 d          14.700   9.975   2.676  0.00  0.00     0.000 C 
ATOM     19  C18 1Q4 d          15.334   9.840   1.291  0.00  0.00     0.002 C 
ATOM     20  C19 1Q4 d          15.908   8.418   1.183  0.00  0.00     0.025 C 
ENDBRANCH  13  15
ENDBRANCH   8  13
TORSDOF 2
