4fcf_ligand

Created by X-TOOL on Fri Sep 26 17:34:53 2014
 79 81  0  0  0  0  0  0  0  0999 V2000
   35.7500   25.2970    2.2420  C 0  0  0  2  0  4
   36.2950   24.6490    0.9940  C 0  0  0  2  0  4
   36.0170   23.1560    0.9360  C 0  0  0  2  0  4
   36.3770   22.4510    2.2240  C 0  0  0  2  0  4
   35.8360   23.1920    3.4420  C 0  0  0  2  0  4
   36.3300   22.5910    4.7570  C 0  0  0  3  0  4
   35.7180   25.3060   -0.1050  O 0  0  0  2  0  2
   36.7390   22.6180   -0.1800  O 0  0  0  2  0  2
   36.1910   24.5820    3.3940  O 0  0  0  1  0  2
   37.7640   22.5890    4.7500  O 0  0  0  2  0  2
   34.3250   25.2540    2.2030  O 0  0  0  1  0  2
   35.8450   21.1480    2.2500  O 0  0  0  2  0  2
   31.0590   27.6620    2.7180  C 0  0  0  2  0  4
   31.8770   27.9800    1.4810  C 0  0  0  2  0  4
   32.7680   26.7760    1.2120  C 0  0  0  2  0  4
   33.6300   26.4970    2.4350  C 0  0  0  2  0  4
   32.8120   26.3170    3.6940  C 0  0  0  2  0  4
   33.6510   26.2600    4.9310  C 0  0  0  3  0  4
   30.2850   28.7870    3.0290  O 0  0  0  1  0  2
   31.0360   28.2530    0.3720  O 0  0  0  2  0  2
   33.5890   27.0980    0.1200  O 0  0  0  2  0  2
   31.9700   27.4900    3.8280  O 0  0  0  1  0  2
   34.4730   27.4390    4.9560  O 0  0  0  2  0  2
   29.2930   28.4900    4.0560  C 0  0  0  3  0  4
   28.0020   28.2210    3.3690  C 0  0  0  3  0  4
   26.9230   27.7940    4.3630  C 0  0  0  3  0  4
   25.4980   28.1550    3.8540  C 0  0  0  3  0  4
   24.3470   27.4510    4.5190  C 0  0  0  3  0  4
   24.4270   27.3760    6.0360  C 0  0  0  3  0  4
   23.1180   27.0760    6.7280  C 0  0  0  2  0  4
   23.0700   28.0390    7.9400  C 0  0  0  3  0  4
   22.4570   27.5260    9.2370  C 0  0  0  3  0  4
   21.6140   26.3010    9.0040  C 0  0  0  3  0  4
   22.5180   25.2380    8.4390  C 0  0  0  3  0  4
   23.1190   25.5940    7.1140  C 0  0  0  3  0  4
   36.0931   26.3406    2.2975  H 0  0  0  1  0  1
   37.3851   24.7937    0.9685  H 0  0  0  1  0  1
   34.9408   23.0083    0.7627  H 0  0  0  1  0  1
   37.4733   22.3958    2.2947  H 0  0  0  1  0  1
   34.7390   23.1136    3.4221  H 0  0  0  1  0  1
   35.9587   21.5603    4.8558  H 0  0  0  1  0  1
   35.9646   23.1949    5.6007  H 0  0  0  1  0  1
   34.7781   25.1682   -0.0972  H 0  0  0  1  0  1
   36.4897   23.0822   -0.9705  H 0  0  0  1  0  1
   38.0804   23.4805    4.6625  H 0  0  0  1  0  1
   36.1660   20.6611    1.5001  H 0  0  0  1  0  1
   30.4346   26.7697    2.5634  H 0  0  0  1  0  1
   32.5038   28.8633    1.6731  H 0  0  0  1  0  1
   32.1547   25.8930    0.9793  H 0  0  0  1  0  1
   34.3456   27.3206    2.5749  H 0  0  0  1  0  1
   32.2049   25.4033    3.6129  H 0  0  0  1  0  1
   34.2852   25.3614    4.9125  H 0  0  0  1  0  1
   33.0051   26.2347    5.8210  H 0  0  0  1  0  1
   31.5704   28.4352   -0.3920  H 0  0  0  1  0  1
   34.1708   26.3696   -0.0630  H 0  0  0  1  0  1
   33.9184   28.2102    4.9675  H 0  0  0  1  0  1
   29.1854   29.3499    4.7335  H 0  0  0  1  0  1
   29.6027   27.6057    4.6322  H 0  0  0  1  0  1
   28.1487   27.4175    2.6322  H 0  0  0  1  0  1
   27.6729   29.1354    2.8537  H 0  0  0  1  0  1
   27.0991   28.3040    5.3216  H 0  0  0  1  0  1
   26.9841   26.7056    4.5100  H 0  0  0  1  0  1
   25.4576   27.9198    2.7802  H 0  0  0  1  0  1
   25.3561   29.2362    3.9981  H 0  0  0  1  0  1
   24.3045   26.4235    4.1287  H 0  0  0  1  0  1
   23.4219   27.9831    4.2524  H 0  0  0  1  0  1
   24.7956   28.3437    6.4070  H 0  0  0  1  0  1
   25.1432   26.5845    6.3017  H 0  0  0  1  0  1
   22.2660   27.2755    6.0615  H 0  0  0  1  0  1
   22.4925   28.9233    7.6326  H 0  0  0  1  0  1
   24.1053   28.3364    8.1627  H 0  0  0  1  0  1
   21.8266   28.3160    9.6710  H 0  0  0  1  0  1
   23.2655   27.2748    9.9393  H 0  0  0  1  0  1
   20.8082   26.5284    8.2905  H 0  0  0  1  0  1
   21.1771   25.9582    9.9535  H 0  0  0  1  0  1
   21.9328   24.3146    8.3170  H 0  0  0  1  0  1
   23.3353   25.0624    9.1540  H 0  0  0  1  0  1
   24.1649   25.2533    7.1213  H 0  0  0  1  0  1
   22.5610   25.0484    6.3388  H 0  0  0  1  0  1
  1  2  1  0  0  1
  1  9  1  0  0  1
 11  1  1  0  0  2
  2  3  1  0  0  1
  2  7  1  0  0  2
  3  4  1  0  0  1
  3  8  1  0  0  2
  5  4  1  0  0  1
  4 12  1  0  0  2
  5  6  1  0  0  2
  9  5  1  0  0  1
  6 10  1  0  0  2
 16 11  1  0  0  2
 14 13  1  0  0  1
 13 19  1  0  0  2
 13 22  1  0  0  1
 15 14  1  0  0  1
 14 20  1  0  0  2
 15 16  1  0  0  1
 15 21  1  0  0  2
 16 17  1  0  0  1
 17 18  1  0  0  2
 17 22  1  0  0  1
 18 23  1  0  0  2
 19 24  1  0  0  2
 24 25  1  0  0  2
 25 26  1  0  0  2
 26 27  1  0  0  2
 27 28  1  0  0  2
 28 29  1  0  0  2
 29 30  1  0  0  2
 30 31  1  0  0  1
 30 35  1  0  0  1
 31 32  1  0  0  1
 32 33  1  0  0  1
 33 34  1  0  0  1
 34 35  1  0  0  1
  1 36  1  0  0  2
  2 37  1  0  0  2
  3 38  1  0  0  2
  4 39  1  0  0  2
  5 40  1  0  0  2
  6 41  1  0  0  2
  6 42  1  0  0  2
  7 43  1  0  0  2
  8 44  1  0  0  2
 10 45  1  0  0  2
 12 46  1  0  0  2
 13 47  1  0  0  2
 14 48  1  0  0  2
 15 49  1  0  0  2
 16 50  1  0  0  2
 17 51  1  0  0  2
 18 52  1  0  0  2
 18 53  1  0  0  2
 20 54  1  0  0  2
 21 55  1  0  0  2
 23 56  1  0  0  2
 24 57  1  0  0  2
 24 58  1  0  0  2
 25 59  1  0  0  2
 25 60  1  0  0  2
 26 61  1  0  0  2
 26 62  1  0  0  2
 27 63  1  0  0  2
 27 64  1  0  0  2
 28 65  1  0  0  2
 28 66  1  0  0  2
 29 67  1  0  0  2
 29 68  1  0  0  2
 30 69  1  0  0  2
 31 70  1  0  0  2
 31 71  1  0  0  2
 32 72  1  0  0  2
 32 73  1  0  0  2
 33 74  1  0  0  2
 33 75  1  0  0  2
 34 76  1  0  0  2
 34 77  1  0  0  2
 35 78  1  0  0  2
 35 79  1  0  0  2
M  END
> <MOLECULAR_FORMULA>
C24H44O11

> <MOLECULAR_WEIGHT>
508.2

> <NUM_HB_ATOMS>
11 

> <NUM_ROTOR>
12 

> <XLOGP2>
1.42 

$$$$
