REMARK  0 active torsions:
REMARK  status: ('A' for Active; 'I' for Inactive)
ROOT
ATOM      1  C1  OXE d          27.214   7.465   4.489  0.00  0.00    -0.056 A 
ATOM      2  C2  OXE d          27.575   6.946   3.269  0.00  0.00    -0.056 A 
ATOM      3  C3  OXE d          27.252   5.628   2.958  0.00  0.00     0.007 A 
ATOM      4  C4  OXE d          26.432   4.879   3.810  0.00  0.00     0.001 A 
ATOM      5  C5  OXE d          26.019   5.403   5.040  0.00  0.00     0.001 A 
ATOM      6  C6  OXE d          26.436   6.676   5.413  0.00  0.00     0.007 A 
ATOM      7  C1' OXE d          27.643   8.878   4.796  0.00  0.00     0.049 C 
ATOM      8  C2' OXE d          28.453   7.766   2.349  0.00  0.00     0.049 C 
ENDROOT
TORSDOF 0
