REMARK  9 active torsions:
REMARK  status: ('A' for Active; 'I' for Inactive)
REMARK    1  A    between atoms: C1_1  and  C2_2 
REMARK    2  A    between atoms: C4_4  and  O4_15 
REMARK    3  A    between atoms: C5_5  and  N5_12 
REMARK    4  A    between atoms: C6_6  and  C7_7 
REMARK    5  A    between atoms: C7_7  and  O7_17 
REMARK    6  A    between atoms: C7_7  and  C8_8 
REMARK    7  A    between atoms: C8_8  and  O8_18 
REMARK    8  A    between atoms: C8_8  and  C9_9 
REMARK    9  A    between atoms: C9_9  and  O9_19 
REMARK       I    between atoms: N5_12  and  C10_10 
ROOT
ATOM      1  C2  DAN d          24.248  18.704  64.104  0.00  0.00     0.144 C 
ATOM      2  C3  DAN d          23.593  17.584  63.650  0.00  0.00     0.050 C 
ATOM      3  C4  DAN d          24.269  16.616  62.675  0.00  0.00     0.169 C 
ATOM      4  C5  DAN d          25.849  16.735  62.785  0.00  0.00     0.149 C 
ATOM      5  C6  DAN d          26.232  18.204  62.721  0.00  0.00     0.186 C 
ATOM      6  O6  DAN d          25.637  18.868  63.812  0.00  0.00    -0.335 OA
ENDROOT
BRANCH   5   7
ATOM      7  C7  DAN d          27.760  18.413  62.816  0.00  0.00     0.180 C 
BRANCH   7   8
ATOM      8  O7  DAN d          28.169  17.914  64.097  0.00  0.00    -0.390 OA
ATOM      9  H14 DAN d          27.719  18.396  64.781  0.00  0.00     0.210 HD
ENDBRANCH   7   8
BRANCH   7  10
ATOM     10  C8  DAN d          28.160  19.892  62.731  0.00  0.00     0.173 C 
BRANCH  10  11
ATOM     11  O8  DAN d          27.835  20.249  61.453  0.00  0.00    -0.391 OA
ATOM     12  H15 DAN d          28.323  19.710  60.841  0.00  0.00     0.210 HD
ENDBRANCH  10  11
BRANCH  10  13
ATOM     13  C9  DAN d          29.691  20.165  62.968  0.00  0.00     0.198 C 
BRANCH  13  14
ATOM     14  O9  DAN d          30.391  19.429  61.994  0.00  0.00    -0.398 OA
ATOM     15  H16 DAN d          30.126  19.719  61.129  0.00  0.00     0.209 HD
ENDBRANCH  13  14
ENDBRANCH  10  13
ENDBRANCH   7  10
ENDBRANCH   5   7
BRANCH   4  16
ATOM     16  N5  DAN d          26.371  16.014  61.596  0.00  0.00    -0.351 N 
ATOM     17  C10 DAN d          27.116  14.918  61.687  0.00  0.00     0.214 C 
ATOM     18  O10 DAN d          27.525  14.491  62.770  0.00  0.00    -0.274 OA
ATOM     19  C11 DAN d          27.565  14.204  60.400  0.00  0.00     0.117 C 
ATOM     20  H12 DAN d          26.152  16.369  60.687  0.00  0.00     0.163 HD
ENDBRANCH   4  16
BRANCH   3  21
ATOM     21  O4  DAN d          23.821  15.341  63.024  0.00  0.00    -0.389 OA
ATOM     22  H13 DAN d          24.214  14.699  62.445  0.00  0.00     0.210 HD
ENDBRANCH   3  21
BRANCH   1  23
ATOM     23  C1  DAN d          23.577  19.704  64.856  0.00  0.00     0.233 C 
ATOM     24  O1B DAN d          22.378  19.599  65.209  0.00  0.00    -0.642 OA
ATOM     25  O1A DAN d          24.261  20.692  65.185  0.00  0.00    -0.642 OA
ENDBRANCH   1  23
TORSDOF 9
