REMARK  16 active torsions:
REMARK  status: ('A' for Active; 'I' for Inactive)
REMARK    1  A    between atoms: N5_2  and  C11_4 
REMARK    2  A    between atoms: C2_13  and  S1_14 
REMARK    3  A    between atoms: S1_14  and  N4_17 
REMARK    4  A    between atoms: N4_17  and  C1_18 
REMARK    5  A    between atoms: C1_18  and  C9_19 
REMARK    6  A    between atoms: C9_19  and  O2_20 
REMARK    7  A    between atoms: O2_20  and  P2_21 
REMARK    8  A    between atoms: P2_21  and  O8_24 
REMARK    9  A    between atoms: O8_24  and  P1_25 
REMARK   10  A    between atoms: P1_25  and  O5_28 
REMARK   11  A    between atoms: O5_28  and  C14_29 
REMARK   12  A    between atoms: C14_29  and  C8_30 
REMARK   13  A    between atoms: C7_32  and  O4_33 
REMARK   14  A    between atoms: C6_34  and  O3_35 
REMARK   15  A    between atoms: C5_36  and  N3_37 
REMARK   16  A    between atoms: C2_40  and  N2_41 
ROOT
ATOM      1  O8  MOL d           7.372  13.206  28.957  0.00  0.00    -0.180 OA
ENDROOT
BRANCH   1   2
ATOM      2  P2  MOL d           7.650  14.793  29.297  0.00  0.00     0.417 P 
ATOM      3  O1  MOL d           6.750  15.635  28.465  0.00  0.00    -0.624 OA
ATOM      4  O9  MOL d           9.118  15.023  29.231  0.00  0.00    -0.624 OA
BRANCH   2   5
ATOM      5  O2  MOL d           7.155  14.874  30.837  0.00  0.00    -0.288 OA
BRANCH   5   6
ATOM      6  C9  MOL d           5.990  15.631  31.172  0.00  0.00     0.201 C 
BRANCH   6   7
ATOM      7  C1  MOL d           6.382  16.848  32.010  0.00  0.00     0.159 C 
BRANCH   7   8
ATOM      8  N4  MOL d           6.117  16.578  33.434  0.00  0.00    -0.313 N 
ATOM      9  H13 MOL d           6.830  16.356  34.099  0.00  0.00     0.172 HD
BRANCH   8  10
ATOM     10  S1  MOL d           4.509  16.682  33.812  0.00  0.00     0.259 S 
ATOM     11  O3  MOL d           3.925  15.293  33.797  0.00  0.00    -0.201 OA
ATOM     12  O4  MOL d           3.801  17.515  32.784  0.00  0.00    -0.201 OA
BRANCH  10  13
ATOM     13  C2  MOL d           4.331  17.345  35.356  0.00  0.00     0.090 A 
ATOM     14  C7  MOL d           3.921  18.677  35.589  0.00  0.00    -0.000 A 
ATOM     15  C8  MOL d           3.635  19.539  34.525  0.00  0.00     0.014 A 
ATOM     16  C6  MOL d           3.793  19.161  36.908  0.00  0.00     0.002 A 
ATOM     17  C9  MOL d           3.231  20.852  34.752  0.00  0.00     0.003 A 
ATOM     18  C10 MOL d           3.106  21.323  36.056  0.00  0.00     0.030 A 
ATOM     19  C11 MOL d           3.387  20.491  37.142  0.00  0.00     0.040 A 
ATOM     20  C5  MOL d           4.076  18.305  37.980  0.00  0.00     0.014 A 
ATOM     21  C4  MOL d           4.479  16.991  37.753  0.00  0.00     0.003 A 
ATOM     22  C3  MOL d           4.607  16.517  36.449  0.00  0.00     0.026 A 
BRANCH  19  23
ATOM     23  N5  MOL d           3.250  20.992  38.381  0.00  0.00    -0.389 N 
ATOM     24  C13 MOL d           2.043  21.152  38.901  0.00  0.00     0.149 C 
ATOM     25  C12 MOL d           4.310  21.339  39.095  0.00  0.00     0.149 C 
ENDBRANCH  19  23
ENDBRANCH  10  13
ENDBRANCH   8  10
ENDBRANCH   7   8
ENDBRANCH   6   7
ENDBRANCH   5   6
ENDBRANCH   2   5
ENDBRANCH   1   2
BRANCH   1  26
ATOM     26  P1  MOL d           8.508  12.042  28.841  0.00  0.00     0.417 P 
ATOM     27  O7  MOL d           7.800  10.744  28.852  0.00  0.00    -0.624 OA
ATOM     28  O6  MOL d           9.452  12.328  27.747  0.00  0.00    -0.624 OA
BRANCH  26  29
ATOM     29  O5  MOL d           9.316  12.181  30.221  0.00  0.00    -0.287 OA
BRANCH  29  30
ATOM     30  C14 MOL d           8.929  11.429  31.392  0.00  0.00     0.216 C 
BRANCH  30  31
ATOM     31  C8  MOL d          10.137  11.005  32.233  0.00  0.00     0.180 C 
ATOM     32  O2  MOL d          10.452   9.641  31.915  0.00  0.00    -0.353 OA
ATOM     33  C5  MOL d          11.880   9.476  32.022  0.00  0.00     0.264 C 
ATOM     34  C6  MOL d          12.508  10.868  32.144  0.00  0.00     0.198 C 
ATOM     35  C7  MOL d          11.367  11.810  31.823  0.00  0.00     0.182 C 
BRANCH  33  36
ATOM     36  N3  MOL d          12.291   8.707  30.818  0.00  0.00    -0.278 N 
ATOM     37  C4  MOL d          11.923   9.082  29.507  0.00  0.00     0.102 A 
ATOM     38  C3  MOL d          12.347   8.288  28.443  0.00  0.00     0.067 A 
ATOM     39  C2  MOL d          13.107   7.148  28.698  0.00  0.00     0.128 A 
ATOM     40  N1  MOL d          13.436   6.809  29.950  0.00  0.00    -0.177 NA
ATOM     41  C1  MOL d          13.057   7.551  30.998  0.00  0.00     0.352 A 
ATOM     42  O1  MOL d          13.388   7.208  32.125  0.00  0.00    -0.244 OA
BRANCH  39  43
ATOM     43  N2  MOL d          13.523   6.373  27.700  0.00  0.00    -0.384 N 
ATOM     44  H28 MOL d          14.084   5.533  27.900  0.00  0.00     0.157 HD
ATOM     45  H29 MOL d          13.284   6.613  26.727  0.00  0.00     0.157 HD
ENDBRANCH  39  43
ENDBRANCH  33  36
BRANCH  34  46
ATOM     46  O3  MOL d          12.912  11.064  33.493  0.00  0.00    -0.388 OA
ATOM     47  H24 MOL d          13.198  11.963  33.609  0.00  0.00     0.210 HD
ENDBRANCH  34  46
BRANCH  35  48
ATOM     48  O4  MOL d          11.450  12.979  32.634  0.00  0.00    -0.390 OA
ATOM     49  H22 MOL d          11.523  12.725  33.547  0.00  0.00     0.210 HD
ENDBRANCH  35  48
ENDBRANCH  30  31
ENDBRANCH  29  30
ENDBRANCH  26  29
ENDBRANCH   1  26
TORSDOF 16
