REMARK  5 active torsions:
REMARK  status: ('A' for Active; 'I' for Inactive)
REMARK    1  A    between atoms: N_1  and  CA_2 
REMARK    2  A    between atoms: CA_2  and  C_3 
REMARK    3  A    between atoms: CA_2  and  CB_5 
REMARK    4  A    between atoms: CB_5  and  CG_6 
REMARK    5  A    between atoms: CG_6  and  CD_7 
ROOT
ATOM      1  CA  GLU d         -10.161   1.140 -23.370  0.00  0.00     0.283 C 
ENDROOT
BRANCH   1   2
ATOM      2  N   GLU d         -11.479   0.712 -22.902  0.00  0.00    -0.065 N 
ATOM      3  H1  GLU d         -11.731  -0.154 -23.353  0.00  0.00     0.275 HD
ATOM      4  H2  GLU d         -12.161   1.419 -23.127  0.00  0.00     0.275 HD
ATOM      5  H3  GLU d         -11.453   0.576 -21.904  0.00  0.00     0.275 HD
ENDBRANCH   1   2
BRANCH   1   6
ATOM      6  C   GLU d          -9.738   2.449 -22.713  0.00  0.00     0.204 C 
ATOM      7  O   GLU d         -10.319   2.857 -21.703  0.00  0.00    -0.646 OA
ATOM      8  OXT GLU d          -8.813   3.120 -23.173  0.00  0.00    -0.646 OA
ENDBRANCH   1   6
BRANCH   1   9
ATOM      9  CB  GLU d         -10.141   1.265 -24.898  0.00  0.00     0.054 C 
BRANCH   9  10
ATOM     10  CG  GLU d         -10.110  -0.080 -25.621  0.00  0.00     0.116 C 
BRANCH  10  11
ATOM     11  CD  GLU d          -8.799  -0.832 -25.417  0.00  0.00     0.172 C 
ATOM     12  OE1 GLU d          -7.776  -0.175 -25.148  0.00  0.00    -0.648 OA
ATOM     13  OE2 GLU d          -8.789  -2.079 -25.532  0.00  0.00    -0.648 OA
ENDBRANCH  10  11
ENDBRANCH   9  10
ENDBRANCH   1   9
TORSDOF 5
