REMARK  12 active torsions:
REMARK  status: ('A' for Active; 'I' for Inactive)
REMARK    1  A    between atoms: C2_2  and  C3_3 
REMARK    2  A    between atoms: C3_3  and  N4_4 
REMARK       I    between atoms: N4_4  and  C5_5 
REMARK    3  A    between atoms: C5_5  and  C7_7 
REMARK    4  A    between atoms: C7_7  and  N8_8 
REMARK    5  A    between atoms: N8_8  and  C9_9 
REMARK    6  A    between atoms: C9_9  and  C11_10 
REMARK    7  A    between atoms: C9_9  and  C17_16 
REMARK       I    between atoms: C17_16  and  N19_18 
REMARK    8  A    between atoms: C22_21  and  C24_22 
REMARK       I    between atoms: C24_22  and  N26_24 
REMARK    9  A    between atoms: N26_24  and  C27_25 
REMARK   10  A    between atoms: C27_25  and  C28_26 
REMARK   11  A    between atoms: C31_29  and  C34_32 
REMARK   12  A    between atoms: C34_32  and  N36_34 
ROOT
ATOM      1  C17 M67 d          18.016 -13.318  22.241  0.00  0.00     0.251 C 
ATOM      2  O18 M67 d          16.941 -12.767  22.486  0.00  0.00    -0.271 OA
ATOM      3  N19 M67 d          18.832 -12.766  21.319  0.00  0.00    -0.337 N 
ATOM      4  C20 M67 d          20.109 -13.061  20.639  0.00  0.00     0.129 C 
ATOM      5  C21 M67 d          19.798 -12.024  19.553  0.00  0.00     0.055 C 
ATOM      6  C22 M67 d          18.635 -11.593  20.460  0.00  0.00     0.180 C 
ENDROOT
BRANCH   1   7
ATOM      7  C9  M67 d          18.343 -14.614  22.931  0.00  0.00     0.281 C 
BRANCH   7   8
ATOM      8  N8  M67 d          17.091 -15.408  22.977  0.00  0.00    -0.054 N 
ATOM      9  H11 M67 d          17.288 -16.277  23.449  0.00  0.00     0.278 HD
ATOM     10  H12 M67 d          16.408 -14.886  23.504  0.00  0.00     0.278 HD
BRANCH   8  11
ATOM     11  C7  M67 d          16.508 -15.725  21.652  0.00  0.00     0.335 C 
BRANCH  11  12
ATOM     12  C5  M67 d          15.083 -16.207  21.767  0.00  0.00     0.243 C 
ATOM     13  N4  M67 d          14.457 -16.526  20.616  0.00  0.00    -0.360 N 
ATOM     14  H8  M67 d          14.962 -16.424  19.759  0.00  0.00     0.162 HD
ATOM     15  O6  M67 d          14.520 -16.322  22.849  0.00  0.00    -0.272 OA
BRANCH  13  16
ATOM     16  C3  M67 d          13.071 -17.016  20.552  0.00  0.00     0.122 C 
BRANCH  16  17
ATOM     17  C2  M67 d          12.087 -15.845  20.653  0.00  0.00     0.015 C 
ATOM     18  C1  M67 d          12.202 -14.935  19.428  0.00  0.00     0.006 C 
ENDBRANCH  16  17
ENDBRANCH  13  16
ENDBRANCH  11  12
ENDBRANCH   8  11
ENDBRANCH   7   8
BRANCH   7  19
ATOM     19  C11 M67 d          18.873 -14.334  24.352  0.00  0.00     0.026 C 
ATOM     20  C12 M67 d          19.114 -15.662  25.091  0.00  0.00     0.007 C 
ATOM     21  C13 M67 d          19.646 -15.387  26.506  0.00  0.00     0.000 C 
ATOM     22  C14 M67 d          20.969 -14.608  26.445  0.00  0.00     0.000 C 
ATOM     23  C15 M67 d          20.781 -13.276  25.705  0.00  0.00     0.000 C 
ATOM     24  C16 M67 d          20.191 -13.527  24.303  0.00  0.00     0.007 C 
ENDBRANCH   7  19
ENDBRANCH   1   7
BRANCH   6  25
ATOM     25  C24 M67 d          17.247 -11.740  19.872  0.00  0.00     0.240 C 
ATOM     26  O25 M67 d          16.937 -12.803  19.372  0.00  0.00    -0.271 OA
ATOM     27  N26 M67 d          16.319 -10.778  20.026  0.00  0.00    -0.355 N 
ATOM     28  H30 M67 d          16.538  -9.928  20.504  0.00  0.00     0.162 HD
BRANCH  27  29
ATOM     29  C27 M67 d          14.978 -11.006  19.476  0.00  0.00     0.161 C 
BRANCH  29  30
ATOM     30  C28 M67 d          13.998 -10.942  20.611  0.00  0.00    -0.040 A 
ATOM     31  C29 M67 d          13.717 -12.086  21.340  0.00  0.00     0.010 A 
ATOM     32  C30 M67 d          12.814 -12.021  22.388  0.00  0.00     0.016 A 
ATOM     33  C31 M67 d          12.207 -10.795  22.717  0.00  0.00     0.007 A 
ATOM     34  C32 M67 d          12.493  -9.641  21.970  0.00  0.00     0.016 A 
ATOM     35  C33 M67 d          13.411  -9.724  20.935  0.00  0.00     0.010 A 
BRANCH  33  36
ATOM     36  C34 M67 d          11.207 -10.741  23.814  0.00  0.00     0.102 C 
ATOM     37  N35 M67 d          10.516 -11.810  24.138  0.00  0.00    -0.385 N 
ATOM     38  H37 M67 d           9.824 -11.765  24.900  0.00  0.00     0.157 HD
ATOM     39  H38 M67 d          10.666 -12.694  23.630  0.00  0.00     0.157 HD
BRANCH  36  40
ATOM     40  N36 M67 d          10.946  -9.554  24.455  0.00  0.00    -0.385 N 
ATOM     41  H39 M67 d          11.481  -8.708  24.210  0.00  0.00     0.157 HD
ATOM     42  H40 M67 d          10.216  -9.510  25.180  0.00  0.00     0.157 HD
ENDBRANCH  36  40
ENDBRANCH  33  36
ENDBRANCH  29  30
ENDBRANCH  27  29
ENDBRANCH   6  25
TORSDOF 12
