REMARK  4 active torsions:
REMARK  status: ('A' for Active; 'I' for Inactive)
REMARK    1  A    between atoms: C9_2  and  C8_4 
REMARK       I    between atoms: N_8  and  C4_9 
REMARK    2  A    between atoms: C4_9  and  C2_11 
REMARK    3  A    between atoms: C2_11  and  C1_13 
REMARK    4  A    between atoms: C1_13  and  S_14 
ROOT
ATOM      1  C8  MCO d          11.580  27.556  34.539  0.00  0.00     0.188 A 
ATOM      2  C7  MCO d          10.117  27.499  34.954  0.00  0.00     0.038 A 
ATOM      3  C6  MCO d           9.265  28.203  33.929  0.00  0.00     0.022 A 
ATOM      4  C5  MCO d          10.211  28.578  32.802  0.00  0.00     0.127 A 
ATOM      5  N   MCO d          11.546  28.173  33.187  0.00  0.00    -0.337 N 
ATOM      6  C4  MCO d          12.647  28.338  32.413  0.00  0.00     0.225 C 
ATOM      7  O1  MCO d          13.763  27.965  32.767  0.00  0.00    -0.273 OA
ENDROOT
BRANCH   1   8
ATOM      8  C9  MCO d          12.255  28.395  35.599  0.00  0.00     0.196 C 
ATOM      9  O2  MCO d          12.461  27.884  36.735  0.00  0.00    -0.646 OA
ATOM     10  O3  MCO d          12.465  29.610  35.368  0.00  0.00    -0.646 OA
ENDBRANCH   1   8
BRANCH   6  11
ATOM     11  C2  MCO d          12.553  28.989  31.043  0.00  0.00     0.083 C 
ATOM     12  C3  MCO d          13.174  28.045  29.999  0.00  0.00     0.020 C 
BRANCH  11  13
ATOM     13  C1  MCO d          13.279  30.331  31.005  0.00  0.00     0.084 C 
BRANCH  13  14
ATOM     14  S   MCO d          12.573  31.572  32.116  0.00  0.00    -0.181 SA
ATOM     15  H14 MCO d          13.099  32.428  32.039  0.00  0.00     0.101 HD
ENDBRANCH  13  14
ENDBRANCH  11  13
ENDBRANCH   6  11
TORSDOF 4
