REMARK  6 active torsions:
REMARK  status: ('A' for Active; 'I' for Inactive)
REMARK    1  A    between atoms: O1_1  and  C1_2 
REMARK    2  A    between atoms: C1_2  and  C2_3 
REMARK    3  A    between atoms: C2_3  and  O2_4 
REMARK    4  A    between atoms: C2_3  and  C3_5 
REMARK    5  A    between atoms: C3_5  and  O1P_6 
REMARK    6  A    between atoms: O1P_6  and  P_10 
ROOT
ATOM      1  C2  G3P d          42.980  24.770 178.874  0.00  0.00     0.166 C 
ENDROOT
BRANCH   1   2
ATOM      2  C1  G3P d          44.461  25.003 178.972  0.00  0.00     0.198 C 
BRANCH   2   3
ATOM      3  O1  G3P d          44.884  26.318 179.196  0.00  0.00    -0.398 OA
ATOM      4  H1  G3P d          45.833  26.341 179.239  0.00  0.00     0.209 HD
ENDBRANCH   2   3
ENDBRANCH   1   2
BRANCH   1   5
ATOM      5  O2  G3P d          42.473  25.415 177.750  0.00  0.00    -0.391 OA
ATOM      6  H5  G3P d          42.897  25.073 176.972  0.00  0.00     0.210 HD
ENDBRANCH   1   5
BRANCH   1   7
ATOM      7  C3  G3P d          42.681  23.303 178.721  0.00  0.00     0.216 C 
BRANCH   7   8
ATOM      8  O1P G3P d          43.301  22.664 177.638  0.00  0.00    -0.280 OA
BRANCH   8   9
ATOM      9  P   G3P d          42.750  21.312 177.101  0.00  0.00     0.422 P 
ATOM     10  O4P G3P d          42.629  20.352 178.257  0.00  0.00    -0.617 OA
ATOM     11  O2P G3P d          43.783  20.774 176.120  0.00  0.00    -0.617 OA
ATOM     12  O3P G3P d          41.405  21.521 176.443  0.00  0.00    -0.617 OA
ENDBRANCH   8   9
ENDBRANCH   7   8
ENDBRANCH   1   7
TORSDOF 6
