REMARK  8 active torsions:
REMARK  status: ('A' for Active; 'I' for Inactive)
REMARK    1  A    between atoms: CBB_2  and  CBC_4 
REMARK    2  A    between atoms: CBC_4  and  NBD_5 
REMARK    3  A    between atoms: CBC_4  and  CAO_8 
REMARK    4  A    between atoms: CAO_8  and  NBE_9 
REMARK    5  A    between atoms: C6_15  and  NAF_16 
REMARK    6  A    between atoms: CAW_18  and  CAU_19 
REMARK    7  A    between atoms: CAT_28  and  OAS_29 
REMARK    8  A    between atoms: OAS_29  and  CAN_30 
ROOT
ATOM      1  NBE UW9 d          17.554  15.457  63.168  0.00  0.00    -0.249 N 
ATOM      2  NAR UW9 d          16.397  15.835  63.400  0.00  0.00    -0.169 NA
ATOM      3  C4  UW9 d          17.653  14.139  63.127  0.00  0.00     0.164 A 
ATOM      4  N3  UW9 d          18.693  13.318  62.903  0.00  0.00    -0.222 NA
ATOM      5  C2  UW9 d          18.500  12.015  62.943  0.00  0.00     0.237 A 
ATOM      6  N1  UW9 d          17.291  11.489  63.174  0.00  0.00    -0.224 NA
ATOM      7  C6  UW9 d          16.216  12.258  63.398  0.00  0.00     0.139 A 
ATOM      8  C5  UW9 d          16.375  13.647  63.383  0.00  0.00     0.088 A 
ATOM      9  CAW UW9 d          15.588  14.796  63.559  0.00  0.00     0.105 A 
ENDROOT
BRANCH   9  10
ATOM     10  CAU UW9 d          14.230  14.841  63.852  0.00  0.00    -0.004 A 
ATOM     11  CAM UW9 d          13.711  14.178  64.964  0.00  0.00     0.026 A 
ATOM     12  CAY UW9 d          12.350  14.248  65.268  0.00  0.00    -0.025 A 
ATOM     13  CAX UW9 d          11.487  14.970  64.439  0.00  0.00    -0.023 A 
ATOM     14  CAI UW9 d          11.838  13.580  66.364  0.00  0.00     0.015 A 
ATOM     15  CAJ UW9 d          12.004  15.647  63.352  0.00  0.00     0.013 A 
ATOM     16  CAL UW9 d          10.144  15.036  64.714  0.00  0.00     0.049 A 
ATOM     17  CAH UW9 d          13.369  15.582  63.064  0.00  0.00     0.015 A 
ATOM     18  CAT UW9 d           9.626  14.355  65.813  0.00  0.00     0.069 A 
ATOM     19  CAG UW9 d          10.487  13.634  66.638  0.00  0.00     0.037 A 
BRANCH  18  20
ATOM     20  OAS UW9 d           8.277  14.380  66.100  0.00  0.00    -0.351 OA
BRANCH  20  21
ATOM     21  CAN UW9 d           7.509  15.010  65.053  0.00  0.00     0.171 C 
ATOM     22  CAA UW9 d           6.044  14.559  65.276  0.00  0.00     0.034 C 
ENDBRANCH  20  21
ENDBRANCH  18  20
ENDBRANCH   9  10
BRANCH   1  23
ATOM     23  CAO UW9 d          18.704  16.358  62.947  0.00  0.00     0.186 C 
BRANCH  23  24
ATOM     24  CBC UW9 d          18.575  17.138  61.610  0.00  0.00     0.210 C 
BRANCH  24  25
ATOM     25  CBB UW9 d          19.703  16.774  60.630  0.00  0.00     0.010 C 
ATOM     26  CAB UW9 d          21.111  16.965  61.217  0.00  0.00     0.011 C 
ATOM     27  CAC UW9 d          19.511  15.340  60.129  0.00  0.00     0.011 C 
ENDBRANCH  24  25
BRANCH  24  28
ATOM     28  NBD UW9 d          18.460  18.610  61.795  0.00  0.00    -0.073 N 
ATOM     29  CAD UW9 d          19.437  19.139  62.762  0.00  0.00     0.269 C 
ATOM     30  CAE UW9 d          17.109  18.944  62.265  0.00  0.00     0.269 C 
ATOM     31  H9  UW9 d          18.619  19.054  60.904  0.00  0.00     0.279 HD
ENDBRANCH  24  28
ENDBRANCH  23  24
ENDBRANCH   1  23
BRANCH   7  32
ATOM     32  NAF UW9 d          15.051  11.661  63.628  0.00  0.00    -0.383 N 
ATOM     33  H19 UW9 d          14.208  12.227  63.803  0.00  0.00     0.157 HD
ATOM     34  H20 UW9 d          14.991  10.633  63.631  0.00  0.00     0.157 HD
ENDBRANCH   7  32
TORSDOF 8
