REMARK  3 active torsions:
REMARK  status: ('A' for Active; 'I' for Inactive)
REMARK    1  A    between atoms: C02_2  and  C03_3 
REMARK    2  A    between atoms: C02_2  and  C06_6 
REMARK    3  A    between atoms: C06_6  and  C07_7 
ROOT
ATOM      1  C07 WJ2 d          -9.155 -32.417  16.893  0.00  0.00    -0.056 A 
ATOM      2  C08 WJ2 d          -8.350 -32.715  17.981  0.00  0.00     0.007 A 
ATOM      3  C09 WJ2 d          -8.746 -32.401  19.274  0.00  0.00     0.001 A 
ATOM      4  C10 WJ2 d          -9.960 -31.769  19.481  0.00  0.00     0.000 A 
ATOM      5  C11 WJ2 d         -10.767 -31.470  18.393  0.00  0.00     0.001 A 
ATOM      6  C12 WJ2 d         -10.368 -31.787  17.100  0.00  0.00     0.007 A 
ENDROOT
BRANCH   1   7
ATOM      7  C06 WJ2 d          -8.711 -32.754  15.502  0.00  0.00     0.069 C 
BRANCH   7   8
ATOM      8  C02 WJ2 d          -8.787 -31.647  14.494  0.00  0.00     0.187 C 
ATOM      9 CL1  WJ2 d          -8.011 -30.220  15.079  0.00  0.00    -0.113 Cl
BRANCH   8  10
ATOM     10  C03 WJ2 d          -8.137 -32.014  13.204  0.00  0.00     0.192 C 
ATOM     11  O04 WJ2 d          -7.124 -32.759  13.216  0.00  0.00    -0.647 OA
ATOM     12  O05 WJ2 d          -8.618 -31.570  12.116  0.00  0.00    -0.647 OA
ENDBRANCH   8  10
ENDBRANCH   7   8
ENDBRANCH   1   7
TORSDOF 3
