3s3v_ligand

Created by X-TOOL on Fri Sep 26 17:34:51 2014
 39 40  0  0  0  0  0  0  0  0999 V2000
   16.4120    5.4590    2.7790  C 0  0  0  2  0  3
   16.8690    5.9450    3.9240  N 0  0  0  1  0  2
   17.7980    7.0010    3.9810  C 0  0  0  1  0  3
   18.1990    7.4510    5.2160  N 0  0  0  3  0  3
   18.3110    7.4730    2.8510  N 0  0  0  1  0  2
   17.9410    6.9990    1.6570  C 0  0  0  1  0  3
   18.4700    7.5740    0.5670  N 0  0  0  3  0  3
   16.9160    5.9390    1.5660  C 0  0  0  1  0  3
   16.3050    5.3940    0.3060  C 0  0  0  3  0  4
   15.1070    6.2160   -0.2030  C 0  0  0  1  0  3
   13.8970    6.2670    0.5090  C 0  0  0  2  0  3
   12.8190    7.0650    0.0010  C 0  0  0  1  0  3
   11.5820    7.1870    0.5260  O 0  0  0  1  0  2
   11.4560    6.5320    1.8190  C 0  0  0  4  0  4
   12.8990    7.6560   -1.3040  C 0  0  0  1  0  3
   11.7470    8.3270   -1.7410  O 0  0  0  1  0  2
   11.0300    7.5350   -2.7570  C 0  0  0  4  0  4
   14.1150    7.5150   -2.0070  C 0  0  0  1  0  3
   14.0980    8.2110   -3.2170  O 0  0  0  1  0  2
   15.3160    8.0590   -3.9210  C 0  0  0  4  0  4
   15.2650    6.8440   -1.4940  C 0  0  0  2  0  3
   15.6481    4.6899    2.7826  H 0  0  0  1  0  1
   17.7760    7.0588    6.0693  H 0  0  0  1  0  1
   18.9226    8.1805    5.2883  H 0  0  0  1  0  1
   18.2097    7.2369   -0.3708  H 0  0  0  1  0  1
   19.1366    8.3527    0.6677  H 0  0  0  1  0  1
   15.9641    4.3665    0.5009  H 0  0  0  1  0  1
   17.0767    5.3819   -0.4778  H 0  0  0  1  0  1
   13.7795    5.7098    1.4314  H 0  0  0  1  0  1
   10.4317    6.6630    2.1981  H 0  0  0  1  0  1
   12.1691    6.9788    2.5274  H 0  0  0  1  0  1
   11.6718    5.4590    1.7091  H 0  0  0  1  0  1
   10.1328    8.0820   -3.0823  H 0  0  0  1  0  1
   10.7333    6.5676   -2.3256  H 0  0  0  1  0  1
   11.6889    7.3645   -3.6212  H 0  0  0  1  0  1
   15.2656    8.6195   -4.8661  H 0  0  0  1  0  1
   15.4852    6.9934   -4.1352  H 0  0  0  1  0  1
   16.1440    8.4460   -3.3090  H 0  0  0  1  0  1
   16.2007    6.8078   -2.0402  H 0  0  0  1  0  1
  1  2  4  0  0  1
  1  8  4  0  0  1
  2  3  4  0  0  1
  3  4  1  0  0  2
  3  5  4  0  0  1
  5  6  4  0  0  1
  6  7  1  0  0  2
  6  8  4  0  0  1
  8  9  1  0  0  2
  9 10  1  0  0  2
 10 11  4  0  0  1
 10 21  4  0  0  1
 11 12  4  0  0  1
 12 13  1  0  0  2
 12 15  4  0  0  1
 13 14  1  0  0  2
 15 16  1  0  0  2
 15 18  4  0  0  1
 16 17  1  0  0  2
 18 19  1  0  0  2
 18 21  4  0  0  1
 19 20  1  0  0  2
  1 22  1  0  0  2
  4 23  1  0  0  2
  4 24  1  0  0  2
  7 25  1  0  0  2
  7 26  1  0  0  2
  9 27  1  0  0  2
  9 28  1  0  0  2
 11 29  1  0  0  2
 14 30  1  0  0  2
 14 31  1  0  0  2
 14 32  1  0  0  2
 17 33  1  0  0  2
 17 34  1  0  0  2
 17 35  1  0  0  2
 20 36  1  0  0  2
 20 37  1  0  0  2
 20 38  1  0  0  2
 21 39  1  0  0  2
M  END
> <MOLECULAR_FORMULA>
C14H18N4O3

> <MOLECULAR_WEIGHT>
290.2

> <NUM_HB_ATOMS>
7  

> <NUM_ROTOR>
5  

> <XLOGP2>
0.78 

$$$$
