REMARK  12 active torsions:
REMARK  status: ('A' for Active; 'I' for Inactive)
REMARK    1  A    between atoms: CAV_1  and  CAU_3 
REMARK    2  A    between atoms: CAU_3  and  CAT_4 
REMARK    3  A    between atoms: CAT_4  and  CAS_5 
REMARK    4  A    between atoms: CAS_5  and  CAR_6 
REMARK    5  A    between atoms: CAR_6  and  CAQ_7 
REMARK    6  A    between atoms: CAQ_7  and  NAO_8 
REMARK       I    between atoms: NAO_8  and  CAN_9 
REMARK    7  A    between atoms: CAN_9  and  CAM_11 
REMARK    8  A    between atoms: CAM_11  and  CAL_12 
REMARK    9  A    between atoms: CAL_12  and  CAK_13 
REMARK   10  A    between atoms: CAK_13  and  CAI_14 
REMARK   11  A    between atoms: CAI_14  and  CAH_15 
REMARK   12  A    between atoms: CAA_21  and  NAJ_22 
ROOT
ATOM      1  CAK ZOF d          26.406 -75.750  10.945  0.00  0.00     0.002 C 
ENDROOT
BRANCH   1   2
ATOM      2  CAL ZOF d          26.791 -76.632   9.802  0.00  0.00     0.009 C 
BRANCH   2   3
ATOM      3  CAM ZOF d          27.911 -76.124   8.911  0.00  0.00     0.103 C 
BRANCH   3   4
ATOM      4  CAN ZOF d          27.531 -74.893   8.070  0.00  0.00     0.217 C 
ATOM      5  NAO ZOF d          28.291 -73.822   8.108  0.00  0.00    -0.361 N 
ATOM      6  H12 ZOF d          29.063 -73.855   8.743  0.00  0.00     0.162 HD
ATOM      7  OAP ZOF d          26.516 -74.982   7.342  0.00  0.00    -0.274 OA
BRANCH   5   8
ATOM      8  CAQ ZOF d          28.151 -72.620   7.357  0.00  0.00     0.122 C 
BRANCH   8   9
ATOM      9  CAR ZOF d          26.992 -71.767   7.909  0.00  0.00     0.020 C 
BRANCH   9  10
ATOM     10  CAS ZOF d          26.884 -70.591   7.021  0.00  0.00     0.002 C 
BRANCH  10  11
ATOM     11  CAT ZOF d          25.678 -69.823   7.398  0.00  0.00     0.007 C 
BRANCH  11  12
ATOM     12  CAU ZOF d          25.742 -68.524   6.660  0.00  0.00     0.069 C 
BRANCH  12  13
ATOM     13  CAV ZOF d          24.408 -67.876   6.831  0.00  0.00     0.231 C 
ATOM     14  OAX ZOF d          23.338 -68.273   6.333  0.00  0.00    -0.307 OA
ENDBRANCH  12  13
ENDBRANCH  11  12
ENDBRANCH  10  11
ENDBRANCH   9  10
ENDBRANCH   8   9
ENDBRANCH   5   8
ENDBRANCH   3   4
ENDBRANCH   2   3
ENDBRANCH   1   2
BRANCH   1  15
ATOM     15  CAI ZOF d          25.230 -76.365  11.679  0.00  0.00     0.017 C 
BRANCH  15  16
ATOM     16  CAH ZOF d          24.815 -75.517  12.904  0.00  0.00     0.072 C 
ATOM     17  SAG ZOF d          26.028 -75.623  14.271  0.00  0.00    -0.160 SA
ATOM     18  CAF ZOF d          24.806 -74.889  15.302  0.00  0.00     0.102 C 
ATOM     19  CAC ZOF d          23.420 -75.377  15.006  0.00  0.00     0.133 C 
ATOM     20  CAD ZOF d          23.434 -75.883  13.534  0.00  0.00     0.137 C 
ATOM     21  NAB ZOF d          23.290 -76.648  15.701  0.00  0.00    -0.219 N 
ATOM     22  NAE ZOF d          23.295 -77.281  13.589  0.00  0.00    -0.219 N 
ATOM     23  CAA ZOF d          22.936 -77.669  14.885  0.00  0.00     0.668 C 
ATOM     24  H26 ZOF d          23.436 -77.923  12.796  0.00  0.00     0.178 HD
ATOM     25  H29 ZOF d          23.451 -76.760  16.712  0.00  0.00     0.178 HD
BRANCH  23  26
ATOM     26  NAJ ZOF d          22.968 -78.990  15.222  0.00  0.00    -0.235 N 
ATOM     27  H27 ZOF d          22.706 -79.285  16.173  0.00  0.00     0.174 HD
ATOM     28  H28 ZOF d          23.255 -79.692  14.525  0.00  0.00     0.174 HD
ENDBRANCH  23  26
ENDBRANCH  15  16
ENDBRANCH   1  15
TORSDOF 12
