REMARK  10 active torsions:
REMARK  status: ('A' for Active; 'I' for Inactive)
REMARK    1  A    between atoms: O4_1  and  C23_2 
REMARK    2  A    between atoms: C29_5  and  C8_8 
REMARK    3  A    between atoms: C8_8  and  C7_9 
REMARK    4  A    between atoms: C7_9  and  C3_10 
REMARK    5  A    between atoms: C3_10  and  C22_31 
REMARK    6  A    between atoms: C6_14  and  S1_15 
REMARK    7  A    between atoms: S1_15  and  C21_16 
REMARK    8  A    between atoms: C2_19  and  N1_20 
REMARK    9  A    between atoms: C18_22  and  C26_23 
REMARK   10  A    between atoms: C5_28  and  O3_29 
ROOT
ATOM      1  C3  NH1 d          41.091  14.611  53.891  0.00  0.00     0.081 C 
ATOM      2  O2  NH1 d          40.814  13.705  52.765  0.00  0.00    -0.305 OA
ATOM      3  C1  NH1 d          41.836  12.963  52.250  0.00  0.00     0.303 C 
ATOM      4  O1  NH1 d          41.665  11.929  51.595  0.00  0.00    -0.259 OA
ATOM      5  C6  NH1 d          43.236  13.435  52.524  0.00  0.00     0.110 C 
ATOM      6  C5  NH1 d          43.434  14.610  53.160  0.00  0.00     0.069 C 
ATOM      7  C4  NH1 d          42.282  15.539  53.490  0.00  0.00     0.105 C 
ENDROOT
BRANCH   1   8
ATOM      8  C7  NH1 d          41.387  13.691  55.111  0.00  0.00     0.044 C 
BRANCH   8   9
ATOM      9  C8  NH1 d          41.675  14.466  56.412  0.00  0.00     0.041 C 
BRANCH   9  10
ATOM     10  C29 NH1 d          41.677  13.605  57.614  0.00  0.00    -0.058 A 
ATOM     11  C17 NH1 d          42.887  13.143  58.140  0.00  0.00     0.010 A 
ATOM     12  C20 NH1 d          42.890  12.325  59.275  0.00  0.00     0.037 A 
ATOM     13  C23 NH1 d          41.683  11.968  59.880  0.00  0.00     0.065 A 
ATOM     14  C25 NH1 d          40.470  12.423  59.360  0.00  0.00     0.037 A 
ATOM     15  C14 NH1 d          40.470  13.240  58.227  0.00  0.00     0.010 A 
BRANCH  13  16
ATOM     16  O4  NH1 d          41.692  11.198  61.021  0.00  0.00    -0.361 OA
ATOM     17  H1  NH1 d          40.798  11.044  61.305  0.00  0.00     0.217 HD
ENDBRANCH  13  16
ENDBRANCH   9  10
ENDBRANCH   8   9
ENDBRANCH   1   8
BRANCH   1  18
ATOM     18  C22 NH1 d          39.838  15.510  54.121  0.00  0.00     0.021 C 
ATOM     19  C13 NH1 d          38.588  14.794  54.673  0.00  0.00     0.007 C 
ATOM     20  C28 NH1 d          37.383  15.610  54.161  0.00  0.00     0.000 C 
ATOM     21  C16 NH1 d          37.897  16.573  53.053  0.00  0.00     0.000 C 
ATOM     22  C19 NH1 d          39.383  16.261  52.848  0.00  0.00     0.007 C 
ENDBRANCH   1  18
BRANCH   6  23
ATOM     23  O3  NH1 d          44.679  15.072  53.310  0.00  0.00    -0.363 OA
ATOM     24  H26 NH1 d          44.654  15.901  53.773  0.00  0.00     0.217 HD
ENDBRANCH   6  23
BRANCH   5  25
ATOM     25  S1  NH1 d          44.628  12.469  52.019  0.00  0.00    -0.081 SA
BRANCH  25  26
ATOM     26  C21 NH1 d          45.190  13.212  50.517  0.00  0.00     0.013 A 
ATOM     27  C24 NH1 d          44.196  13.739  49.693  0.00  0.00     0.028 A 
ATOM     28  C12 NH1 d          44.525  14.318  48.478  0.00  0.00    -0.035 A 
ATOM     29  C2  NH1 d          45.865  14.404  48.083  0.00  0.00     0.032 A 
ATOM     30  C11 NH1 d          43.468  14.926  47.668  0.00  0.00     0.050 C 
ATOM     31  C15 NH1 d          46.866  13.881  48.901  0.00  0.00     0.038 A 
ATOM     32  C18 NH1 d          46.559  13.299  50.137  0.00  0.00    -0.031 A 
BRANCH  29  33
ATOM     33  N1  NH1 d          46.187  14.938  46.907  0.00  0.00    -0.399 N 
ATOM     34  H11 NH1 d          47.175  14.998  46.622  0.00  0.00     0.156 HD
ATOM     35  H12 NH1 d          45.448  15.291  46.282  0.00  0.00     0.156 HD
ENDBRANCH  29  33
BRANCH  32  36
ATOM     36  C26 NH1 d          47.676  12.814  51.001  0.00  0.00    -0.023 C 
ATOM     37  C10 NH1 d          47.692  13.593  52.330  0.00  0.00     0.019 C 
ATOM     38  C27 NH1 d          49.039  13.036  50.313  0.00  0.00     0.019 C 
ATOM     39  C9  NH1 d          47.543  11.317  51.309  0.00  0.00     0.019 C 
ENDBRANCH  32  36
ENDBRANCH  25  26
ENDBRANCH   5  25
TORSDOF 10
