REMARK  7 active torsions:
REMARK  status: ('A' for Active; 'I' for Inactive)
REMARK    1  A    between atoms: SAS_19  and  NAC_3 
REMARK    2  A    between atoms: CAR_18  and  CAK_11 
REMARK    3  A    between atoms: CAL_12  and  CAM_13 
REMARK    4  A    between atoms: CAO_15  and  CAL_12 
REMARK    5  A    between atoms: CAM_13  and  CAR_18 
REMARK       I    between atoms: NAN_14  and  CAO_15 
REMARK    6  A    between atoms: CAP_16  and  NAN_14 
REMARK    7  A    between atoms: CAQ_17  and  SAS_19 
ROOT
ATOM      1  CAG OYQ d          -5.192   4.403  14.520  0.00  0.00     0.031 A 
ATOM      2  CAH OYQ d          -3.102   3.228  14.768  0.00  0.00     0.031 A 
ATOM      3  CAI OYQ d          -5.837   3.389  15.243  0.00  0.00     0.027 A 
ATOM      4  CAJ OYQ d          -3.726   2.244  15.498  0.00  0.00     0.027 A 
ATOM      5  CAP OYQ d          -3.817   4.307  14.293  0.00  0.00     0.034 A 
ATOM      6  CAQ OYQ d          -5.092   2.298  15.743  0.00  0.00     0.079 A 
ENDROOT
BRANCH   5   7
ATOM      7  NAN OYQ d          -3.040   5.259  13.564  0.00  0.00    -0.327 N 
ATOM      8  CAO OYQ d          -3.575   6.435  12.959  0.00  0.00     0.222 C 
ATOM      9  OAD OYQ d          -4.763   6.714  13.032  0.00  0.00    -0.273 OA
ATOM     10  H19 OYQ d          -2.059   5.090  13.472  0.00  0.00     0.169 HD
BRANCH   8  11
ATOM     11  CAL OYQ d          -2.631   7.319  12.222  0.00  0.00     0.103 C 
BRANCH  11  12
ATOM     12  CAM OYQ d          -2.052   8.430  13.006  0.00  0.00     0.013 C 
BRANCH  12  13
ATOM     13  CAR OYQ d          -0.962   8.016  13.916  0.00  0.00    -0.019 C 
ATOM     14  CAB OYQ d           0.327   8.121  13.167  0.00  0.00     0.010 C 
BRANCH  13  15
ATOM     15  CAK OYQ d          -0.952   8.919  15.092  0.00  0.00    -0.000 C 
ATOM     16  CAA OYQ d          -0.291  10.245  14.908  0.00  0.00     0.005 C 
ENDBRANCH  13  15
ENDBRANCH  12  13
ENDBRANCH  11  12
ENDBRANCH   8  11
ENDBRANCH   5   7
BRANCH   6  17
ATOM     17  SAS OYQ d          -5.844   0.983  16.691  0.00  0.00     0.256 S 
ATOM     18  OAE OYQ d          -5.377   1.240  18.045  0.00  0.00    -0.201 OA
ATOM     19  OAF OYQ d          -7.316   1.181  16.540  0.00  0.00    -0.201 OA
BRANCH  17  20
ATOM     20  NAC OYQ d          -5.346  -0.452  16.060  0.00  0.00    -0.324 N 
ATOM     21  H7  OYQ d          -4.380  -0.706  16.097  0.00  0.00     0.169 HD
ATOM     22  H8  OYQ d          -6.010  -1.070  15.639  0.00  0.00     0.169 HD
ENDBRANCH  17  20
ENDBRANCH   6  17
TORSDOF 7
