REMARK  5 active torsions:
REMARK  status: ('A' for Active; 'I' for Inactive)
REMARK    1  A    between atoms: OAQ_1  and  CAF_2 
REMARK    2  A    between atoms: CAL_4  and  OAR_5 
REMARK    3  A    between atoms: CAM_6  and  CAS_7 
REMARK    4  A    between atoms: CAC_10  and  CAB_11 
REMARK    5  A    between atoms: CAA_15  and  CAD_16 
ROOT
ATOM      1  CAF MOL d          33.930  32.124  -3.137  0.00  0.00     0.081 A 
ATOM      2  CAJ MOL d          33.862  31.706  -1.807  0.00  0.00     0.074 A 
ATOM      3  CAL MOL d          35.032  31.529  -1.069  0.00  0.00     0.074 A 
ATOM      4  CAM MOL d          36.271  31.742  -1.672  0.00  0.00    -0.024 A 
ATOM      5  CAG MOL d          36.318  32.202  -2.989  0.00  0.00     0.026 A 
ATOM      6  CAC MOL d          35.157  32.396  -3.736  0.00  0.00     0.027 A 
ENDROOT
BRANCH   6   7
ATOM      7  CAB MOL d          35.203  32.835  -5.063  0.00  0.00     0.077 A 
ATOM      8  NAE MOL d          34.865  32.124  -6.140  0.00  0.00    -0.277 N 
ATOM      9  NAI MOL d          35.022  32.787  -7.170  0.00  0.00    -0.186 NA
ATOM     10  H10 MOL d          34.520  31.154  -6.116  0.00  0.00     0.189 HD
ATOM     11  CAK MOL d          35.493  33.994  -6.871  0.00  0.00     0.154 A 
ATOM     12  CAA MOL d          35.618  34.075  -5.549  0.00  0.00     0.042 A 
BRANCH  12  13
ATOM     13  CAD MOL d          35.981  35.212  -4.834  0.00  0.00     0.087 A 
ATOM     14  CAP MOL d          36.617  36.267  -5.339  0.00  0.00     0.121 A 
ATOM     15  NAN MOL d          36.748  37.185  -4.385  0.00  0.00    -0.358 N 
ATOM     16  CAO MOL d          36.199  36.703  -3.273  0.00  0.00     0.207 A 
ATOM     17  H13 MOL d          37.196  38.107  -4.489  0.00  0.00     0.166 HD
ATOM     18  NAH MOL d          35.730  35.490  -3.557  0.00  0.00    -0.242 NA
ENDBRANCH  12  13
ENDBRANCH   6   7
BRANCH   1  19
ATOM     19  OAQ MOL d          32.769  32.239  -3.838  0.00  0.00    -0.360 OA
ATOM     20  H1  MOL d          32.961  32.530  -4.722  0.00  0.00     0.217 HD
ENDBRANCH   1  19
BRANCH   4  21
ATOM     21  CAS MOL d          37.587  31.321  -1.005  0.00  0.00     0.037 C 
ATOM     22  CAT MOL d          37.773  29.800  -1.056  0.00  0.00     0.010 C 
ENDBRANCH   4  21
BRANCH   3  23
ATOM     23  OAR MOL d          34.946  31.241   0.262  0.00  0.00    -0.360 OA
ATOM     24  H3  MOL d          35.820  31.150   0.622  0.00  0.00     0.217 HD
ENDBRANCH   3  23
TORSDOF 5
