3qnd_ligand

Created by X-TOOL on Fri Sep 26 17:34:52 2014
 39 39  0  0  0  0  0  0  0  0999 V2000
   36.0910    4.9630  -19.9490  C 0  5  0  1  0  3
   35.7190    3.5640  -20.4050  C 0  0  0  1  0  4
   34.4880    3.0670  -19.6340  C 0  0  0  3  0  4
   33.2080    3.7490  -20.1130  C 0  0  0  2  0  4
   33.0390    3.5420  -21.6140  C 0  0  0  2  0  4
   34.2770    4.0890  -22.3350  C 0  0  0  2  0  4
   34.2320    3.9000  -23.8550  C 0  0  0  2  0  4
   35.4770    4.4760  -24.5390  C 0  0  0  2  0  4
   35.2980    4.5770  -26.0520  C 0  0  0  3  0  4
   30.6670    3.6170  -22.3050  C 0  0  0  1  0  3
   29.5870    4.5230  -22.8140  C 0  0  0  4  0  4
   31.8430    4.2150  -22.0970  N 0  0  0  2  0  3
   36.3290    5.8450  -20.8060  O 0  0  0  1  0  1
   36.1570    5.1910  -18.7180  O 0  0  0  1  0  1
   36.8280    2.7060  -20.1210  O 0  0  0  2  0  2
   32.0770    3.2410  -19.3980  O 0  0  0  2  0  2
   35.4850    3.5010  -21.8240  O 0  0  0  1  0  2
   34.1030    2.5070  -24.1790  O 0  0  0  2  0  2
   35.7810    5.7740  -24.0060  O 0  0  0  2  0  2
   34.4720    5.7050  -26.3760  O 0  0  0  2  0  2
   30.4560    2.4310  -22.1000  O 0  0  0  1  0  1
   34.6271    3.2812  -18.5641  H 0  0  0  1  0  1
   34.3898    1.9813  -19.7809  H 0  0  0  1  0  1
   33.2891    4.8281  -19.9156  H 0  0  0  1  0  1
   32.9475    2.4652  -21.8194  H 0  0  0  1  0  1
   34.3156    5.1702  -22.1362  H 0  0  0  1  0  1
   33.3499    4.4324  -24.2403  H 0  0  0  1  0  1
   36.3235    3.8041  -24.3343  H 0  0  0  1  0  1
   34.8215    3.6581  -26.4243  H 0  0  0  1  0  1
   36.2824    4.6982  -26.5277  H 0  0  0  1  0  1
   28.6608    3.9464  -22.9547  H 0  0  0  1  0  1
   29.8970    4.9592  -23.7751  H 0  0  0  1  0  1
   29.4105    5.3283  -22.0858  H 0  0  0  1  0  1
   31.9059    5.1948  -22.2867  H 0  0  0  1  0  1
   37.5910    3.0076  -20.5999  H 0  0  0  1  0  1
   32.2037    3.3804  -18.4669  H 0  0  0  1  0  1
   34.8734    2.0402  -23.8772  H 0  0  0  1  0  1
   35.8922    5.7104  -23.0647  H 0  0  0  1  0  1
   34.8832    6.4994  -26.0562  H 0  0  0  1  0  1
  2  1  1  0  0  2
  1 13  2  0  0  2
  1 14  2  0  0  2
  3  2  1  0  0  1
  2 15  1  0  0  2
 17  2  1  0  0  1
  4  3  1  0  0  1
  5  4  1  0  0  1
  4 16  1  0  0  2
  5  6  1  0  0  1
 12  5  1  0  0  2
  6  7  1  0  0  2
  6 17  1  0  0  1
  7  8  1  0  0  2
  7 18  1  0  0  2
  8  9  1  0  0  2
  8 19  1  0  0  2
  9 20  1  0  0  2
 10 11  1  0  0  2
 10 12  1  0  0  2
 10 21  2  0  0  2
  3 22  1  0  0  2
  3 23  1  0  0  2
  4 24  1  0  0  2
  5 25  1  0  0  2
  6 26  1  0  0  2
  7 27  1  0  0  2
  8 28  1  0  0  2
  9 29  1  0  0  2
  9 30  1  0  0  2
 11 31  1  0  0  2
 11 32  1  0  0  2
 11 33  1  0  0  2
 12 34  1  0  0  2
 15 35  1  0  0  2
 16 36  1  0  0  2
 18 37  1  0  0  2
 19 38  1  0  0  2
 20 39  1  0  0  2
M  END
> <MOLECULAR_FORMULA>
C11H18NO9

> <MOLECULAR_WEIGHT>
308.1

> <NUM_HB_ATOMS>
10 

> <NUM_ROTOR>
4  

> <XLOGP2>
-4.09

$$$$
