REMARK  3 active torsions:
REMARK  status: ('A' for Active; 'I' for Inactive)
REMARK    1  A    between atoms: C9_2  and  C6_3 
REMARK    2  A    between atoms: C2_7  and  C7_8 
REMARK    3  A    between atoms: C1_10  and  O1_11 
ROOT
ATOM      1  C6  DIE d          32.865  -0.171  35.639  0.00  0.00    -0.025 A 
ATOM      2  C5  DIE d          33.049   0.293  36.931  0.00  0.00     0.010 A 
ATOM      3  C4  DIE d          34.273   0.796  37.349  0.00  0.00     0.001 A 
ATOM      4  C3  DIE d          35.351   0.832  36.480  0.00  0.00     0.010 A 
ATOM      5  C2  DIE d          35.205   0.362  35.180  0.00  0.00    -0.025 A 
ATOM      6  C1  DIE d          33.965  -0.134  34.775  0.00  0.00     0.078 A 
ENDROOT
BRANCH   1   7
ATOM      7  C9  DIE d          31.460  -0.717  35.299  0.00  0.00     0.037 C 
ATOM      8  C10 DIE d          30.559   0.246  34.509  0.00  0.00     0.010 C 
ENDBRANCH   1   7
BRANCH   6   9
ATOM      9  O1  DIE d          33.833  -0.589  33.498  0.00  0.00    -0.360 OA
ATOM     10  H14 DIE d          32.944  -0.894  33.362  0.00  0.00     0.217 HD
ENDBRANCH   6   9
BRANCH   5  11
ATOM     11  C7  DIE d          36.431   0.426  34.254  0.00  0.00     0.037 C 
ATOM     12  C8  DIE d          36.020   0.543  32.782  0.00  0.00     0.010 C 
ENDBRANCH   5  11
TORSDOF 3
