REMARK  5 active torsions:
REMARK  status: ('A' for Active; 'I' for Inactive)
REMARK    1  A    between atoms: C3_3  and  N_30 
REMARK    2  A    between atoms: C11_4  and  N2_22 
REMARK    3  A    between atoms: C12_5  and  C13_6 
REMARK       I    between atoms: N2_22  and  C12_5 
REMARK    4  A    between atoms: C17_10  and  C18_11 
REMARK    5  A    between atoms: C5_28  and  C7_27 
ROOT
ATOM      1  C12 MOL d         -40.994  -2.511  -1.002  0.00  0.00     0.274 C 
ATOM      2  O   MOL d         -40.501  -2.853  -2.076  0.00  0.00    -0.266 OA
ATOM      3  N2  MOL d         -40.314  -2.431   0.165  0.00  0.00    -0.320 N 
ATOM      4  H10 MOL d         -40.805  -1.994   0.919  0.00  0.00     0.169 HD
ENDROOT
BRANCH   3   5
ATOM      5  C11 MOL d         -39.009  -2.877   0.469  0.00  0.00     0.059 A 
ATOM      6  C10 MOL d         -37.985  -2.864  -0.485  0.00  0.00     0.146 A 
ATOM      7  N1  MOL d         -36.729  -3.243  -0.250  0.00  0.00    -0.271 NA
ATOM      8  C9  MOL d         -36.453  -3.666   0.982  0.00  0.00     0.117 A 
ATOM      9  C8  MOL d         -37.380  -3.714   2.002  0.00  0.00     0.029 A 
ATOM     10  C7  MOL d         -38.690  -3.313   1.763  0.00  0.00    -0.024 A 
BRANCH  10  11
ATOM     11  C5  MOL d         -39.719  -3.286   2.885  0.00  0.00     0.023 C 
ATOM     12  C4  MOL d         -39.527  -4.367   3.949  0.00  0.00     0.042 C 
ATOM     13  C3  MOL d         -40.741  -4.401   4.880  0.00  0.00     0.184 C 
ATOM     14  C2  MOL d         -40.862  -3.017   5.546  0.00  0.00     0.037 C 
ATOM     15  C1  MOL d         -40.966  -1.874   4.542  0.00  0.00    -0.016 C 
ATOM     16  C6  MOL d         -39.790  -1.921   3.572  0.00  0.00     0.013 C 
ATOM     17  C   MOL d         -41.044  -0.524   5.244  0.00  0.00     0.010 C 
BRANCH  13  18
ATOM     18  N   MOL d         -40.584  -5.454   5.886  0.00  0.00    -0.075 N 
ATOM     19  H17 MOL d         -41.390  -5.464   6.491  0.00  0.00     0.274 HD
ATOM     20  H18 MOL d         -39.756  -5.276   6.433  0.00  0.00     0.274 HD
ATOM     21  H19 MOL d         -40.498  -6.347   5.427  0.00  0.00     0.274 HD
ENDBRANCH  13  18
ENDBRANCH  10  11
ENDBRANCH   3   5
BRANCH   1  22
ATOM     22  C13 MOL d         -42.457  -2.200  -0.876  0.00  0.00     0.125 A 
ATOM     23  C14 MOL d         -43.269  -2.215  -2.005  0.00  0.00     0.040 A 
ATOM     24  C15 MOL d         -44.638  -2.105  -1.827  0.00  0.00     0.047 A 
ATOM     25  C16 MOL d         -45.136  -1.963  -0.554  0.00  0.00     0.146 A 
ATOM     26  C17 MOL d         -44.261  -1.920   0.532  0.00  0.00     0.112 A 
ATOM     27  F   MOL d         -46.473  -1.884  -0.375  0.00  0.00    -0.204 F 
ATOM     28  N3  MOL d         -42.935  -2.031   0.367  0.00  0.00    -0.239 NA
BRANCH  26  29
ATOM     29  C18 MOL d         -44.735  -1.771   1.940  0.00  0.00     0.073 A 
ATOM     30  C19 MOL d         -45.650  -0.796   2.321  0.00  0.00     0.132 A 
ATOM     31  C20 MOL d         -46.153  -0.672   3.592  0.00  0.00     0.043 A 
ATOM     32  F1  MOL d         -46.054   0.083   1.378  0.00  0.00    -0.205 F 
ATOM     33  C21 MOL d         -45.727  -1.568   4.560  0.00  0.00     0.006 A 
ATOM     34  C22 MOL d         -44.800  -2.550   4.251  0.00  0.00     0.043 A 
ATOM     35  C23 MOL d         -44.330  -2.620   2.960  0.00  0.00     0.132 A 
ATOM     36  F2  MOL d         -43.397  -3.557   2.663  0.00  0.00    -0.205 F 
ENDBRANCH  26  29
ENDBRANCH   1  22
TORSDOF 5
