REMARK  5 active torsions:
REMARK  status: ('A' for Active; 'I' for Inactive)
REMARK    1  A    between atoms: P_2  and  C5_5 
REMARK    2  A    between atoms: C5_5  and  N_6 
REMARK    3  A    between atoms: C5_5  and  C3_7 
REMARK    4  A    between atoms: C3_7  and  C2_9 
REMARK    5  A    between atoms: C2_9  and  C1_10 
ROOT
ATOM      1  C5  Q07 d          22.868  -3.747  10.392  0.00  0.00     0.315 C 
ENDROOT
BRANCH   1   2
ATOM      2  P   Q07 d          21.736  -2.627  11.290  0.00  0.00     0.291 P 
ATOM      3  O2  Q07 d          22.334  -2.257  12.601  0.00  0.00    -0.638 OA
ATOM      4  O   Q07 d          20.292  -3.147  11.305  0.00  0.00    -0.638 OA
ATOM      5  O1  Q07 d          21.820  -1.271  10.466  0.00  0.00    -0.638 OA
ENDBRANCH   1   2
BRANCH   1   6
ATOM      6  N   Q07 d          24.017  -2.966   9.898  0.00  0.00    -0.062 N 
ATOM      7  H2  Q07 d          24.648  -3.575   9.401  0.00  0.00     0.275 HD
ATOM      8  H3  Q07 d          24.499  -2.547  10.678  0.00  0.00     0.275 HD
ATOM      9  H4  Q07 d          23.689  -2.242   9.277  0.00  0.00     0.275 HD
ENDBRANCH   1   6
BRANCH   1  10
ATOM     10  C3  Q07 d          23.298  -4.978  11.200  0.00  0.00     0.026 C 
ATOM     11  C4  Q07 d          22.182  -5.570  12.133  0.00  0.00     0.012 C 
BRANCH  10  12
ATOM     12  C2  Q07 d          23.902  -6.021  10.286  0.00  0.00     0.006 C 
BRANCH  12  13
ATOM     13  C1  Q07 d          24.670  -7.153  11.028  0.00  0.00    -0.004 C 
ATOM     14  C   Q07 d          24.127  -8.490  10.631  0.00  0.00     0.005 C 
ENDBRANCH  12  13
ENDBRANCH  10  12
ENDBRANCH   1  10
TORSDOF 5
