REMARK  7 active torsions:
REMARK  status: ('A' for Active; 'I' for Inactive)
REMARK    1  A    between atoms: N7_7  and  C17_15 
REMARK    2  A    between atoms: C8_8  and  C11_11 
REMARK       I    between atoms: C11_11  and  N12_12 
REMARK    3  A    between atoms: N12_12  and  C13_13 
REMARK    4  A    between atoms: C13_13  and  C14_14 
REMARK    5  A    between atoms: C17_15  and  C18_16 
REMARK    6  A    between atoms: C24_20  and  C31_27 
REMARK    7  A    between atoms: C31_27  and  N32_28 
ROOT
ATOM      1  C1  CMB d           3.902   9.710  25.819  0.00  0.00     0.003 A 
ATOM      2  C2  CMB d           5.019   8.944  25.454  0.00  0.00     0.030 A 
ATOM      3  C3  CMB d           5.324   8.711  24.082  0.00  0.00     0.046 A 
ATOM      4  C4  CMB d           4.565   9.243  23.041  0.00  0.00    -0.001 A 
ATOM      5  C5  CMB d           3.402  10.036  23.419  0.00  0.00    -0.049 A 
ATOM      6  C6  CMB d           3.089  10.241  24.790  0.00  0.00     0.007 A 
ATOM      7  N7  CMB d           6.310   7.891  23.550  0.00  0.00    -0.337 N 
ATOM      8  C8  CMB d           6.179   7.963  22.171  0.00  0.00     0.104 A 
ATOM      9  C9  CMB d           5.102   8.859  21.794  0.00  0.00     0.049 A 
ATOM     10  C10 CMB d           2.556  10.666  22.388  0.00  0.00     0.049 C 
ENDROOT
BRANCH   7  11
ATOM     11  C17 CMB d           7.173   7.007  24.345  0.00  0.00     0.168 C 
BRANCH  11  12
ATOM     12  C18 CMB d           8.466   7.643  24.788  0.00  0.00    -0.039 A 
ATOM     13  C21 CMB d           9.152   8.653  24.080  0.00  0.00     0.009 A 
ATOM     14  C22 CMB d          10.443   9.043  24.485  0.00  0.00     0.002 A 
ATOM     15  C23 CMB d          11.008   8.427  25.619  0.00  0.00     0.015 A 
ATOM     16  C24 CMB d          10.273   7.469  26.356  0.00  0.00     0.007 A 
ATOM     17  C25 CMB d           9.009   7.082  25.934  0.00  0.00     0.024 A 
BRANCH  16  18
ATOM     18  C31 CMB d          10.742   6.855  27.586  0.00  0.00     0.102 C 
ATOM     19  N53 CMB d           9.822   6.206  28.289  0.00  0.00    -0.385 N 
ATOM     20  H22 CMB d           8.842   6.197  27.971  0.00  0.00     0.157 HD
ATOM     21  H23 CMB d          10.088   5.712  29.153  0.00  0.00     0.157 HD
BRANCH  18  22
ATOM     22  N32 CMB d          12.020   6.887  27.970  0.00  0.00    -0.385 N 
ATOM     23  H20 CMB d          12.304   6.437  28.852  0.00  0.00     0.157 HD
ATOM     24  H21 CMB d          12.722   7.362  27.385  0.00  0.00     0.157 HD
ENDBRANCH  18  22
ENDBRANCH  16  18
ENDBRANCH  11  12
ENDBRANCH   7  11
BRANCH   8  25
ATOM     25  C11 CMB d           6.971   7.233  21.247  0.00  0.00     0.268 C 
ATOM     26  N12 CMB d           6.430   6.910  20.047  0.00  0.00    -0.351 N 
ATOM     27  H8  CMB d           5.496   7.190  19.826  0.00  0.00     0.163 HD
ATOM     28  O45 CMB d           8.118   6.882  21.536  0.00  0.00    -0.266 OA
BRANCH  26  29
ATOM     29  C13 CMB d           7.218   6.150  19.076  0.00  0.00     0.161 C 
BRANCH  29  30
ATOM     30  C14 CMB d           7.525   4.693  19.415  0.00  0.00    -0.037 A 
ATOM     31  C26 CMB d           8.483   3.996  18.662  0.00  0.00     0.032 A 
ATOM     32  C27 CMB d           8.718   2.624  18.849  0.00  0.00     0.036 A 
ATOM     33  C28 CMB d           7.985   1.940  19.833  0.00  0.00     0.047 A 
ATOM     34 CL1  CMB d           9.843   1.773  17.802  0.00  0.00    -0.084 Cl
ATOM     35  C29 CMB d           7.021   2.614  20.608  0.00  0.00     0.036 A 
ATOM     36  C30 CMB d           6.808   3.993  20.397  0.00  0.00     0.032 A 
ATOM     37 CL2  CMB d           6.032   1.751  21.785  0.00  0.00    -0.084 Cl
ENDBRANCH  29  30
ENDBRANCH  26  29
ENDBRANCH   8  25
TORSDOF 7
