REMARK  5 active torsions:
REMARK  status: ('A' for Active; 'I' for Inactive)
REMARK    1  A    between atoms: N1_2  and  C1_1 
REMARK    2  A    between atoms: C2_3  and  O2_5 
REMARK    3  A    between atoms: C4_8  and  O4_9 
REMARK    4  A    between atoms: C5_10  and  C6_12 
REMARK    5  A    between atoms: C6_12  and  O6_13 
ROOT
ATOM      1  C1  DKX d          33.379  22.865  27.777  0.00  0.00     0.264 C 
ATOM      2  C2  DKX d          33.762  23.057  26.297  0.00  0.00     0.204 C 
ATOM      3  C3  DKX d          32.741  22.352  25.386  0.00  0.00     0.234 C 
ATOM      4  F3  DKX d          33.203  22.339  24.083  0.00  0.00    -0.244 F 
ATOM      5  C4  DKX d          32.451  20.918  25.874  0.00  0.00     0.185 C 
ATOM      6  C5  DKX d          32.291  20.821  27.418  0.00  0.00     0.179 C 
ATOM      7  O5  DKX d          33.395  21.461  28.093  0.00  0.00    -0.353 OA
ENDROOT
BRANCH   1   8
ATOM      8  N1  DKX d          34.269  23.577  28.722  0.00  0.00    -0.280 N 
ATOM      9  C7  DKX d          35.673  23.618  28.552  0.00  0.00     0.104 A 
ATOM     10  C8  DKX d          36.473  24.297  29.474  0.00  0.00     0.092 A 
ATOM     11  C9  DKX d          35.858  24.946  30.555  0.00  0.00     0.250 A 
ATOM     12  N2  DKX d          34.467  24.899  30.729  0.00  0.00    -0.275 N 
ATOM     13  O9  DKX d          36.529  25.565  31.379  0.00  0.00    -0.268 OA
ATOM     14  C10 DKX d          33.666  24.210  29.814  0.00  0.00     0.331 A 
ATOM     15  H3  DKX d          34.047  25.360  31.511  0.00  0.00     0.173 HD
ATOM     16  O10 DKX d          32.443  24.169  29.956  0.00  0.00    -0.246 OA
ENDBRANCH   1   8
BRANCH   2  17
ATOM     17  O2  DKX d          33.846  24.457  25.989  0.00  0.00    -0.388 OA
ATOM     18  H4  DKX d          34.082  24.566  25.075  0.00  0.00     0.210 HD
ENDBRANCH   2  17
BRANCH   6  19
ATOM     19  C6  DKX d          32.267  19.373  27.932  0.00  0.00     0.198 C 
BRANCH  19  20
ATOM     20  O6  DKX d          33.351  18.657  27.319  0.00  0.00    -0.398 OA
ATOM     21  H11 DKX d          34.174  19.071  27.551  0.00  0.00     0.209 HD
ENDBRANCH  19  20
ENDBRANCH   6  19
BRANCH   5  22
ATOM     22  O4  DKX d          31.263  20.454  25.238  0.00  0.00    -0.390 OA
ATOM     23  H7  DKX d          31.073  19.570  25.530  0.00  0.00     0.210 HD
ENDBRANCH   5  22
TORSDOF 5
