3u7m_ligand

Created by X-TOOL on Fri Sep 26 17:34:55 2014
 55 55  0  0  0  0  0  0  0  0999 V2000
  -16.7880  143.7470   44.5390  C 0  0  0  1  0  3
  -16.3930  145.5190   46.1810  N 0  0  0  2  0  3
  -15.6150  143.7770   44.2550  O 0  0  0  1  0  1
  -17.3710  144.5530   45.7390  C 0  0  0  2  0  4
  -18.4550  145.5840   45.4590  C 0  0  0  2  0  4
  -16.6550  139.3050   47.0340  C 0  0  0  4  0  4
  -18.9480  140.3870   40.4700  O 0  0  0  1  0  1
  -15.1180  144.1990   47.3020  O 0  0  0  1  0  1
  -19.6220  142.6070   41.4440  O 0  0  0  2  0  2
  -12.8300  147.5500   46.4800  F 0  0  0  1  0  1
  -18.1520  141.1280   40.9920  C 0  0  0  2  0  3
  -10.8960  146.2160   48.6530  C 0  0  0  2  0  3
  -11.8530  145.4370   49.2770  C 0  0  0  2  0  3
  -11.2400  147.0270   47.6020  C 0  0  0  2  0  3
  -13.1690  145.4390   48.8520  C 0  0  0  2  0  3
  -17.0280  139.5260   45.6110  C 0  0  0  3  0  4
  -17.2440  140.9980   45.4330  C 0  0  0  3  0  4
  -17.1290  141.3830   43.9690  C 0  0  0  3  0  4
  -17.6150  143.1370   42.2870  C 0  0  0  3  0  4
  -14.6610  146.3900   47.2390  N 0  0  0  2  0  3
  -15.3660  145.3120   46.9310  C 0  0  0  1  0  3
  -12.5520  147.0300   47.2000  C 0  0  0  1  0  3
  -13.5020  146.2730   47.8190  C 0  0  0  1  0  3
  -17.6680  142.8000   43.7670  C 0  0  0  2  0  4
  -18.5300  142.2840   41.5500  N 0  0  0  1  0  3
  -19.6320  145.3310   46.3820  C 0  0  0  4  0  4
  -18.8090  145.7260   43.9940  C 0  0  0  4  0  4
  -16.5287  146.4591   45.8683  H 0  0  0  1  0  1
  -17.6788  143.8477   46.5250  H 0  0  0  1  0  1
  -18.0391  146.5593   45.7520  H 0  0  0  1  0  1
  -16.4871  138.2317   47.2066  H 0  0  0  1  0  1
  -17.4680  139.6582   47.6853  H 0  0  0  1  0  1
  -15.7341  139.8615   47.2624  H 0  0  0  1  0  1
  -20.1849  141.9503   41.8371  H 0  0  0  1  0  1
  -17.0994  140.8492   41.0096  H 0  0  0  1  0  1
   -9.8683  146.1855   48.9965  H 0  0  0  1  0  1
  -11.5661  144.8127   50.1155  H 0  0  0  1  0  1
  -10.5005  147.6448   47.1056  H 0  0  0  1  0  1
  -13.9108  144.8024   49.3205  H 0  0  0  1  0  1
  -17.9520  138.9782   45.3741  H 0  0  0  1  0  1
  -16.2181  139.1815   44.9512  H 0  0  0  1  0  1
  -16.4863  141.5469   46.0115  H 0  0  0  1  0  1
  -18.2472  141.2628   45.7984  H 0  0  0  1  0  1
  -17.7130  140.6788   43.3583  H 0  0  0  1  0  1
  -16.0732  141.3459   43.6626  H 0  0  0  1  0  1
  -16.5918  142.9812   41.9144  H 0  0  0  1  0  1
  -17.9016  144.1891   42.1425  H 0  0  0  1  0  1
  -15.0210  147.2981   47.0249  H 0  0  0  1  0  1
  -18.7044  142.8684   44.1293  H 0  0  0  1  0  1
  -20.4192  146.0734   46.1843  H 0  0  0  1  0  1
  -19.3025  145.4157   47.4281  H 0  0  0  1  0  1
  -20.0278  144.3204   46.2029  H 0  0  0  1  0  1
  -17.8935  145.9059   43.4114  H 0  0  0  1  0  1
  -19.4987  146.5729   43.8638  H 0  0  0  1  0  1
  -19.2919  144.8024   43.6422  H 0  0  0  1  0  1
  1  3  2  0  0  2
  4  1  1  0  0  2
  1 24  1  0  0  2
  2  4  1  0  0  2
 21  2  1  0  0  2
  4  5  1  0  0  2
  5 26  1  0  0  2
  5 27  1  0  0  2
 16  6  1  0  0  2
 11  7  2  0  0  2
 21  8  2  0  0  2
 25  9  1  0  0  2
 22 10  1  0  0  2
 25 11  1  0  0  2
 13 12  4  0  0  1
 12 14  4  0  0  1
 15 13  4  0  0  1
 14 22  4  0  0  1
 23 15  4  0  0  1
 17 16  1  0  0  2
 18 17  1  0  0  2
 24 18  1  0  0  2
 24 19  1  0  0  2
 19 25  1  0  0  2
 20 21  1  0  0  2
 20 23  1  0  0  2
 22 23  4  0  0  1
  2 28  1  0  0  2
  4 29  1  0  0  2
  5 30  1  0  0  2
  6 31  1  0  0  2
  6 32  1  0  0  2
  6 33  1  0  0  2
  9 34  1  0  0  2
 11 35  1  0  0  2
 12 36  1  0  0  2
 13 37  1  0  0  2
 14 38  1  0  0  2
 15 39  1  0  0  2
 16 40  1  0  0  2
 16 41  1  0  0  2
 17 42  1  0  0  2
 17 43  1  0  0  2
 18 44  1  0  0  2
 18 45  1  0  0  2
 19 46  1  0  0  2
 19 47  1  0  0  2
 20 48  1  0  0  2
 24 49  1  0  0  2
 26 50  1  0  0  2
 26 51  1  0  0  2
 26 52  1  0  0  2
 27 53  1  0  0  2
 27 54  1  0  0  2
 27 55  1  0  0  2
M  END
> <MOLECULAR_FORMULA>
C19H28N3O4F

> <MOLECULAR_WEIGHT>
381.2

> <NUM_HB_ATOMS>
6  

> <NUM_ROTOR>
9  

> <XLOGP2>
2.78 

$$$$
