REMARK  5 active torsions:
REMARK  status: ('A' for Active; 'I' for Inactive)
REMARK    1  A    between atoms: C10_18  and  N_1 
REMARK    2  A    between atoms: C2_8  and  C1_4 
REMARK    3  A    between atoms: N1_5  and  C2_8 
REMARK    4  A    between atoms: C7_17  and  O1_6 
REMARK    5  A    between atoms: C06_14  and  O_15 
ROOT
ATOM      1  N1  UL7 d          90.461  98.121 -44.494  0.00  0.00    -0.067 N 
ATOM      2  C03 UL7 d          91.807  98.381 -45.101  0.00  0.00     0.237 C 
ATOM      3  C10 UL7 d          91.428 100.791 -44.655  0.00  0.00     0.191 C 
ATOM      4  C15 UL7 d          90.110 100.477 -43.950  0.00  0.00     0.061 C 
ATOM      5  C16 UL7 d          89.485  99.267 -44.607  0.00  0.00     0.237 C 
ATOM      6  C8  UL7 d          92.422  99.633 -44.502  0.00  0.00     0.061 C 
ATOM      7  H4  UL7 d          90.597  97.937 -43.512  0.00  0.00     0.280 HD
ENDROOT
BRANCH   1   8
ATOM      8  C2  UL7 d          89.889  96.898 -45.137  0.00  0.00     0.276 C 
BRANCH   8   9
ATOM      9  C1  UL7 d          90.421  95.637 -44.523  0.00  0.00     0.004 A 
ATOM     10  C3  UL7 d          90.498  94.486 -45.313  0.00  0.00     0.035 A 
ATOM     11  C01 UL7 d          90.983  93.288 -44.773  0.00  0.00     0.036 A 
ATOM     12  C02 UL7 d          91.391  93.256 -43.431  0.00  0.00     0.046 A 
ATOM     13 CL   UL7 d          91.053  91.900 -45.782  0.00  0.00    -0.084 Cl
ATOM     14  C4  UL7 d          91.319  94.414 -42.644  0.00  0.00     0.046 A 
ATOM     15  C7  UL7 d          90.831  95.609 -43.180  0.00  0.00     0.091 A 
ATOM     16 BR   UL7 d          91.867  94.320 -40.842  0.00  0.00    -0.048 Br
BRANCH  15  17
ATOM     17  O1  UL7 d          90.745  96.763 -42.433  0.00  0.00    -0.359 OA
ATOM     18  H5  UL7 d          91.055  96.592 -41.551  0.00  0.00     0.217 HD
ENDBRANCH  15  17
ENDBRANCH   8   9
ENDBRANCH   1   8
BRANCH   3  19
ATOM     19  N   UL7 d          91.974 102.113 -44.135  0.00  0.00    -0.067 N 
ATOM     20  C   UL7 d          92.526 102.986 -45.247  0.00  0.00     0.238 C 
ATOM     21  C07 UL7 d          92.811 104.375 -44.691  0.00  0.00     0.059 C 
ATOM     22  C06 UL7 d          93.674 104.351 -43.435  0.00  0.00     0.121 C 
ATOM     23  C05 UL7 d          93.091 103.421 -42.382  0.00  0.00     0.059 C 
ATOM     24  C04 UL7 d          92.938 102.023 -42.970  0.00  0.00     0.238 C 
ATOM     25  H1  UL7 d          91.170 102.602 -43.774  0.00  0.00     0.280 HD
BRANCH  22  26
ATOM     26  O   UL7 d          93.737 105.662 -42.902  0.00  0.00    -0.395 OA
ATOM     27  H17 UL7 d          94.100 106.250 -43.553  0.00  0.00     0.210 HD
ENDBRANCH  22  26
ENDBRANCH   3  19
TORSDOF 5
