REMARK  1 active torsions:
REMARK  status: ('A' for Active; 'I' for Inactive)
REMARK    1  A    between atoms: N1_8  and  O1_9 
ROOT
ATOM      1  C6  MOL d          16.133   3.656  13.550  0.00  0.00     0.071 C 
ATOM      2  C5  MOL d          15.532   3.158  14.825  0.00  0.00     0.037 A 
ATOM      3  C4  MOL d          14.865   3.991  15.613  0.00  0.00     0.027 A 
ATOM      4  C3  MOL d          14.329   3.536  16.809  0.00  0.00     0.005 A 
ATOM      5  C2  MOL d          14.497   2.256  17.175  0.00  0.00     0.044 A 
ATOM      6  C1  MOL d          15.225   1.394  16.368  0.00  0.00     0.129 A 
ATOM      7  S1  MOL d          15.486  -0.254  16.868  0.00  0.00    -0.058 SA
ATOM      8  N1  MOL d          15.727   1.827  15.218  0.00  0.00    -0.219 N 
ENDROOT
BRANCH   8   9
ATOM      9  O1  MOL d          16.441   1.003  14.450  0.00  0.00    -0.282 OA
ATOM     10  H7  MOL d          17.201   0.700  14.933  0.00  0.00     0.245 HD
ENDBRANCH   8   9
TORSDOF 1
