REMARK  3 active torsions:
REMARK  status: ('A' for Active; 'I' for Inactive)
REMARK    1  A    between atoms: C14_8  and  N19_13 
REMARK    2  A    between atoms: C15_9  and  C16_10 
REMARK       I    between atoms: N19_13  and  C20_14 
REMARK    3  A    between atoms: C20_14  and  C21_15 
ROOT
ATOM      1  O1  OPA d          13.852  44.735  16.781  0.00  0.00    -0.386 OA
ATOM      2  C2  OPA d          13.886  45.242  18.109  0.00  0.00     0.214 C 
ATOM      3  C3  OPA d          12.453  45.350  18.540  0.00  0.00     0.016 A 
ATOM      4  C4  OPA d          11.371  45.007  17.806  0.00  0.00    -0.021 A 
ATOM      5  C5  OPA d          11.416  44.173  16.564  0.00  0.00     0.067 C 
ATOM      6  C6  OPA d          12.892  43.689  16.522  0.00  0.00     0.172 C 
ATOM      7  S13 OPA d          12.025  46.119  20.043  0.00  0.00    -0.073 SA
ATOM      8  C14 OPA d          10.390  45.907  19.650  0.00  0.00     0.095 A 
ATOM      9  C15 OPA d          10.101  45.382  18.448  0.00  0.00     0.082 A 
ENDROOT
BRANCH   8  10
ATOM     10  N19 OPA d           9.328  46.286  20.515  0.00  0.00    -0.311 N 
ATOM     11  C20 OPA d           9.401  46.947  21.687  0.00  0.00     0.323 C 
ATOM     12  O24 OPA d          10.409  47.198  22.317  0.00  0.00    -0.260 OA
ATOM     13  H7  OPA d           8.409  46.029  20.216  0.00  0.00     0.170 HD
BRANCH  11  14
ATOM     14  C21 OPA d           7.986  47.324  22.266  0.00  0.00     0.270 C 
ATOM     15  O23 OPA d           7.895  48.536  22.884  0.00  0.00    -0.640 OA
ATOM     16  O22 OPA d           7.046  46.586  22.250  0.00  0.00    -0.640 OA
ENDBRANCH  11  14
ENDBRANCH   8  10
BRANCH   9  17
ATOM     17  C16 OPA d           8.691  45.228  17.925  0.00  0.00     0.212 C 
ATOM     18  O18 OPA d           8.524  44.811  16.809  0.00  0.00    -0.644 OA
ATOM     19  O17 OPA d           7.623  45.405  18.680  0.00  0.00    -0.644 OA
ENDBRANCH   9  17
TORSDOF 3
