REMARK  4 active torsions:
REMARK  status: ('A' for Active; 'I' for Inactive)
REMARK    1  A    between atoms: N_1  and  CA_2 
REMARK    2  A    between atoms: CA_2  and  C_3 
REMARK    3  A    between atoms: CA_2  and  CB_5 
REMARK    4  A    between atoms: CB_5  and  CG_6 
ROOT
ATOM      1  CG  TRP d          37.526  23.678 136.507  0.00  0.00    -0.028 A 
ATOM      2  CD1 TRP d          37.305  22.422 136.014  0.00  0.00     0.096 A 
ATOM      3  CD2 TRP d          36.973  23.698 137.833  0.00  0.00    -0.002 A 
ATOM      4  NE1 TRP d          36.634  21.660 136.951  0.00  0.00    -0.365 N 
ATOM      5  CE2 TRP d          36.428  22.416 138.078  0.00  0.00     0.042 A 
ATOM      6  CE3 TRP d          36.901  24.673 138.844  0.00  0.00     0.014 A 
ATOM      7  CZ2 TRP d          35.797  22.086 139.287  0.00  0.00     0.030 A 
ATOM      8  CZ3 TRP d          36.274  24.349 140.043  0.00  0.00     0.001 A 
ATOM      9  CH2 TRP d          35.735  23.062 140.254  0.00  0.00     0.002 A 
ATOM     10  H   TRP d          36.336  20.682 136.824  0.00  0.00     0.165 HD
ENDROOT
BRANCH   1  11
ATOM     11  CB  TRP d          38.239  24.803 135.829  0.00  0.00     0.085 C 
BRANCH  11  12
ATOM     12  CA  TRP d          39.779  24.630 135.802  0.00  0.00     0.287 C 
BRANCH  12  13
ATOM     13  N   TRP d          40.291  24.133 137.081  0.00  0.00    -0.065 N 
ATOM     14  H   TRP d          39.826  23.270 137.317  0.00  0.00     0.275 HD
ATOM     15  H   TRP d          40.117  24.817 137.801  0.00  0.00     0.275 HD
ATOM     16  H   TRP d          41.283  23.970 137.005  0.00  0.00     0.275 HD
ENDBRANCH  12  13
BRANCH  12  17
ATOM     17  C   TRP d          40.438  25.936 135.378  0.00  0.00     0.204 C 
ATOM     18  O   TRP d          40.053  26.495 134.338  0.00  0.00    -0.646 OA
ATOM     19  OXT TRP d          41.348  26.441 136.051  0.00  0.00    -0.646 OA
ENDBRANCH  12  17
ENDBRANCH  11  12
ENDBRANCH   1  11
TORSDOF 4
