REMARK  15 active torsions:
REMARK  status: ('A' for Active; 'I' for Inactive)
REMARK    1  A    between atoms: N1_1  and  C1C_9 
REMARK    2  A    between atoms: C2C_10  and  O2C_11 
REMARK    3  A    between atoms: C3C_12  and  O3C_15 
REMARK    4  A    between atoms: C4C_13  and  C5C_16 
REMARK    5  A    between atoms: C5C_16  and  O5C_17 
REMARK    6  A    between atoms: O5C_17  and  PA_18 
REMARK    7  A    between atoms: PA_18  and  O3A_21 
REMARK    8  A    between atoms: O3A_21  and  PB_22 
REMARK    9  A    between atoms: PB_22  and  O3B_25 
REMARK   10  A    between atoms: O3B_25  and  C1'_26 
REMARK   11  A    between atoms: C2'_27  and  O2'_32 
REMARK   12  A    between atoms: C3'_28  and  O3'_33 
REMARK   13  A    between atoms: C4'_29  and  O4'_34 
REMARK   14  A    between atoms: C5'_30  and  C6'_31 
REMARK   15  A    between atoms: C6'_31  and  O6'_36 
ROOT
ATOM      1  PA  UPG d          59.127  42.494  55.458  0.00  0.00     0.417 P 
ATOM      2  O1A UPG d          58.111  42.174  54.625  0.00  0.00    -0.624 OA
ATOM      3  O2A UPG d          60.019  43.253  54.704  0.00  0.00    -0.624 OA
ENDROOT
BRANCH   1   4
ATOM      4  O5C UPG d          59.789  41.269  55.986  0.00  0.00    -0.287 OA
BRANCH   4   5
ATOM      5  C5C UPG d          60.794  41.347  56.916  0.00  0.00     0.216 C 
BRANCH   5   6
ATOM      6  C4C UPG d          61.647  40.129  56.770  0.00  0.00     0.180 C 
ATOM      7  C3C UPG d          62.283  40.028  55.413  0.00  0.00     0.182 C 
ATOM      8  C2C UPG d          61.460  38.941  54.767  0.00  0.00     0.198 C 
ATOM      9  C1C UPG d          61.109  38.090  55.956  0.00  0.00     0.263 C 
ATOM     10  O4C UPG d          60.972  38.954  57.028  0.00  0.00    -0.353 OA
BRANCH   7  11
ATOM     11  O3C UPG d          63.625  39.702  55.703  0.00  0.00    -0.390 OA
ATOM     12  H9  UPG d          64.111  39.617  54.892  0.00  0.00     0.210 HD
ENDBRANCH   7  11
BRANCH   8  13
ATOM     13  O2C UPG d          62.042  38.227  53.699  0.00  0.00    -0.388 OA
ATOM     14  H6  UPG d          62.236  38.826  52.987  0.00  0.00     0.210 HD
ENDBRANCH   8  13
BRANCH   9  15
ATOM     15  N1  UPG d          59.883  37.313  55.853  0.00  0.00    -0.280 N 
ATOM     16  C2  UPG d          60.027  35.909  55.845  0.00  0.00     0.331 A 
ATOM     17  N3  UPG d          58.947  35.180  55.763  0.00  0.00    -0.275 N 
ATOM     18  O2  UPG d          61.124  35.381  55.913  0.00  0.00    -0.246 OA
ATOM     19  C4  UPG d          57.751  35.755  55.691  0.00  0.00     0.250 A 
ATOM     20  H1  UPG d          59.020  34.183  55.754  0.00  0.00     0.173 HD
ATOM     21  C5  UPG d          57.566  37.139  55.694  0.00  0.00     0.092 A 
ATOM     22  O4  UPG d          56.826  35.018  55.626  0.00  0.00    -0.268 OA
ATOM     23  C6  UPG d          58.693  37.918  55.779  0.00  0.00     0.104 A 
ENDBRANCH   9  15
ENDBRANCH   5   6
ENDBRANCH   4   5
ENDBRANCH   1   4
BRANCH   1  24
ATOM     24  O3A UPG d          58.584  43.250  56.726  0.00  0.00    -0.180 OA
BRANCH  24  25
ATOM     25  PB  UPG d          58.351  44.767  56.963  0.00  0.00     0.420 P 
ATOM     26  O1B UPG d          59.436  45.495  56.444  0.00  0.00    -0.624 OA
ATOM     27  O2B UPG d          57.115  45.162  56.423  0.00  0.00    -0.624 OA
BRANCH  25  28
ATOM     28  O3B UPG d          58.419  44.944  58.501  0.00  0.00    -0.255 OA
BRANCH  28  29
ATOM     29  C1' UPG d          59.446  44.549  59.383  0.00  0.00     0.304 C 
ATOM     30  C2' UPG d          58.914  44.576  60.814  0.00  0.00     0.205 C 
ATOM     31  C3' UPG d          58.594  46.004  61.267  0.00  0.00     0.183 C 
ATOM     32  C4' UPG d          59.827  46.892  61.028  0.00  0.00     0.180 C 
ATOM     33  C5' UPG d          60.303  46.734  59.566  0.00  0.00     0.179 C 
ATOM     34  O5' UPG d          60.583  45.381  59.307  0.00  0.00    -0.348 OA
BRANCH  30  35
ATOM     35  O2' UPG d          57.785  43.755  60.816  0.00  0.00    -0.388 OA
ATOM     36  H19 UPG d          57.133  44.113  60.225  0.00  0.00     0.210 HD
ENDBRANCH  30  35
BRANCH  31  37
ATOM     37  O3' UPG d          58.126  46.044  62.568  0.00  0.00    -0.390 OA
ATOM     38  H20 UPG d          57.368  45.477  62.648  0.00  0.00     0.210 HD
ENDBRANCH  31  37
BRANCH  32  39
ATOM     39  O4' UPG d          59.692  48.265  61.365  0.00  0.00    -0.390 OA
ATOM     40  H21 UPG d          59.399  48.342  62.266  0.00  0.00     0.210 HD
ENDBRANCH  32  39
BRANCH  33  41
ATOM     41  C6' UPG d          61.540  47.569  59.311  0.00  0.00     0.198 C 
BRANCH  41  42
ATOM     42  O6' UPG d          62.329  47.060  58.338  0.00  0.00    -0.398 OA
ATOM     43  H22 UPG d          62.614  46.189  58.587  0.00  0.00     0.209 HD
ENDBRANCH  41  42
ENDBRANCH  33  41
ENDBRANCH  28  29
ENDBRANCH  25  28
ENDBRANCH  24  25
ENDBRANCH   1  24
TORSDOF 15
