REMARK  9 active torsions:
REMARK  status: ('A' for Active; 'I' for Inactive)
REMARK    1  A    between atoms: C4_4  and  N10_10 
REMARK    2  A    between atoms: N5_5  and  C11_11 
REMARK    3  A    between atoms: C6_6  and  N20_20 
REMARK    4  A    between atoms: C13_13  and  C16_16 
REMARK    5  A    between atoms: C14_14  and  O19_19 
REMARK    6  A    between atoms: C15_15  and  O18_18 
REMARK    7  A    between atoms: C16_16  and  O17_17 
REMARK    8  A    between atoms: O17_17  and  C22_22 
REMARK    9  A    between atoms: C22_22  and  C23_23 
REMARK       I    between atoms: C23_23  and  N25_25 
ROOT
ATOM      1  C11 MOL d          16.025  -3.340   1.510  0.00  0.00     0.279 C 
ATOM      2  O12 MOL d          15.871  -1.936   1.775  0.00  0.00    -0.353 OA
ATOM      3  C13 MOL d          14.921  -1.853   2.865  0.00  0.00     0.179 C 
ATOM      4  C14 MOL d          14.988  -3.223   3.584  0.00  0.00     0.182 C 
ATOM      5  C15 MOL d          16.085  -3.949   2.875  0.00  0.00     0.199 C 
ENDROOT
BRANCH   1   6
ATOM      6  N5  MOL d          17.255  -3.512   0.780  0.00  0.00    -0.132 N 
ATOM      7  C6  MOL d          18.461  -2.896   1.034  0.00  0.00     0.706 A 
ATOM      8  N7  MOL d          19.325  -3.247   0.082  0.00  0.00    -0.057 NA
ATOM      9  C8  MOL d          18.675  -4.012  -0.783  0.00  0.00     0.168 A 
ATOM     10  C4  MOL d          19.073  -4.670  -1.879  0.00  0.00     0.156 A 
ATOM     11  C9  MOL d          17.367  -4.169  -0.332  0.00  0.00     0.182 A 
ATOM     12  N1  MOL d          18.148  -5.430  -2.575  0.00  0.00    -0.222 NA
ATOM     13  C2  MOL d          16.842  -5.524  -2.123  0.00  0.00     0.237 A 
ATOM     14  N3  MOL d          16.475  -4.927  -1.032  0.00  0.00    -0.221 NA
BRANCH   7  15
ATOM     15  N20 MOL d          18.674  -2.095   2.085  0.00  0.00    -0.228 N 
ATOM     16  C21 MOL d          19.981  -1.376   2.220  0.00  0.00     0.165 C 
ATOM     17  H12 MOL d          17.941  -1.973   2.799  0.00  0.00     0.177 HD
ENDBRANCH   7  15
BRANCH  10  18
ATOM     18  N10 MOL d          20.368  -4.572  -2.307  0.00  0.00    -0.382 N 
ATOM     19  H2  MOL d          21.044  -4.003  -1.778  0.00  0.00     0.157 HD
ATOM     20  H3  MOL d          20.668  -5.068  -3.159  0.00  0.00     0.157 HD
ENDBRANCH  10  18
ENDBRANCH   1   6
BRANCH   5  21
ATOM     21  O18 MOL d          15.781  -5.360   2.806  0.00  0.00    -0.388 OA
ATOM     22  H10 MOL d          14.967  -5.485   2.333  0.00  0.00     0.210 HD
ENDBRANCH   5  21
BRANCH   3  23
ATOM     23  C16 MOL d          15.401  -0.750   3.790  0.00  0.00     0.203 C 
BRANCH  23  24
ATOM     24  O17 MOL d          16.740  -1.044   4.168  0.00  0.00    -0.379 OA
BRANCH  24  25
ATOM     25  C22 MOL d          17.163  -0.200   5.231  0.00  0.00     0.270 C 
BRANCH  25  26
ATOM     26  C23 MOL d          18.187  -0.961   6.058  0.00  0.00     0.239 C 
ATOM     27  O24 MOL d          18.028  -2.160   6.281  0.00  0.00    -0.271 OA
ATOM     28  N25 MOL d          19.255  -0.345   6.511  0.00  0.00    -0.368 N 
ATOM     29  H18 MOL d          19.928  -0.846   7.055  0.00  0.00     0.159 HD
ATOM     30  H19 MOL d          19.395   0.625   6.312  0.00  0.00     0.159 HD
ENDBRANCH  25  26
ENDBRANCH  24  25
ENDBRANCH  23  24
ENDBRANCH   3  23
BRANCH   4  31
ATOM     31  O19 MOL d          13.757  -3.906   3.399  0.00  0.00    -0.390 OA
ATOM     32  H11 MOL d          13.829  -4.786   3.750  0.00  0.00     0.210 HD
ENDBRANCH   4  31
TORSDOF 9
