REMARK  2 active torsions:
REMARK  status: ('A' for Active; 'I' for Inactive)
REMARK    1  A    between atoms: C14_16  and  N2_2 
REMARK    2  A    between atoms: C8_10  and  C18_20 
ROOT
ATOM      1  N1  HUX d           5.960  69.581  65.309  0.00  0.00    -0.252 NA
ATOM      2  C1  HUX d           6.378  70.635  68.845  0.00  0.00     0.036 A 
ATOM      3  C2  HUX d           6.670  70.277  67.434  0.00  0.00     0.056 A 
ATOM      4  C3  HUX d           5.569  69.950  66.666  0.00  0.00     0.071 A 
ATOM      5  C4  HUX d           4.975  69.198  64.470  0.00  0.00     0.044 A 
ATOM      6  C5  HUX d           5.519  68.784  62.997  0.00  0.00     0.068 C 
ATOM      7  C6  HUX d           4.527  67.880  62.246  0.00  0.00     0.015 C 
ATOM      8  C7  HUX d           4.282  66.405  62.996  0.00  0.00    -0.019 C 
ATOM      9  C8  HUX d           3.305  66.089  63.849  0.00  0.00    -0.083 C 
ATOM     10  C9  HUX d           2.303  67.180  64.150  0.00  0.00     0.043 C 
ATOM     11  C11 HUX d           2.621  68.602  63.709  0.00  0.00     0.027 C 
ATOM     12  C12 HUX d           3.171  68.555  62.217  0.00  0.00     0.018 C 
ATOM     13  C13 HUX d           3.623  69.110  64.752  0.00  0.00    -0.002 A 
ATOM     14  C14 HUX d           3.228  69.512  66.146  0.00  0.00     0.047 A 
ATOM     15  C15 HUX d           4.248  69.912  67.043  0.00  0.00     0.019 A 
ATOM     16  C16 HUX d           3.913  70.303  68.461  0.00  0.00     0.018 A 
ATOM     17  C17 HUX d           4.934  70.630  69.274  0.00  0.00     0.025 A 
ATOM     18 CL1  HUX d           7.560  70.996  69.959  0.00  0.00    -0.084 Cl
ENDROOT
BRANCH  14  19
ATOM     19  N2  HUX d           1.886  69.430  66.469  0.00  0.00    -0.398 N 
ATOM     20  H1  HUX d           1.203  69.130  65.759  0.00  0.00     0.156 HD
ATOM     21  H2  HUX d           1.569  69.669  67.420  0.00  0.00     0.156 HD
ENDBRANCH  14  19
BRANCH   9  22
ATOM     22  C18 HUX d           3.279  64.636  64.466  0.00  0.00     0.029 C 
ATOM     23  C10 HUX d           4.394  63.619  64.131  0.00  0.00     0.010 C 
ENDBRANCH   9  22
TORSDOF 2
