REMARK  14 active torsions:
REMARK  status: ('A' for Active; 'I' for Inactive)
REMARK    1  A    between atoms: N2_42  and  C2_2 
REMARK    2  A    between atoms: C2_2  and  C20_8 
REMARK    3  A    between atoms: C3_3  and  C31_18 
REMARK    4  A    between atoms: C4_4  and  O4_49 
REMARK    5  A    between atoms: C5_5  and  O5_50 
REMARK    6  A    between atoms: C6_6  and  C61_25 
REMARK    7  A    between atoms: N7_43  and  C7_7 
REMARK    8  A    between atoms: C7_7  and  C70_32 
REMARK    9  A    between atoms: C22_10  and  C26_14 
REMARK       I    between atoms: C26_14  and  N26_44 
REMARK   10  A    between atoms: N26_44  and  C27_15 
REMARK   11  A    between atoms: C31_18  and  C32_19 
REMARK   12  A    between atoms: C61_25  and  C62_26 
REMARK   13  A    between atoms: C72_34  and  C76_38 
REMARK       I    between atoms: C76_38  and  N76_46 
REMARK   14  A    between atoms: N76_46  and  C77_39 
ROOT
ATOM      1  C1  MOL d          -8.956  15.312  27.881  0.00  0.00     0.322 C 
ATOM      2  C3  MOL d         -10.923  16.536  28.799  0.00  0.00     0.124 C 
ATOM      3  C4  MOL d         -10.646  18.007  28.572  0.00  0.00     0.172 C 
ATOM      4  C5  MOL d         -10.109  18.321  27.208  0.00  0.00     0.172 C 
ATOM      5  C6  MOL d          -8.752  17.673  27.035  0.00  0.00     0.124 C 
ATOM      6  N2  MOL d          -9.778  15.611  28.899  0.00  0.00    -0.322 N 
ATOM      7  N7  MOL d          -8.651  16.196  26.914  0.00  0.00    -0.322 N 
ATOM      8  O1  MOL d          -8.446  14.202  27.840  0.00  0.00    -0.247 OA
ENDROOT
BRANCH   6   9
ATOM      9  C2  MOL d          -9.623  14.826  30.133  0.00  0.00     0.166 C 
BRANCH   9  10
ATOM     10  C20 MOL d          -9.468  15.582  31.438  0.00  0.00    -0.039 A 
ATOM     11  C25 MOL d          -8.657  16.739  31.570  0.00  0.00     0.009 A 
ATOM     12  C24 MOL d          -8.530  17.396  32.820  0.00  0.00     0.002 A 
ATOM     13  C23 MOL d          -9.225  16.892  33.942  0.00  0.00     0.017 A 
ATOM     14  C22 MOL d         -10.033  15.735  33.815  0.00  0.00     0.033 A 
ATOM     15  C21 MOL d         -10.149  15.087  32.562  0.00  0.00     0.026 A 
BRANCH  14  16
ATOM     16  C26 MOL d         -10.759  15.167  35.010  0.00  0.00     0.257 C 
ATOM     17  O26 MOL d         -11.061  15.800  36.014  0.00  0.00    -0.267 OA
ATOM     18  N26 MOL d         -11.036  13.867  34.875  0.00  0.00    -0.301 N 
ATOM     19  H35 MOL d         -10.793  13.422  34.013  0.00  0.00     0.171 HD
BRANCH  18  20
ATOM     20  C27 MOL d         -11.671  13.058  35.909  0.00  0.00     0.173 A 
ATOM     21  N27 MOL d         -11.698  11.724  35.944  0.00  0.00    -0.236 NA
ATOM     22  C28 MOL d         -12.319  11.237  37.076  0.00  0.00     0.126 A 
ATOM     23  C29 MOL d         -12.809  12.201  37.973  0.00  0.00     0.072 A 
ATOM     24  S29 MOL d         -12.417  13.675  37.272  0.00  0.00    -0.062 SA
ENDBRANCH  18  20
ENDBRANCH  14  16
ENDBRANCH   9  10
ENDBRANCH   6   9
BRANCH   2  25
ATOM     25  C31 MOL d         -12.001  15.909  27.896  0.00  0.00     0.066 C 
BRANCH  25  26
ATOM     26  C32 MOL d         -12.563  14.647  28.493  0.00  0.00    -0.056 A 
ATOM     27  C37 MOL d         -13.424  14.736  29.612  0.00  0.00     0.007 A 
ATOM     28  C36 MOL d         -13.872  13.568  30.256  0.00  0.00     0.001 A 
ATOM     29  C35 MOL d         -13.455  12.304  29.774  0.00  0.00     0.000 A 
ATOM     30  C34 MOL d         -12.606  12.222  28.651  0.00  0.00     0.001 A 
ATOM     31  C33 MOL d         -12.158  13.391  27.999  0.00  0.00     0.007 A 
ENDBRANCH  25  26
ENDBRANCH   2  25
BRANCH   7  32
ATOM     32  C7  MOL d          -7.988  15.671  25.706  0.00  0.00     0.166 C 
BRANCH  32  33
ATOM     33  C70 MOL d          -8.687  15.940  24.403  0.00  0.00    -0.039 A 
ATOM     34  C75 MOL d         -10.096  15.918  24.306  0.00  0.00     0.009 A 
ATOM     35  C74 MOL d         -10.718  16.195  23.065  0.00  0.00     0.002 A 
ATOM     36  C73 MOL d          -9.942  16.499  21.930  0.00  0.00     0.017 A 
ATOM     37  C72 MOL d          -8.535  16.521  22.033  0.00  0.00     0.033 A 
ATOM     38  C71 MOL d          -7.908  16.233  23.269  0.00  0.00     0.026 A 
BRANCH  37  39
ATOM     39  C76 MOL d          -7.722  16.885  20.833  0.00  0.00     0.257 C 
ATOM     40  N76 MOL d          -6.446  16.461  20.869  0.00  0.00    -0.301 N 
ATOM     41  H36 MOL d          -6.116  15.971  21.676  0.00  0.00     0.171 HD
ATOM     42  O76 MOL d          -8.176  17.490  19.874  0.00  0.00    -0.267 OA
BRANCH  40  43
ATOM     43  C77 MOL d          -5.534  16.701  19.757  0.00  0.00     0.173 A 
ATOM     44  N77 MOL d          -4.423  15.982  19.488  0.00  0.00    -0.236 NA
ATOM     45  C78 MOL d          -3.806  16.368  18.315  0.00  0.00     0.126 A 
ATOM     46  C79 MOL d          -4.436  17.424  17.623  0.00  0.00     0.072 A 
ATOM     47  S79 MOL d          -5.788  17.857  18.552  0.00  0.00    -0.062 SA
ENDBRANCH  40  43
ENDBRANCH  37  39
ENDBRANCH  32  33
ENDBRANCH   7  32
BRANCH   3  48
ATOM     48  O4  MOL d         -11.843  18.691  28.738  0.00  0.00    -0.391 OA
ATOM     49  H37 MOL d         -11.697  19.620  28.601  0.00  0.00     0.210 HD
ENDBRANCH   3  48
BRANCH   5  50
ATOM     50  C61 MOL d          -7.664  18.196  27.990  0.00  0.00     0.066 C 
BRANCH  50  51
ATOM     51  C62 MOL d          -6.326  18.076  27.319  0.00  0.00    -0.056 A 
ATOM     52  C67 MOL d          -5.426  17.065  27.720  0.00  0.00     0.007 A 
ATOM     53  C66 MOL d          -4.200  16.947  27.036  0.00  0.00     0.001 A 
ATOM     54  C65 MOL d          -3.891  17.818  25.971  0.00  0.00     0.000 A 
ATOM     55  C64 MOL d          -4.799  18.826  25.574  0.00  0.00     0.001 A 
ATOM     56  C63 MOL d          -6.021  18.956  26.255  0.00  0.00     0.007 A 
ENDBRANCH  50  51
ENDBRANCH   5  50
BRANCH   4  57
ATOM     57  O5  MOL d          -9.919  19.720  27.051  0.00  0.00    -0.391 OA
ATOM     58  H38 MOL d         -10.750  20.166  27.164  0.00  0.00     0.210 HD
ENDBRANCH   4  57
TORSDOF 14
