REMARK  16 active torsions:
REMARK  status: ('A' for Active; 'I' for Inactive)
REMARK    1  A    between atoms: N1_1  and  C17_10 
REMARK       I    between atoms: C16_38  and  N1_1 
REMARK    2  A    between atoms: C6_4  and  C3_26 
REMARK    3  A    between atoms: C7_5  and  C26_15 
REMARK    4  A    between atoms: C8_6  and  C16_38 
REMARK    5  A    between atoms: C9_34  and  C10_7 
REMARK    6  A    between atoms: C20_11  and  S_42 
REMARK    7  A    between atoms: C26_15  and  C27_25 
REMARK    8  A    between atoms: C28_16  and  C29_23 
REMARK    9  A    between atoms: C28_16  and  O3_24 
REMARK   10  A    between atoms: C27_25  and  C28_16 
REMARK   11  A    between atoms: C31_20  and  C32_18 
REMARK   12  A    between atoms: C30_21  and  C31_20 
REMARK   13  A    between atoms: C30_21  and  O4_22 
REMARK   14  A    between atoms: C29_23  and  C30_21 
REMARK   15  A    between atoms: N_31  and  C23_32 
REMARK   16  A    between atoms: S_42  and  N2_45 
ROOT
ATOM      1  C6  MOL d          18.176  23.771  15.362  0.00  0.00     0.010 A 
ATOM      2  C7  MOL d          18.009  23.582  14.003  0.00  0.00     0.025 A 
ATOM      3  C8  MOL d          20.063  24.355  14.353  0.00  0.00     0.116 A 
ATOM      4  N   MOL d          19.179  23.941  13.411  0.00  0.00    -0.340 N 
ATOM      5  C9  MOL d          19.449  24.206  15.595  0.00  0.00     0.020 A 
ENDROOT
BRANCH   3   6
ATOM      6  C16 MOL d          21.477  24.797  14.141  0.00  0.00     0.273 C 
ATOM      7  N1  MOL d          21.772  26.098  14.156  0.00  0.00    -0.322 N 
ATOM      8  H1  MOL d          21.041  26.727  14.420  0.00  0.00     0.169 HD
ATOM      9  O   MOL d          22.173  23.976  13.570  0.00  0.00    -0.266 OA
BRANCH   7  10
ATOM     10  C17 MOL d          22.981  26.647  13.843  0.00  0.00     0.035 A 
ATOM     11  C22 MOL d          24.218  25.996  13.944  0.00  0.00     0.031 A 
ATOM     12  C21 MOL d          25.392  26.661  13.565  0.00  0.00     0.027 A 
ATOM     13  C20 MOL d          25.343  27.970  13.070  0.00  0.00     0.079 A 
ATOM     14  C19 MOL d          24.111  28.612  12.967  0.00  0.00     0.027 A 
ATOM     15  C18 MOL d          22.946  27.946  13.338  0.00  0.00     0.031 A 
BRANCH  13  16
ATOM     16  S   MOL d          26.663  28.772  12.643  0.00  0.00     0.256 S 
ATOM     17  O1  MOL d          27.739  27.898  12.294  0.00  0.00    -0.201 OA
ATOM     18  O2  MOL d          26.359  29.632  11.529  0.00  0.00    -0.201 OA
BRANCH  16  19
ATOM     19  N2  MOL d          27.059  29.699  13.885  0.00  0.00    -0.324 N 
ATOM     20  H34 MOL d          27.863  30.291  13.831  0.00  0.00     0.169 HD
ATOM     21  H35 MOL d          26.502  29.687  14.716  0.00  0.00     0.169 HD
ENDBRANCH  16  19
ENDBRANCH  13  16
ENDBRANCH   7  10
ENDBRANCH   3   6
BRANCH   4  22
ATOM     22  C23 MOL d          19.372  23.914  11.920  0.00  0.00     0.082 C 
ATOM     23  C24 MOL d          19.860  25.276  11.424  0.00  0.00     0.032 C 
ATOM     24  C25 MOL d          20.250  22.757  11.473  0.00  0.00     0.032 C 
ENDBRANCH   4  22
BRANCH   5  25
ATOM     25  C10 MOL d          19.979  24.555  16.948  0.00  0.00    -0.023 A 
ATOM     26  C15 MOL d          20.085  23.638  17.985  0.00  0.00     0.012 A 
ATOM     27  C14 MOL d          20.574  24.039  19.230  0.00  0.00     0.001 A 
ATOM     28  C13 MOL d          20.944  25.363  19.456  0.00  0.00     0.000 A 
ATOM     29  C12 MOL d          20.830  26.293  18.426  0.00  0.00     0.001 A 
ATOM     30  C11 MOL d          20.338  25.886  17.185  0.00  0.00     0.012 A 
ENDBRANCH   5  25
BRANCH   2  31
ATOM     31  C26 MOL d          16.750  23.107  13.318  0.00  0.00     0.061 C 
BRANCH  31  32
ATOM     32  C27 MOL d          16.901  21.719  12.734  0.00  0.00     0.038 C 
BRANCH  32  33
ATOM     33  C28 MOL d          15.531  21.172  12.330  0.00  0.00     0.120 C 
BRANCH  33  34
ATOM     34  C29 MOL d          15.533  19.658  12.445  0.00  0.00     0.064 C 
BRANCH  34  35
ATOM     35  C30 MOL d          15.448  19.220  13.896  0.00  0.00     0.130 C 
BRANCH  35  36
ATOM     36  C31 MOL d          15.694  17.724  14.007  0.00  0.00     0.144 C 
BRANCH  36  37
ATOM     37  C32 MOL d          15.792  17.359  15.461  0.00  0.00     0.175 C 
ATOM     38  O5  MOL d          16.804  17.636  16.100  0.00  0.00    -0.648 OA
ATOM     39  O6  MOL d          14.763  16.764  16.051  0.00  0.00    -0.648 OA
ENDBRANCH  36  37
ENDBRANCH  35  36
BRANCH  35  40
ATOM     40  O4  MOL d          14.161  19.549  14.379  0.00  0.00    -0.395 OA
ATOM     41  H17 MOL d          14.025  20.486  14.302  0.00  0.00     0.210 HD
ENDBRANCH  35  40
ENDBRANCH  34  35
ENDBRANCH  33  34
BRANCH  33  42
ATOM     42  O3  MOL d          15.256  21.515  10.981  0.00  0.00    -0.395 OA
ATOM     43  H20 MOL d          15.251  22.461  10.891  0.00  0.00     0.210 HD
ENDBRANCH  33  42
ENDBRANCH  32  33
ENDBRANCH  31  32
ENDBRANCH   2  31
BRANCH   1  44
ATOM     44  C3  MOL d          17.139  23.457  16.390  0.00  0.00    -0.023 A 
ATOM     45  C4  MOL d          16.535  24.424  17.181  0.00  0.00     0.015 A 
ATOM     46  C5  MOL d          15.570  24.043  18.118  0.00  0.00     0.043 A 
ATOM     47  C   MOL d          15.231  22.701  18.273  0.00  0.00     0.116 A 
ATOM     48  C1  MOL d          15.842  21.732  17.487  0.00  0.00     0.043 A 
ATOM     49  F   MOL d          14.307  22.330  19.175  0.00  0.00    -0.206 F 
ATOM     50  C2  MOL d          16.795  22.116  16.550  0.00  0.00     0.015 A 
ENDBRANCH   1  44
TORSDOF 16
