REMARK  8 active torsions:
REMARK  status: ('A' for Active; 'I' for Inactive)
REMARK    1  A    between atoms: N_1  and  CA_2 
REMARK    2  A    between atoms: CA_2  and  CB_3 
REMARK    3  A    between atoms: CA_2  and  C_7 
REMARK    4  A    between atoms: CB_3  and  CG_4 
REMARK    5  A    between atoms: CG_4  and  CD_5 
REMARK    6  A    between atoms: CD_5  and  NE_6 
REMARK       I    between atoms: NE_6  and  C1_10 
REMARK    7  A    between atoms: C1_10  and  C1P_12 
REMARK    8  A    between atoms: C1P_12  and  P_13 
ROOT
ATOM      1  CG  PAO d           1.642   2.982 -22.812  0.00  0.00     0.022 C 
ENDROOT
BRANCH   1   2
ATOM      2  CB  PAO d           3.014   3.188 -23.458  0.00  0.00     0.045 C 
BRANCH   2   3
ATOM      3  CA  PAO d           3.964   4.126 -22.705  0.00  0.00     0.283 C 
BRANCH   3   4
ATOM      4  N   PAO d           5.124   4.377 -23.540  0.00  0.00    -0.065 N 
ATOM      5  H1  PAO d           4.829   4.794 -24.409  0.00  0.00     0.275 HD
ATOM      6  H2  PAO d           5.597   3.507 -23.728  0.00  0.00     0.275 HD
ATOM      7  H3  PAO d           5.752   5.005 -23.063  0.00  0.00     0.275 HD
ENDBRANCH   3   4
BRANCH   3   8
ATOM      8  C   PAO d           4.453   3.498 -21.406  0.00  0.00     0.204 C 
ATOM      9  O   PAO d           4.035   3.945 -20.341  0.00  0.00    -0.646 OA
ATOM     10  OXT PAO d           5.271   2.584 -21.469  0.00  0.00    -0.646 OA
ENDBRANCH   3   8
ENDBRANCH   2   3
ENDBRANCH   1   2
BRANCH   1  11
ATOM     11  CD  PAO d           0.804   1.974 -23.608  0.00  0.00     0.122 C 
BRANCH  11  12
ATOM     12  NE  PAO d          -0.603   2.095 -23.257  0.00  0.00    -0.361 N 
ATOM     13  C1  PAO d          -1.460   1.069 -23.284  0.00  0.00     0.230 C 
ATOM     14  O1  PAO d          -1.148  -0.084 -23.582  0.00  0.00    -0.273 OA
ATOM     15  H11 PAO d          -0.947   2.993 -22.981  0.00  0.00     0.162 HD
BRANCH  13  16
ATOM     16  C1P PAO d          -2.864   1.436 -22.843  0.00  0.00     0.248 C 
BRANCH  16  17
ATOM     17  P   PAO d          -3.106   0.857 -21.145  0.00  0.00     0.268 P 
ATOM     18  O1P PAO d          -1.848   1.259 -20.243  0.00  0.00    -0.639 OA
ATOM     19  O2P PAO d          -3.263  -0.722 -21.132  0.00  0.00    -0.639 OA
ATOM     20  O3P PAO d          -4.417   1.534 -20.541  0.00  0.00    -0.639 OA
ENDBRANCH  16  17
ENDBRANCH  13  16
ENDBRANCH  11  12
ENDBRANCH   1  11
TORSDOF 8
