REMARK  8 active torsions:
REMARK  status: ('A' for Active; 'I' for Inactive)
REMARK       I    between atoms: CAV_2  and  NAT_4 
REMARK    1  A    between atoms: NAT_4  and  CBE_5 
REMARK    2  A    between atoms: CBE_5  and  CBG_6 
REMARK    3  A    between atoms: CBE_5  and  CAX_10 
REMARK       I    between atoms: CAX_10  and  N_12 
REMARK    4  A    between atoms: CG_14  and  OD1_15 
REMARK    5  A    between atoms: CA_17  and  C_18 
REMARK       I    between atoms: C_18  and  NAS_20 
REMARK    6  A    between atoms: NAS_20  and  CAO_21 
REMARK    7  A    between atoms: CAO_21  and  CAY_22 
REMARK    8  A    between atoms: CBA_27  and  CBB_28 
ROOT
ATOM      1  CAX MOL d          11.794  53.809  91.740  0.00  0.00     0.244 C 
ATOM      2  OAH MOL d          10.642  53.641  91.356  0.00  0.00    -0.271 OA
ATOM      3  N   MOL d          12.788  54.082  90.866  0.00  0.00    -0.334 N 
ATOM      4  CD2 MOL d          14.243  54.377  91.051  0.00  0.00     0.158 C 
ATOM      5  CG  MOL d          14.628  55.201  89.816  0.00  0.00     0.138 C 
ATOM      6  CB  MOL d          13.783  54.625  88.725  0.00  0.00     0.068 C 
ATOM      7  CA  MOL d          12.460  54.203  89.380  0.00  0.00     0.181 C 
ENDROOT
BRANCH   7   8
ATOM      8  C   MOL d          12.021  53.010  88.765  0.00  0.00     0.241 C 
ATOM      9  O   MOL d          12.449  51.930  89.156  0.00  0.00    -0.271 OA
ATOM     10  NAS MOL d          11.216  53.128  87.681  0.00  0.00    -0.355 N 
ATOM     11  H   MOL d          10.918  54.036  87.385  0.00  0.00     0.162 HD
BRANCH  10  12
ATOM     12  CAO MOL d          10.775  51.946  86.936  0.00  0.00     0.161 C 
BRANCH  12  13
ATOM     13  CAY MOL d          11.579  51.775  85.766  0.00  0.00    -0.040 A 
ATOM     14  CAK MOL d          12.409  52.768  85.227  0.00  0.00     0.010 A 
ATOM     15  CAM MOL d          13.179  52.524  84.077  0.00  0.00     0.013 A 
ATOM     16  CBA MOL d          13.145  51.290  83.427  0.00  0.00    -0.017 A 
ATOM     17  CAL MOL d          12.315  50.298  83.974  0.00  0.00     0.013 A 
ATOM     18  CAJ MOL d          11.553  50.539  85.117  0.00  0.00     0.010 A 
BRANCH  16  19
ATOM     19  CBB MOL d          13.876  51.067  82.311  0.00  0.00     0.040 A 
ATOM     20  SAU MOL d          15.502  51.465  82.054  0.00  0.00    -0.080 SA
ATOM     21  CAN MOL d          15.570  50.864  80.503  0.00  0.00     0.167 A 
ATOM     22  NAR MOL d          14.364  50.376  80.196  0.00  0.00    -0.258 NA
ATOM     23  CAZ MOL d          13.444  50.486  81.170  0.00  0.00     0.049 A 
ATOM     24  CAB MOL d          12.032  49.944  80.921  0.00  0.00     0.072 C 
ENDBRANCH  16  19
ENDBRANCH  12  13
ENDBRANCH  10  12
ENDBRANCH   7   8
BRANCH   1  25
ATOM     25  CBE MOL d          12.105  53.753  93.264  0.00  0.00     0.184 C 
BRANCH  25  26
ATOM     26  NAT MOL d          10.983  54.468  93.902  0.00  0.00    -0.347 N 
ATOM     27  CAV MOL d          11.105  55.649  94.539  0.00  0.00     0.214 C 
ATOM     28  CAA MOL d           9.795  56.244  95.088  0.00  0.00     0.117 C 
ATOM     29  OAF MOL d          12.164  56.222  94.763  0.00  0.00    -0.274 OA
ATOM     30  H   MOL d          10.076  54.050  93.859  0.00  0.00     0.163 HD
ENDBRANCH  25  26
BRANCH  25  31
ATOM     31  CBG MOL d          12.246  52.307  93.815  0.00  0.00    -0.022 C 
ATOM     32  CAD MOL d          12.577  52.360  95.312  0.00  0.00     0.017 C 
ATOM     33  CAE MOL d          13.396  51.584  93.092  0.00  0.00     0.017 C 
ATOM     34  CAC MOL d          10.936  51.485  93.675  0.00  0.00     0.017 C 
ENDBRANCH  25  31
ENDBRANCH   1  25
BRANCH   5  35
ATOM     35  OD1 MOL d          14.296  56.590  89.968  0.00  0.00    -0.394 OA
ATOM     36  H   MOL d          14.550  57.063  89.184  0.00  0.00     0.210 HD
ENDBRANCH   5  35
TORSDOF 8
