REMARK  7 active torsions:
REMARK  status: ('A' for Active; 'I' for Inactive)
REMARK       I    between atoms: C27_2  and  N29_3 
REMARK    1  A    between atoms: C27_2  and  C26_5 
REMARK    2  A    between atoms: N29_3  and  O30_4 
REMARK    3  A    between atoms: C26_5  and  C25_6 
REMARK    4  A    between atoms: C26_5  and  N1_17 
REMARK    5  A    between atoms: C25_6  and  C15_7 
REMARK    6  A    between atoms: N1_17  and  S2_18 
REMARK    7  A    between atoms: S2_18  and  C3_21 
ROOT
ATOM      1  C26 GVR d          57.209  40.042  17.624  0.00  0.00     0.191 C 
ENDROOT
BRANCH   1   2
ATOM      2  C27 GVR d          57.270  40.912  18.844  0.00  0.00     0.264 C 
ATOM      3  O28 GVR d          56.626  40.632  19.848  0.00  0.00    -0.269 OA
ATOM      4  N29 GVR d          58.036  41.994  18.838  0.00  0.00    -0.236 N 
ATOM      5  H1  GVR d          58.571  42.250  18.033  0.00  0.00     0.197 HD
BRANCH   4   6
ATOM      6  O30 GVR d          58.064  42.764  20.009  0.00  0.00    -0.287 OA
ATOM      7  H2  GVR d          57.187  43.074  20.204  0.00  0.00     0.244 HD
ENDBRANCH   4   6
ENDBRANCH   1   2
BRANCH   1   8
ATOM      8  C25 GVR d          55.978  40.333  16.784  0.00  0.00     0.074 C 
BRANCH   8   9
ATOM      9  C15 GVR d          55.739  39.243  15.754  0.00  0.00    -0.055 A 
ATOM     10  C16 GVR d          55.790  39.551  14.394  0.00  0.00     0.008 A 
ATOM     11  C17 GVR d          55.554  38.572  13.430  0.00  0.00     0.013 A 
ATOM     12  C20 GVR d          55.252  37.272  13.818  0.00  0.00    -0.026 A 
ATOM     13  C21 GVR d          55.011  36.258  12.888  0.00  0.00     0.012 A 
ATOM     14  C19 GVR d          55.194  36.944  15.258  0.00  0.00    -0.025 A 
ATOM     15  C22 GVR d          54.707  34.975  13.338  0.00  0.00     0.001 A 
ATOM     16  C23 GVR d          54.662  34.665  14.698  0.00  0.00     0.001 A 
ATOM     17  C24 GVR d          54.895  35.649  15.663  0.00  0.00     0.012 A 
ATOM     18  C18 GVR d          55.434  37.957  16.178  0.00  0.00     0.019 A 
ENDBRANCH   8   9
ENDBRANCH   1   8
BRANCH   1  19
ATOM     19  N1  GVR d          58.358  40.214  16.771  0.00  0.00    -0.301 N 
ATOM     20  H13 GVR d          58.376  40.944  16.088  0.00  0.00     0.173 HD
BRANCH  19  21
ATOM     21  S2  GVR d          59.588  39.237  16.926  0.00  0.00     0.259 S 
ATOM     22  O13 GVR d          59.955  39.158  18.310  0.00  0.00    -0.201 OA
ATOM     23  O14 GVR d          60.653  39.742  16.107  0.00  0.00    -0.201 OA
BRANCH  21  24
ATOM     24  C3  GVR d          59.135  37.791  16.364  0.00  0.00     0.080 A 
ATOM     25  C4  GVR d          58.899  37.660  14.987  0.00  0.00     0.026 A 
ATOM     26  C5  GVR d          58.508  36.440  14.422  0.00  0.00     0.014 A 
ATOM     27  C8  GVR d          58.347  35.315  15.222  0.00  0.00    -0.026 A 
ATOM     28  C9  GVR d          57.963  34.086  14.688  0.00  0.00     0.012 A 
ATOM     29  C7  GVR d          58.591  35.438  16.678  0.00  0.00    -0.025 A 
ATOM     30  C10 GVR d          57.808  32.979  15.523  0.00  0.00     0.001 A 
ATOM     31  C11 GVR d          58.024  33.090  16.896  0.00  0.00     0.001 A 
ATOM     32  C12 GVR d          58.425  34.301  17.475  0.00  0.00     0.012 A 
ATOM     33  C6  GVR d          58.979  36.675  17.205  0.00  0.00     0.037 A 
ENDBRANCH  21  24
ENDBRANCH  19  21
ENDBRANCH   1  19
TORSDOF 7
