REMARK  16 active torsions:
REMARK  status: ('A' for Active; 'I' for Inactive)
REMARK    1  A    between atoms: N_1  and  CA_2 
REMARK    2  A    between atoms: CA_2  and  C_3 
REMARK       I    between atoms: C_3  and  N_6 
REMARK    3  A    between atoms: N_6  and  CA_7 
REMARK    4  A    between atoms: CA_7  and  C_8 
REMARK    5  A    between atoms: CA_7  and  CB_10 
REMARK       I    between atoms: C_8  and  N_14 
REMARK    6  A    between atoms: CB_10  and  CG_11 
REMARK    7  A    between atoms: CG_11  and  SD_12 
REMARK    8  A    between atoms: N_14  and  CA_15 
REMARK    9  A    between atoms: CA_15  and  C_16 
REMARK   10  A    between atoms: CA_15  and  CB_18 
REMARK       I    between atoms: C_16  and  N_25 
REMARK   11  A    between atoms: CB_18  and  CG_19 
REMARK   12  A    between atoms: CG_19  and  CD_20 
REMARK   13  A    between atoms: CD_20  and  NE_21 
REMARK       I    between atoms: NE_21  and  CZ_22 
REMARK       I    between atoms: CZ_22  and  NH1_23 
REMARK   14  A    between atoms: N_25  and  CA_26 
REMARK   15  A    between atoms: CA_26  and  C_27 
REMARK   16  A    between atoms: CA_26  and  CB_29 
ROOT
ATOM      1  CA  ALA d         -33.376 -29.184 -12.477  0.00  0.00     0.176 C 
ENDROOT
BRANCH   1   2
ATOM      2  N   ALA d         -34.061 -28.937 -11.228  0.00  0.00    -0.346 N 
ATOM      3  C   ALA d         -35.251 -28.368 -11.218  0.00  0.00     0.241 C 
ATOM      4  O   ALA d         -35.750 -27.826 -12.226  0.00  0.00    -0.271 OA
ATOM      5  H17 ALA d         -33.629 -29.200 -10.365  0.00  0.00     0.163 HD
BRANCH   3   6
ATOM      6  CA  ALA d         -35.973 -28.418  -9.876  0.00  0.00     0.177 C 
BRANCH   6   7
ATOM      7  N   ALA d         -36.935 -27.353  -9.769  0.00  0.00    -0.346 N 
ATOM      8  C   ALA d         -36.954 -26.599  -8.686  0.00  0.00     0.248 C 
ATOM      9  O   ALA d         -36.159 -26.764  -7.725  0.00  0.00    -0.271 OA
ATOM     10  H8  ALA d         -37.585 -27.185 -10.510  0.00  0.00     0.163 HD
BRANCH   8  11
ATOM     11  CA  ALA d         -38.051 -25.514  -8.669  0.00  0.00     0.270 C 
ATOM     12  CB  ALA d         -37.743 -24.389  -9.649  0.00  0.00     0.050 C 
BRANCH  11  13
ATOM     13  N   ALA d         -38.135 -25.033  -7.283  0.00  0.00    -0.067 N 
ATOM     14  H1  ALA d         -38.842 -24.318  -7.218  0.00  0.00     0.275 HD
ATOM     15  H2  ALA d         -37.245 -24.651  -7.005  0.00  0.00     0.275 HD
ATOM     16  H3  ALA d         -38.376 -25.800  -6.675  0.00  0.00     0.275 HD
ENDBRANCH  11  13
ENDBRANCH   8  11
ENDBRANCH   6   7
BRANCH   6  17
ATOM     17  CB  ALA d         -36.667 -29.769  -9.595  0.00  0.00     0.045 C 
BRANCH  17  18
ATOM     18  CG  ALA d         -37.666 -30.241 -10.631  0.00  0.00     0.076 C 
BRANCH  18  19
ATOM     19  SD  ALA d         -38.699 -31.613  -9.969  0.00  0.00    -0.173 SA
ATOM     20  CE  ALA d         -37.659 -33.019 -10.423  0.00  0.00     0.089 C 
ENDBRANCH  18  19
ENDBRANCH  17  18
ENDBRANCH   6  17
ENDBRANCH   3   6
ENDBRANCH   1   2
BRANCH   1  21
ATOM     21  C   ALA d         -34.090 -30.180 -13.336  0.00  0.00     0.241 C 
ATOM     22  O   ALA d         -34.785 -31.077 -12.857  0.00  0.00    -0.271 OA
ATOM     23  N   ALA d         -33.912 -29.958 -14.625  0.00  0.00    -0.344 N 
ATOM     24  H30 ALA d         -33.305 -29.209 -14.891  0.00  0.00     0.163 HD
BRANCH  23  25
ATOM     25  CA  ALA d         -34.526 -30.714 -15.658  0.00  0.00     0.189 C 
BRANCH  25  26
ATOM     26  C   ALA d         -33.713 -31.965 -15.884  0.00  0.00     0.197 C 
ATOM     27  O   ALA d         -34.305 -33.016 -16.109  0.00  0.00    -0.646 OA
ATOM     28  H   ALA d         -32.624 -31.936 -15.848  0.00  0.00    -0.646 OA
ENDBRANCH  25  26
BRANCH  25  29
ATOM     29  CB  ALA d         -34.575 -29.911 -16.949  0.00  0.00     0.010 C 
ATOM     30  CG1 ALA d         -35.080 -30.778 -18.094  0.00  0.00     0.012 C 
ATOM     31  CG2 ALA d         -35.469 -28.699 -16.767  0.00  0.00     0.012 C 
ENDBRANCH  25  29
ENDBRANCH  23  25
ENDBRANCH   1  21
BRANCH   1  32
ATOM     32  CB  ALA d         -31.956 -29.667 -12.229  0.00  0.00     0.036 C 
BRANCH  32  33
ATOM     33  CG  ALA d         -31.069 -28.471 -11.987  0.00  0.00     0.023 C 
BRANCH  33  34
ATOM     34  CD  ALA d         -29.754 -28.894 -11.444  0.00  0.00     0.138 C 
BRANCH  34  35
ATOM     35  NE  ALA d         -29.978 -29.558 -10.192  0.00  0.00    -0.227 N 
ATOM     36  CZ  ALA d         -29.042 -30.185  -9.511  0.00  0.00     0.665 C 
ATOM     37  NH1 ALA d         -27.784 -30.240  -9.969  0.00  0.00    -0.235 N 
ATOM     38  NH2 ALA d         -29.382 -30.747  -8.363  0.00  0.00    -0.235 N 
ATOM     39  H26 ALA d         -27.060 -30.733  -9.428  0.00  0.00     0.174 HD
ATOM     40  H27 ALA d         -27.541 -29.789 -10.863  0.00  0.00     0.174 HD
ATOM     41  H28 ALA d         -30.355 -30.692  -8.031  0.00  0.00     0.174 HD
ATOM     42  H29 ALA d         -28.673 -31.240  -7.801  0.00  0.00     0.174 HD
ATOM     43  H25 ALA d         -30.931 -29.543  -9.802  0.00  0.00     0.177 HD
ENDBRANCH  34  35
ENDBRANCH  33  34
ENDBRANCH  32  33
ENDBRANCH   1  32
TORSDOF 16
