REMARK  8 active torsions:
REMARK  status: ('A' for Active; 'I' for Inactive)
REMARK    1  A    between atoms: C01_1  and  C04_4 
REMARK    2  A    between atoms: C07_7  and  C09_9 
REMARK    3  A    between atoms: C12_12  and  C15_15 
REMARK    4  A    between atoms: C15_15  and  O16_16 
REMARK    5  A    between atoms: O16_16  and  C17_17 
REMARK    6  A    between atoms: C20_20  and  C23_23 
REMARK    7  A    between atoms: C25_25  and  C35_35 
REMARK    8  A    between atoms: N27_27  and  C28_28 
ROOT
ATOM      1  C17 1XT d          -9.937  12.242 -24.987  0.00  0.00     0.069 A 
ATOM      2  C18 1XT d          -8.955  11.282 -25.166  0.00  0.00     0.037 A 
ATOM      3  C19 1XT d          -7.633  11.561 -24.846  0.00  0.00     0.016 A 
ATOM      4  C20 1XT d          -7.293  12.807 -24.347  0.00  0.00    -0.007 A 
ATOM      5  C21 1XT d          -8.283  13.763 -24.170  0.00  0.00     0.016 A 
ATOM      6  C22 1XT d          -9.605  13.490 -24.485  0.00  0.00     0.037 A 
ENDROOT
BRANCH   1   7
ATOM      7  O16 1XT d         -11.241  11.956 -25.315  0.00  0.00    -0.347 OA
BRANCH   7   8
ATOM      8  C15 1XT d         -11.834  10.854 -24.738  0.00  0.00     0.214 C 
BRANCH   8   9
ATOM      9  C12 1XT d         -12.951  11.090 -23.778  0.00  0.00    -0.034 A 
ATOM     10  C11 1XT d         -12.824  12.041 -22.775  0.00  0.00     0.010 A 
ATOM     11  C10 1XT d         -13.870  12.245 -21.887  0.00  0.00     0.015 A 
ATOM     12  C09 1XT d         -15.039  11.502 -22.012  0.00  0.00    -0.002 A 
ATOM     13  C14 1XT d         -15.164  10.556 -23.018  0.00  0.00     0.015 A 
ATOM     14  C13 1XT d         -14.115  10.347 -23.900  0.00  0.00     0.010 A 
BRANCH  12  15
ATOM     15  C07 1XT d         -16.156  11.726 -21.048  0.00  0.00     0.086 A 
ATOM     16  C06 1XT d         -17.294  10.925 -20.872  0.00  0.00     0.041 A 
ATOM     17  C05 1XT d         -18.049  11.556 -19.829  0.00  0.00     0.047 A 
ATOM     18  C04 1XT d         -17.291  12.680 -19.466  0.00  0.00     0.152 A 
ATOM     19  O08 1XT d         -16.203  12.727 -20.202  0.00  0.00    -0.303 OA
BRANCH  18  20
ATOM     20  C01 1XT d         -17.617  13.699 -18.424  0.00  0.00     0.234 C 
ATOM     21  O02 1XT d         -18.607  13.541 -17.652  0.00  0.00    -0.642 OA
ATOM     22  O03 1XT d         -16.879  14.724 -18.340  0.00  0.00    -0.642 OA
ENDBRANCH  18  20
ENDBRANCH  12  15
ENDBRANCH   8   9
ENDBRANCH   7   8
ENDBRANCH   1   7
BRANCH   4  23
ATOM     23  C23 1XT d          -5.881  13.148 -23.978  0.00  0.00     0.071 A 
ATOM     24  C24 1XT d          -5.204  14.358 -24.308  0.00  0.00     0.073 A 
ATOM     25  C25 1XT d          -3.910  14.221 -23.737  0.00  0.00     0.156 A 
ATOM     26  N26 1XT d          -3.874  13.046 -23.134  0.00  0.00    -0.160 NA
ATOM     27  N27 1XT d          -5.023  12.412 -23.266  0.00  0.00    -0.233 N 
BRANCH  25  28
ATOM     28  C35 1XT d          -2.777  15.190 -23.772  0.00  0.00     0.230 C 
ATOM     29  O36 1XT d          -2.197  15.484 -22.692  0.00  0.00    -0.643 OA
ATOM     30  O37 1XT d          -2.399  15.696 -24.861  0.00  0.00    -0.643 OA
ENDBRANCH  25  28
BRANCH  27  31
ATOM     31  C28 1XT d          -5.232  11.119 -22.700  0.00  0.00     0.059 A 
ATOM     32  C29 1XT d          -4.967   9.986 -23.453  0.00  0.00     0.038 A 
ATOM     33  C30 1XT d          -5.151   8.732 -22.895  0.00  0.00    -0.060 A 
ATOM     34  C31 1XT d          -5.590   8.620 -21.588  0.00  0.00     0.007 A 
ATOM     35  C34 1XT d          -4.879   7.507 -23.706  0.00  0.00     0.048 C 
ATOM     36  C32 1XT d          -5.849   9.752 -20.829  0.00  0.00     0.003 A 
ATOM     37  C33 1XT d          -5.662  11.006 -21.386  0.00  0.00     0.031 A 
ENDBRANCH  27  31
ENDBRANCH   4  23
TORSDOF 8
