3c8e_ligand

Created by X-TOOL on Fri Sep 26 17:34:43 2014
 36 35  0  0  0  0  0  0  0  0999 V2000
   41.9840   69.0650   14.9060  N 0  3  0  4  0  4
   41.2340   69.4320   13.7190  C 0  0  0  2  0  4
   40.2350   70.4880   13.8670  C 0  5  0  1  0  3
   39.6070   70.2790   14.8900  O 0  0  0  1  0  1
   39.9660   71.3710   13.0580  O 0  0  0  1  0  1
   41.0550   68.3100   12.6780  C 0  0  0  3  0  4
   40.5410   68.9280   11.3700  C 0  0  0  3  0  4
   40.3570   67.8080   10.3350  C 0  0  0  1  0  3
   40.6530   66.5260   10.6790  O 0  0  0  1  0  1
   39.8940   68.1250    9.1160  N 0  0  0  2  0  3
   39.8400   67.0250    8.1110  C 0  0  0  2  0  4
   40.6620   67.3870    6.9220  C 0  0  0  1  0  3
   40.6550   68.6660    6.5050  O 0  0  0  1  0  1
   38.4090   66.9310    7.6410  C 0  0  0  3  0  4
   37.2710   66.6760    9.0460  S 0  0  0  2  0  2
   41.4150   66.4560    6.3270  N 0  0  0  2  0  3
   42.2810   66.8340    5.2100  C 0  0  0  3  0  4
   43.4330   65.8800    5.0870  C 0  5  0  1  0  3
   43.6010   65.0000    5.9630  O 0  0  0  1  0  1
   44.2400   66.0950    4.1220  O 0  0  0  1  0  1
   42.6368   68.3317   14.6776  H 0  0  0  1  0  1
   41.3487   68.7395   15.6176  H 0  0  0  1  0  1
   42.4875   69.8688   15.2472  H 0  0  0  1  0  1
   42.0046   70.0174   13.1960  H 0  0  0  1  0  1
   40.3279   67.5730   13.0497  H 0  0  0  1  0  1
   42.0204   67.8143   12.4986  H 0  0  0  1  0  1
   41.2701   69.6617   10.9957  H 0  0  0  1  0  1
   39.5776   69.4274   11.5501  H 0  0  0  1  0  1
   39.5994   69.0541    8.8925  H 0  0  0  1  0  1
   40.1825   66.0763    8.5499  H 0  0  0  1  0  1
   38.3145   66.0851    6.9442  H 0  0  0  1  0  1
   38.1385   67.8637    7.1244  H 0  0  0  1  0  1
   36.3247   66.6170    8.7039  H 0  0  0  1  0  1
   41.3864   65.5078    6.6433  H 0  0  0  1  0  1
   42.6691   67.8489    5.3811  H 0  0  0  1  0  1
   41.6968   66.8171    4.2781  H 0  0  0  1  0  1
  1  2  1  0  0  2
  2  3  1  0  0  2
  2  6  1  0  0  2
  3  4  2  0  0  2
  3  5  2  0  0  2
  6  7  1  0  0  2
  7  8  1  0  0  2
  8  9  2  0  0  2
  8 10  1  0  0  2
 10 11  1  0  0  2
 11 12  1  0  0  2
 11 14  1  0  0  2
 12 13  2  0  0  2
 12 16  1  0  0  2
 14 15  1  0  0  2
 16 17  1  0  0  2
 17 18  1  0  0  2
 18 19  2  0  0  2
 18 20  2  0  0  2
  1 21  1  0  0  2
  1 22  1  0  0  2
  1 23  1  0  0  2
  2 24  1  0  0  2
  6 25  1  0  0  2
  6 26  1  0  0  2
  7 27  1  0  0  2
  7 28  1  0  0  2
 10 29  1  0  0  2
 11 30  1  0  0  2
 14 31  1  0  0  2
 14 32  1  0  0  2
 15 33  1  0  0  2
 16 34  1  0  0  2
 17 35  1  0  0  2
 17 36  1  0  0  2
M  END
> <MOLECULAR_FORMULA>
C10H16N3O6S

> <MOLECULAR_WEIGHT>
306.2

> <NUM_HB_ATOMS>
10 

> <NUM_ROTOR>
7  

> <XLOGP2>
-4.52

$$$$
