REMARK  13 active torsions:
REMARK  status: ('A' for Active; 'I' for Inactive)
REMARK    1  A    between atoms: C1_1  and  O4_5 
REMARK    2  A    between atoms: O4_5  and  C30_6 
REMARK       I    between atoms: C30_6  and  N1_8 
REMARK    3  A    between atoms: N1_8  and  C5_9 
REMARK    4  A    between atoms: C5_9  and  C13_17 
REMARK    5  A    between atoms: C5_9  and  C6_10 
REMARK    6  A    between atoms: C6_10  and  C7_11 
REMARK    7  A    between atoms: C13_17  and  C14_19 
REMARK    8  A    between atoms: C13_17  and  O1_18 
REMARK    9  A    between atoms: C14_19  and  N2_20 
REMARK   10  A    between atoms: N2_20  and  N3_29 
REMARK   11  A    between atoms: N2_20  and  C15_22 
REMARK   12  A    between atoms: C15_22  and  C16_23 
REMARK       I    between atoms: N3_29  and  C23_30 
REMARK   13  A    between atoms: C23_30  and  C27_32 
ROOT
ATOM      1  C13 ARQ d           5.642  -0.319  14.998  0.00  0.00     0.169 C 
ENDROOT
BRANCH   1   2
ATOM      2  C5  ARQ d           5.716   0.269  13.558  0.00  0.00     0.121 C 
BRANCH   2   3
ATOM      3  N1  ARQ d           4.497   0.994  13.193  0.00  0.00    -0.329 N 
ATOM      4  C30 ARQ d           3.511   0.571  12.400  0.00  0.00     0.361 C 
ATOM      5  O3  ARQ d           3.399  -0.533  11.970  0.00  0.00    -0.238 OA
ATOM      6  H10 ARQ d           4.392   1.909  13.582  0.00  0.00     0.165 HD
BRANCH   4   7
ATOM      7  O4  ARQ d           2.664   1.554  12.108  0.00  0.00    -0.294 OA
BRANCH   7   8
ATOM      8  C1  ARQ d           1.474   1.321  11.354  0.00  0.00     0.061 C 
ATOM      9  C4  ARQ d           1.852   1.006   9.891  0.00  0.00     0.046 C 
ATOM     10  C3  ARQ d           0.675   2.633  11.410  0.00  0.00     0.046 C 
ATOM     11  C2  ARQ d           0.562   0.252  12.036  0.00  0.00     0.046 C 
ENDBRANCH   7   8
ENDBRANCH   4   7
ENDBRANCH   2   3
BRANCH   2  12
ATOM     12  C6  ARQ d           6.953   1.163  13.346  0.00  0.00     0.066 C 
BRANCH  12  13
ATOM     13  C7  ARQ d           6.975   1.824  11.998  0.00  0.00    -0.056 A 
ATOM     14  C11 ARQ d           7.114   3.232  11.941  0.00  0.00     0.007 A 
ATOM     15  C12 ARQ d           7.085   3.888  10.692  0.00  0.00     0.001 A 
ATOM     16  C10 ARQ d           6.927   3.110   9.519  0.00  0.00     0.000 A 
ATOM     17  C9  ARQ d           6.791   1.701   9.574  0.00  0.00     0.001 A 
ATOM     18  C8  ARQ d           6.815   1.051  10.826  0.00  0.00     0.007 A 
ENDBRANCH  12  13
ENDBRANCH   2  12
ENDBRANCH   1   2
BRANCH   1  19
ATOM     19  C14 ARQ d           4.669  -1.525  15.008  0.00  0.00     0.298 C 
BRANCH  19  20
ATOM     20  N2  ARQ d           4.998  -2.669  15.910  0.00  0.00     0.017 N 
ATOM     21  C22 ARQ d           5.441  -2.219  17.249  0.00  0.00     0.303 C 
BRANCH  20  22
ATOM     22  N3  ARQ d           6.121  -3.333  15.291  0.00  0.00    -0.181 N 
ATOM     23  C23 ARQ d           6.067  -4.033  14.140  0.00  0.00     0.275 C 
ATOM     24  O2  ARQ d           5.015  -4.224  13.523  0.00  0.00    -0.266 OA
ATOM     25  H33 ARQ d           7.006  -3.269  15.751  0.00  0.00     0.197 HD
BRANCH  23  26
ATOM     26  C27 ARQ d           7.360  -4.579  13.674  0.00  0.00     0.033 A 
ATOM     27  C28 ARQ d           8.593  -4.222  14.279  0.00  0.00     0.017 A 
ATOM     28  C29 ARQ d           9.781  -4.839  13.838  0.00  0.00     0.001 A 
ATOM     29  C24 ARQ d           9.714  -5.796  12.796  0.00  0.00     0.000 A 
ATOM     30  C25 ARQ d           8.521  -6.101  12.123  0.00  0.00     0.001 A 
ATOM     31  C26 ARQ d           7.343  -5.490  12.582  0.00  0.00     0.017 A 
ENDBRANCH  23  26
ENDBRANCH  20  22
BRANCH  20  32
ATOM     32  C15 ARQ d           3.718  -3.441  16.024  0.00  0.00     0.303 C 
BRANCH  32  33
ATOM     33  C16 ARQ d           3.724  -4.695  16.883  0.00  0.00    -0.030 A 
ATOM     34  C20 ARQ d           3.386  -4.632  18.248  0.00  0.00     0.009 A 
ATOM     35  C21 ARQ d           3.502  -5.791  19.063  0.00  0.00     0.001 A 
ATOM     36  C19 ARQ d           3.957  -7.006  18.505  0.00  0.00     0.000 A 
ATOM     37  C18 ARQ d           4.162  -7.106  17.109  0.00  0.00     0.001 A 
ATOM     38  C17 ARQ d           4.055  -5.940  16.308  0.00  0.00     0.009 A 
ENDBRANCH  32  33
ENDBRANCH  20  32
ENDBRANCH  19  20
ENDBRANCH   1  19
BRANCH   1  39
ATOM     39  O1  ARQ d           5.248   0.651  15.980  0.00  0.00    -0.392 OA
ATOM     40  H20 ARQ d           5.854   1.383  15.961  0.00  0.00     0.210 HD
ENDBRANCH   1  39
TORSDOF 13
