REMARK  3 active torsions:
REMARK  status: ('A' for Active; 'I' for Inactive)
REMARK    1  A    between atoms: CAJ_2  and  CAI_5 
REMARK    2  A    between atoms: CAI_5  and  OAG_7 
REMARK    3  A    between atoms: OAG_7  and  CAH_8 
ROOT
ATOM      1  CAI ICF d          27.398  17.584   6.119  0.00  0.00     0.330 C 
ATOM      2 CLAF ICF d          26.202  16.280   6.624  0.00  0.00    -0.086 Cl
ENDROOT
BRANCH   1   3
ATOM      3  CAJ ICF d          28.208  17.225   4.870  0.00  0.00     0.427 C 
ATOM      4  FAC ICF d          27.400  17.182   3.811  0.00  0.00    -0.167 F 
ATOM      5  FAD ICF d          29.139  18.149   4.667  0.00  0.00    -0.167 F 
ATOM      6  FAE ICF d          28.809  16.065   5.039  0.00  0.00    -0.167 F 
ENDBRANCH   1   3
BRANCH   1   7
ATOM      7  OAG ICF d          26.699  18.792   5.791  0.00  0.00    -0.302 OA
BRANCH   7   8
ATOM      8  CAH ICF d          26.607  19.700   6.906  0.00  0.00     0.501 C 
ATOM      9  FAB ICF d          26.315  19.023   8.030  0.00  0.00    -0.184 F 
ATOM     10  FAA ICF d          27.746  20.404   7.071  0.00  0.00    -0.184 F 
ENDBRANCH   7   8
ENDBRANCH   1   7
TORSDOF 3
