REMARK  5 active torsions:
REMARK  status: ('A' for Active; 'I' for Inactive)
REMARK    1  A    between atoms: C1_1  and  C7_8 
REMARK    2  A    between atoms: C7_8  and  N1_9 
REMARK    3  A    between atoms: C8_13  and  C1'_14 
REMARK    4  A    between atoms: C5'_18  and  C1''_21 
REMARK    5  A    between atoms: C6'_19  and  O6'_20 
ROOT
ATOM      1  C1  MOL d          44.005  -3.086  25.846  0.00  0.00     0.031 A 
ATOM      2  C2  MOL d          43.926  -1.658  25.788  0.00  0.00     0.050 A 
ATOM      3 CL2  MOL d          43.869  -0.697  24.275  0.00  0.00    -0.083 Cl
ATOM      4  C3  MOL d          43.826  -0.927  26.994  0.00  0.00     0.056 A 
ATOM      5  C4  MOL d          43.806  -1.610  28.200  0.00  0.00     0.064 A 
ATOM      6  C5  MOL d          43.873  -2.943  28.268  0.00  0.00     0.086 A 
ATOM      7  C6  MOL d          43.977  -3.718  27.102  0.00  0.00     0.051 A 
ATOM      8  N3  MOL d          43.706  -1.231  29.437  0.00  0.00    -0.338 N 
ATOM      9  N4  MOL d          43.816  -3.409  29.506  0.00  0.00    -0.228 NA
ATOM     10  C8  MOL d          43.739  -2.291  30.213  0.00  0.00     0.142 A 
ATOM     11  H7  MOL d          43.615  -0.257  29.759  0.00  0.00     0.167 HD
ENDROOT
BRANCH  10  12
ATOM     12  C1' MOL d          43.574  -2.228  31.615  0.00  0.00     0.044 A 
ATOM     13  C2' MOL d          43.216  -3.360  32.369  0.00  0.00     0.018 A 
ATOM     14  C3' MOL d          43.043  -3.269  33.754  0.00  0.00     0.002 A 
ATOM     15  C4' MOL d          43.211  -2.059  34.397  0.00  0.00     0.015 A 
ATOM     16  C5' MOL d          43.580  -0.928  33.670  0.00  0.00     0.008 A 
ATOM     17  C6' MOL d          43.754  -1.011  32.282  0.00  0.00     0.090 A 
BRANCH  16  18
ATOM     18  C1' MOL d          43.766   0.281  34.338  0.00  0.00    -0.023 A 
ATOM     19  C2' MOL d          44.795   0.387  35.274  0.00  0.00     0.012 A 
ATOM     20  C3' MOL d          44.990   1.586  35.962  0.00  0.00     0.001 A 
ATOM     21  C4' MOL d          44.176   2.677  35.712  0.00  0.00     0.000 A 
ATOM     22  C5' MOL d          43.174   2.578  34.775  0.00  0.00     0.001 A 
ATOM     23  C6' MOL d          42.959   1.383  34.090  0.00  0.00     0.012 A 
ENDBRANCH  16  18
BRANCH  17  24
ATOM     24  O6' MOL d          44.089   0.119  31.548  0.00  0.00    -0.359 OA
ATOM     25  H11 MOL d          44.167  -0.113  30.630  0.00  0.00     0.217 HD
ENDBRANCH  17  24
ENDBRANCH  10  12
BRANCH   1  26
ATOM     26  C7  MOL d          44.144  -3.873  24.674  0.00  0.00     0.104 C 
ATOM     27  N2  MOL d          44.718  -3.288  23.655  0.00  0.00    -0.385 N 
ATOM     28  H5  MOL d          45.025  -2.308  23.730  0.00  0.00     0.157 HD
ATOM     29  H6  MOL d          44.863  -3.807  22.777  0.00  0.00     0.157 HD
BRANCH  26  30
ATOM     30  N1  MOL d          43.744  -5.124  24.599  0.00  0.00    -0.385 N 
ATOM     31  H3  MOL d          43.868  -5.653  23.724  0.00  0.00     0.157 HD
ATOM     32  H4  MOL d          43.307  -5.575  25.416  0.00  0.00     0.157 HD
ENDBRANCH  26  30
ENDBRANCH   1  26
TORSDOF 5
