REMARK  4 active torsions:
REMARK  status: ('A' for Active; 'I' for Inactive)
REMARK    1  A    between atoms: P_2  and  C_5 
REMARK    2  A    between atoms: C_5  and  N_6 
REMARK    3  A    between atoms: C_5  and  C1_7 
REMARK    4  A    between atoms: C1_7  and  C2_8 
ROOT
ATOM      1  C   Q04 d          23.056  -3.605  10.572  0.00  0.00     0.312 C 
ENDROOT
BRANCH   1   2
ATOM      2  P   Q04 d          21.905  -2.574  11.395  0.00  0.00     0.290 P 
ATOM      3  O   Q04 d          20.545  -3.099  11.482  0.00  0.00    -0.638 OA
ATOM      4  O1  Q04 d          22.560  -2.142  12.766  0.00  0.00    -0.638 OA
ATOM      5  O2  Q04 d          21.901  -1.267  10.475  0.00  0.00    -0.638 OA
ENDBRANCH   1   2
BRANCH   1   6
ATOM      6  N   Q04 d          24.181  -2.931  10.035  0.00  0.00    -0.062 N 
ATOM      7  H2  Q04 d          24.787  -3.597   9.582  0.00  0.00     0.275 HD
ATOM      8  H3  Q04 d          24.683  -2.471  10.778  0.00  0.00     0.275 HD
ATOM      9  H4  Q04 d          23.873  -2.246   9.363  0.00  0.00     0.275 HD
ENDBRANCH   1   6
BRANCH   1  10
ATOM     10  C1  Q04 d          23.478  -4.695  11.573  0.00  0.00     0.052 C 
BRANCH  10  11
ATOM     11  C2  Q04 d          23.874  -6.047  11.040  0.00  0.00    -0.012 C 
ATOM     12  C7  Q04 d          24.461  -6.609  12.346  0.00  0.00     0.005 C 
ATOM     13  C6  Q04 d          25.439  -7.623  11.756  0.00  0.00     0.000 C 
ATOM     14  C5  Q04 d          24.621  -8.784  11.202  0.00  0.00     0.000 C 
ATOM     15  C4  Q04 d          23.664  -8.358  10.137  0.00  0.00     0.000 C 
ATOM     16  C3  Q04 d          22.908  -7.074  10.570  0.00  0.00     0.005 C 
ENDBRANCH  10  11
ENDBRANCH   1  10
TORSDOF 4
