REMARK  5 active torsions:
REMARK  status: ('A' for Active; 'I' for Inactive)
REMARK    1  A    between atoms: C1_1  and  O1_2 
REMARK    2  A    between atoms: O1_2  and  P_3 
REMARK    3  A    between atoms: C2_7  and  O2_8 
REMARK    4  A    between atoms: C3_9  and  O3_10 
REMARK    5  A    between atoms: C4_11  and  O4_12 
ROOT
ATOM      1  C1  X1P d         -48.246 -14.020  16.359  0.00  0.00     0.304 C 
ATOM      2  C2  X1P d         -48.059 -15.544  16.273  0.00  0.00     0.205 C 
ATOM      3  C3  X1P d         -47.297 -15.924  14.999  0.00  0.00     0.182 C 
ATOM      4  C4  X1P d         -48.103 -15.414  13.798  0.00  0.00     0.173 C 
ATOM      5  C5  X1P d         -48.344 -13.909  13.961  0.00  0.00     0.205 C 
ATOM      6  O5  X1P d         -48.985 -13.580  15.208  0.00  0.00    -0.355 OA
ENDROOT
BRANCH   1   7
ATOM      7  O1  X1P d         -46.995 -13.326  16.411  0.00  0.00    -0.249 OA
BRANCH   7   8
ATOM      8  P   X1P d         -46.392 -12.773  17.801  0.00  0.00     0.424 P 
ATOM      9  O1P X1P d         -46.091 -13.964  18.681  0.00  0.00    -0.617 OA
ATOM     10  O2P X1P d         -47.399 -11.850  18.464  0.00  0.00    -0.617 OA
ATOM     11  O3P X1P d         -45.144 -12.007  17.450  0.00  0.00    -0.617 OA
ENDBRANCH   7   8
ENDBRANCH   1   7
BRANCH   2  12
ATOM     12  O2  X1P d         -47.392 -16.055  17.425  0.00  0.00    -0.388 OA
ATOM     13  H3  X1P d         -46.536 -15.650  17.499  0.00  0.00     0.210 HD
ENDBRANCH   2  12
BRANCH   3  14
ATOM     14  O3  X1P d         -47.074 -17.333  14.966  0.00  0.00    -0.390 OA
ATOM     15  H5  X1P d         -46.563 -17.590  15.725  0.00  0.00     0.210 HD
ENDBRANCH   3  14
BRANCH   4  16
ATOM     16  O4  X1P d         -47.424 -15.617  12.563  0.00  0.00    -0.391 OA
ATOM     17  H7  X1P d         -47.959 -15.287  11.851  0.00  0.00     0.210 HD
ENDBRANCH   4  16
TORSDOF 5
