1s63_ligand

Created by X-TOOL on Fri Sep 26 17:34:25 2014
 50 53  0  0  0  0  0  0  0  0999 V2000
   18.5610  135.2050   -0.0600  N 0  3  0  2  0  4
   17.2650  135.6440    0.4650  C 0  0  0  3  0  4
   19.7520  135.2070    0.7900  C 0  0  0  3  0  4
   18.9500  135.8920   -1.2990  C 0  0  0  3  0  4
   16.3280  135.0430   -0.5960  C 0  0  0  3  0  4
   19.5950  134.1260    1.8570  C 0  0  0  1  0  3
   17.8720  135.6640   -2.4020  C 0  0  0  1  0  3
   16.5930  135.2440   -2.0230  N 0  0  0  1  0  3
   20.1020  132.8670    1.7040  N 0  0  0  1  0  3
   18.9610  134.2450    3.0400  C 0  0  0  2  0  3
   18.1540  135.8470   -3.5710  O 0  0  0  1  0  1
   15.5650  135.0040   -2.9070  C 0  0  0  1  0  3
   20.8650  132.3200    0.5570  C 0  0  0  3  0  4
   19.8100  132.1530    2.7740  C 0  0  0  2  0  3
   19.0960  132.9550    3.6550  N 0  0  0  1  0  2
   15.0300  133.7270   -2.8320  C 0  0  0  2  0  3
   15.0300  135.9470   -3.8520  C 0  0  0  2  0  3
   20.0510  132.2060   -0.7400  C 0  0  0  1  0  3
   13.9770  133.3250   -3.6540  C 0  0  0  1  0  3
   13.9670  135.5450   -4.6930  C 0  0  0  2  0  3
   20.6160  132.5930   -1.9770  C 0  0  0  2  0  3
   18.7370  131.7180   -0.7350  C 0  0  0  2  0  3
   13.4400  134.2320   -4.5910  C 0  0  0  2  0  3
   13.3840  131.7160   -3.4630 Cl 0  0  0  1  0  1
   19.8810  132.4840   -3.1800  C 0  0  0  2  0  3
   18.0080  131.6100   -1.9240  C 0  0  0  2  0  3
   18.5870  131.9950   -3.1560  C 0  0  0  1  0  3
   17.8950  131.8790   -4.2840  C 0  0  0  1  0  2
   17.2860  131.7730   -5.2800  N 0  0  0  1  0  1
   18.4088  134.2379   -0.3000  H 0  0  0  1  0  1
   17.1899  136.7408    0.5014  H 0  0  0  1  0  1
   17.0682  135.2296    1.4648  H 0  0  0  1  0  1
   19.8608  136.1897    1.2722  H 0  0  0  1  0  1
   20.6427  134.9975    0.1794  H 0  0  0  1  0  1
   19.9152  135.4954   -1.6468  H 0  0  0  1  0  1
   19.0460  136.9700   -1.1021  H 0  0  0  1  0  1
   15.3265  135.4538   -0.4008  H 0  0  0  1  0  1
   16.3177  133.9560   -0.4277  H 0  0  0  1  0  1
   18.4582  135.1241    3.4404  H 0  0  0  1  0  1
   21.2248  131.3165    0.8284  H 0  0  0  1  0  1
   21.7251  132.9793    0.3682  H 0  0  0  1  0  1
   20.0825  131.1116    2.9387  H 0  0  0  1  0  1
   15.4403  133.0234   -2.1167  H 0  0  0  1  0  1
   15.4354  136.9501   -3.9184  H 0  0  0  1  0  1
   13.5548  136.2400   -5.4156  H 0  0  0  1  0  1
   21.6285  132.9793   -2.0035  H 0  0  0  1  0  1
   18.2800  131.4206    0.2019  H 0  0  0  1  0  1
   12.6232  133.9253   -5.2343  H 0  0  0  1  0  1
   20.3308  132.7832   -4.1198  H 0  0  0  1  0  1
   16.9934  131.2290   -1.9012  H 0  0  0  1  0  1
  1  2  1  0  0  1
  1  3  1  0  0  2
  1  4  1  0  0  1
  2  5  1  0  0  1
  3  6  1  0  0  2
  4  7  1  0  0  1
  5  8  1  0  0  1
  6  9  1  0  0  1
  6 10  2  0  0  1
  7  8  1  0  0  1
  7 11  2  0  0  2
  8 12  1  0  0  2
  9 13  1  0  0  2
  9 14  1  0  0  1
 10 15  1  0  0  1
 12 16  4  0  0  1
 12 17  4  0  0  1
 13 18  1  0  0  2
 14 15  2  0  0  1
 16 19  4  0  0  1
 17 20  4  0  0  1
 18 21  4  0  0  1
 18 22  4  0  0  1
 19 23  4  0  0  1
 19 24  1  0  0  2
 20 23  4  0  0  1
 21 25  4  0  0  1
 22 26  4  0  0  1
 25 27  4  0  0  1
 26 27  4  0  0  1
 27 28  1  0  0  2
 28 29  3  0  0  2
  1 30  1  0  0  2
  2 31  1  0  0  2
  2 32  1  0  0  2
  3 33  1  0  0  2
  3 34  1  0  0  2
  4 35  1  0  0  2
  4 36  1  0  0  2
  5 37  1  0  0  2
  5 38  1  0  0  2
 10 39  1  0  0  2
 13 40  1  0  0  2
 13 41  1  0  0  2
 14 42  1  0  0  2
 16 43  1  0  0  2
 17 44  1  0  0  2
 20 45  1  0  0  2
 21 46  1  0  0  2
 22 47  1  0  0  2
 23 48  1  0  0  2
 25 49  1  0  0  2
 26 50  1  0  0  2
M  END
> <MOLECULAR_FORMULA>
C22H21N5OCl

> <MOLECULAR_WEIGHT>
406.7

> <NUM_HB_ATOMS>
5  

> <NUM_ROTOR>
4  

> <XLOGP2>
2.32 

$$$$
