REMARK  4 active torsions:
REMARK  status: ('A' for Active; 'I' for Inactive)
REMARK    1  A    between atoms: C4_2  and  C2_3 
REMARK       I    between atoms: C4_2  and  N_7 
REMARK    2  A    between atoms: C2_3  and  C1_4 
REMARK    3  A    between atoms: C1_4  and  S_5 
REMARK    4  A    between atoms: C8_8  and  C9_9 
ROOT
ATOM      1  O1  X8Z d         -43.856   6.045  -3.243  0.00  0.00    -0.273 OA
ATOM      2  C4  X8Z d         -43.040   5.919  -2.339  0.00  0.00     0.225 C 
ATOM      3  N   X8Z d         -42.276   4.832  -2.144  0.00  0.00    -0.337 N 
ATOM      4  C8  X8Z d         -42.409   3.649  -2.993  0.00  0.00     0.188 C 
ATOM      5  C5  X8Z d         -41.301   4.628  -1.070  0.00  0.00     0.127 C 
ATOM      6  C6  X8Z d         -40.513   3.393  -1.476  0.00  0.00     0.022 C 
ATOM      7  C7  X8Z d         -41.111   2.889  -2.776  0.00  0.00     0.038 C 
ENDROOT
BRANCH   2   8
ATOM      8  C2  X8Z d         -42.880   7.070  -1.400  0.00  0.00     0.083 C 
ATOM      9  C3  X8Z d         -44.200   7.252  -0.664  0.00  0.00     0.020 C 
BRANCH   8  10
ATOM     10  C1  X8Z d         -42.578   8.303  -2.234  0.00  0.00     0.084 C 
BRANCH  10  11
ATOM     11  S   X8Z d         -41.340   8.004  -3.518  0.00  0.00    -0.181 SA
ATOM     12  H4  X8Z d         -41.182   8.854  -4.036  0.00  0.00     0.101 HD
ENDBRANCH  10  11
ENDBRANCH   8  10
ENDBRANCH   2   8
BRANCH   4  13
ATOM     13  C9  X8Z d         -43.581   2.796  -2.539  0.00  0.00     0.196 C 
ATOM     14  O3  X8Z d         -43.934   1.791  -3.225  0.00  0.00    -0.646 OA
ATOM     15  O2  X8Z d         -44.175   3.139  -1.483  0.00  0.00    -0.646 OA
ENDBRANCH   4  13
TORSDOF 4
