REMARK  5 active torsions:
REMARK  status: ('A' for Active; 'I' for Inactive)
REMARK    1  A    between atoms: C1_1  and  O4_4 
REMARK    2  A    between atoms: C2_2  and  O5_5 
REMARK    3  A    between atoms: C3_3  and  O7_7 
REMARK    4  A    between atoms: C8_8  and  C9_9 
REMARK    5  A    between atoms: C9_9  and  O11_11 
ROOT
ATOM      1  C1  MNM d          27.942  47.199   0.266  0.00  0.00     0.203 C 
ATOM      2  C2  MNM d          27.340  45.888  -0.266  0.00  0.00     0.350 C 
ATOM      3  C3  MNM d          27.621  48.383  -0.671  0.00  0.00     0.159 C 
ATOM      4  N6  MNM d          27.445  45.779  -1.716  0.00  0.00    -0.046 N 
ATOM      5  C8  MNM d          26.503  48.075  -1.706  0.00  0.00     0.066 C 
ATOM      6  C10 MNM d          26.973  46.888  -2.559  0.00  0.00     0.244 C 
ATOM      7  H6  MNM d          26.923  44.961  -1.988  0.00  0.00     0.280 HD
ATOM      8  H7  MNM d          28.420  45.642  -1.930  0.00  0.00     0.280 HD
ENDROOT
BRANCH   5   9
ATOM      9  C9  MNM d          26.115  49.300  -2.575  0.00  0.00     0.173 C 
BRANCH   9  10
ATOM     10  O11 MNM d          27.212  49.705  -3.389  0.00  0.00    -0.400 OA
ATOM     11  H14 MNM d          26.956  50.455  -3.913  0.00  0.00     0.209 HD
ENDBRANCH   9  10
ENDBRANCH   5   9
BRANCH   3  12
ATOM     12  O7  MNM d          27.318  49.558   0.099  0.00  0.00    -0.392 OA
ATOM     13  H8  MNM d          27.122  50.279  -0.488  0.00  0.00     0.210 HD
ENDBRANCH   3  12
BRANCH   1  14
ATOM     14  O4  MNM d          29.365  47.081   0.415  0.00  0.00    -0.389 OA
ATOM     15  H4  MNM d          29.562  46.352   0.992  0.00  0.00     0.210 HD
ENDBRANCH   1  14
BRANCH   2  16
ATOM     16  O5  MNM d          27.969  44.713   0.231  0.00  0.00    -0.368 OA
ATOM     17  H5  MNM d          28.874  44.694  -0.057  0.00  0.00     0.212 HD
ENDBRANCH   2  16
TORSDOF 5
