REMARK  8 active torsions:
REMARK  status: ('A' for Active; 'I' for Inactive)
REMARK    1  A    between atoms: C5'_7  and  C7'_9 
REMARK    2  A    between atoms: C7'_9  and  N3_10 
REMARK    3  A    between atoms: C5_13  and  C6_16 
REMARK    4  A    between atoms: C6_16  and  C7_17 
REMARK    5  A    between atoms: C7_17  and  O7_18 
REMARK    6  A    between atoms: O7_18  and  PA_19 
REMARK    7  A    between atoms: PA_19  and  O3A_22 
REMARK    8  A    between atoms: O3A_22  and  PB_23 
ROOT
ATOM      1  N3  TPP d           8.942  -7.548  54.051  0.00  0.00    -0.370 N 
ATOM      2  C2  TPP d           8.754  -8.020  52.739  0.00  0.00     0.202 A 
ATOM      3  S1  TPP d           7.337  -7.442  52.127  0.00  0.00    -0.112 SA
ATOM      4  C5  TPP d           6.904  -6.671  53.516  0.00  0.00     0.004 A 
ATOM      5  C4  TPP d           7.905  -6.785  54.494  0.00  0.00     0.017 A 
ATOM      6  CM4 TPP d           7.794  -6.180  55.863  0.00  0.00     0.069 C 
ENDROOT
BRANCH   1   7
ATOM      7  C7' TPP d          10.149  -7.831  54.844  0.00  0.00     0.167 C 
BRANCH   7   8
ATOM      8  C5' TPP d          11.060  -6.625  54.617  0.00  0.00     0.023 A 
ATOM      9  C4' TPP d          11.728  -6.405  53.415  0.00  0.00     0.132 A 
ATOM     10  N3' TPP d          12.538  -5.300  53.210  0.00  0.00    -0.216 NA
ATOM     11  N4' TPP d          11.653  -7.244  52.371  0.00  0.00    -0.383 N 
ATOM     12  C2' TPP d          12.719  -4.427  54.235  0.00  0.00     0.124 A 
ATOM     13  N1' TPP d          12.103  -4.661  55.454  0.00  0.00    -0.245 NA
ATOM     14  CM2 TPP d          13.612  -3.243  54.061  0.00  0.00     0.093 C 
ATOM     15  C6' TPP d          11.256  -5.745  55.653  0.00  0.00     0.131 A 
ATOM     16  H4  TPP d          11.073  -8.093  52.433  0.00  0.00     0.157 HD
ATOM     17  H5  TPP d          12.175  -7.039  51.507  0.00  0.00     0.157 HD
ENDBRANCH   7   8
ENDBRANCH   1   7
BRANCH   4  18
ATOM     18  C6  TPP d           5.571  -5.904  53.624  0.00  0.00     0.075 C 
BRANCH  18  19
ATOM     19  C7  TPP d           5.477  -4.780  52.561  0.00  0.00     0.186 C 
BRANCH  19  20
ATOM     20  O7  TPP d           4.137  -4.384  52.394  0.00  0.00    -0.289 OA
BRANCH  20  21
ATOM     21  PA  TPP d           3.538  -3.415  51.250  0.00  0.00     0.418 P 
ATOM     22  O1A TPP d           4.592  -2.372  50.947  0.00  0.00    -0.624 OA
ATOM     23  O2A TPP d           2.283  -2.773  51.723  0.00  0.00    -0.624 OA
BRANCH  21  24
ATOM     24  O3A TPP d           3.487  -4.297  49.943  0.00  0.00    -0.173 OA
BRANCH  24  25
ATOM     25  PB  TPP d           2.458  -5.432  49.421  0.00  0.00     0.431 P 
ATOM     26  O1B TPP d           1.177  -5.327  50.273  0.00  0.00    -0.616 OA
ATOM     27  O2B TPP d           2.195  -5.057  47.974  0.00  0.00    -0.616 OA
ATOM     28  O3B TPP d           3.086  -6.802  49.518  0.00  0.00    -0.616 OA
ENDBRANCH  24  25
ENDBRANCH  21  24
ENDBRANCH  20  21
ENDBRANCH  19  20
ENDBRANCH  18  19
ENDBRANCH   4  18
TORSDOF 8
