REMARK  11 active torsions:
REMARK  status: ('A' for Active; 'I' for Inactive)
REMARK    1  A    between atoms: N2_2  and  C13_9 
REMARK    2  A    between atoms: C5_5  and  C8_6 
REMARK       I    between atoms: C8_6  and  N10_8 
REMARK    3  A    between atoms: C13_9  and  C14_10 
REMARK    4  A    between atoms: C13_9  and  C18_12 
REMARK    5  A    between atoms: C14_10  and  O15_11 
REMARK    6  A    between atoms: C18_12  and  C19_13 
REMARK    7  A    between atoms: C19_13  and  N22_14 
REMARK    8  A    between atoms: C33_21  and  N1_23 
REMARK       I    between atoms: N1_23  and  C2_24 
REMARK    9  A    between atoms: C2_24  and  C4_26 
REMARK   10  A    between atoms: C4_26  and  C6_27 
REMARK   11  A    between atoms: C6_27  and  C11_29 
ROOT
ATOM      1  N22 FR4 d          49.041  57.303  19.279  0.00  0.00    -0.356 N 
ATOM      2  C27 FR4 d          48.548  58.435  18.704  0.00  0.00     0.092 A 
ATOM      3  C28 FR4 d          48.091  58.164  17.410  0.00  0.00     0.031 A 
ATOM      4  C29 FR4 d          48.322  56.758  17.202  0.00  0.00    -0.008 A 
ATOM      5  C30 FR4 d          48.918  56.250  18.394  0.00  0.00     0.046 A 
ATOM      6  C31 FR4 d          48.075  55.926  16.142  0.00  0.00     0.016 A 
ATOM      7  C32 FR4 d          48.417  54.577  16.239  0.00  0.00     0.030 A 
ATOM      8  C33 FR4 d          49.015  54.072  17.408  0.00  0.00     0.036 A 
ATOM      9  C34 FR4 d          49.257  54.930  18.484  0.00  0.00     0.060 A 
ENDROOT
BRANCH   1  10
ATOM     10  C19 FR4 d          49.651  57.152  20.602  0.00  0.00     0.131 C 
BRANCH  10  11
ATOM     11  C18 FR4 d          51.106  57.631  20.564  0.00  0.00     0.048 C 
BRANCH  11  12
ATOM     12  C13 FR4 d          51.988  57.130  21.723  0.00  0.00     0.115 C 
BRANCH  12  13
ATOM     13  N2  FR4 d          51.888  55.688  21.919  0.00  0.00    -0.342 N 
ATOM     14  C1  FR4 d          51.829  54.677  20.859  0.00  0.00     0.129 A 
ATOM     15  C5  FR4 d          51.735  53.520  21.529  0.00  0.00     0.141 A 
ATOM     16  N4  FR4 d          51.779  53.775  22.962  0.00  0.00    -0.237 NA
ATOM     17  C3  FR4 d          51.860  55.100  23.126  0.00  0.00     0.210 A 
BRANCH  15  18
ATOM     18  C8  FR4 d          51.607  52.181  20.916  0.00  0.00     0.269 C 
ATOM     19  O9  FR4 d          51.361  52.121  19.726  0.00  0.00    -0.266 OA
ATOM     20  N10 FR4 d          51.749  51.096  21.682  0.00  0.00    -0.365 N 
ATOM     21  H3  FR4 d          51.665  50.185  21.279  0.00  0.00     0.159 HD
ATOM     22  H4  FR4 d          51.940  51.195  22.659  0.00  0.00     0.159 HD
ENDBRANCH  15  18
ENDBRANCH  12  13
BRANCH  12  23
ATOM     23  C14 FR4 d          53.455  57.568  21.566  0.00  0.00     0.189 C 
BRANCH  23  24
ATOM     24  O15 FR4 d          54.251  57.211  22.666  0.00  0.00    -0.399 OA
ATOM     25  H8  FR4 d          54.239  56.267  22.771  0.00  0.00     0.209 HD
ENDBRANCH  23  24
ENDBRANCH  12  23
ENDBRANCH  11  12
ENDBRANCH  10  11
ENDBRANCH   1  10
BRANCH   8  26
ATOM     26  N1  FR4 d          49.396  52.774  17.544  0.00  0.00    -0.327 N 
ATOM     27  C2  FR4 d          49.161  51.771  16.663  0.00  0.00     0.222 C 
ATOM     28  O1  FR4 d          48.525  51.860  15.613  0.00  0.00    -0.273 OA
ATOM     29  H18 FR4 d          49.899  52.536  18.375  0.00  0.00     0.169 HD
BRANCH  27  30
ATOM     30  C4  FR4 d          49.804  50.474  17.127  0.00  0.00     0.108 C 
BRANCH  30  31
ATOM     31  C6  FR4 d          49.179  49.254  16.443  0.00  0.00     0.047 C 
BRANCH  31  32
ATOM     32  C11 FR4 d          47.819  48.889  17.008  0.00  0.00    -0.058 A 
ATOM     33  C7  FR4 d          47.584  48.919  18.382  0.00  0.00     0.007 A 
ATOM     34  C15 FR4 d          46.355  48.503  18.886  0.00  0.00     0.001 A 
ATOM     35  C10 FR4 d          45.356  48.077  18.023  0.00  0.00     0.000 A 
ATOM     36  C12 FR4 d          45.580  48.076  16.646  0.00  0.00     0.001 A 
ATOM     37  C9  FR4 d          46.809  48.476  16.142  0.00  0.00     0.007 A 
ENDBRANCH  31  32
ENDBRANCH  30  31
ENDBRANCH  27  30
ENDBRANCH   8  26
TORSDOF 11
