REMARK  13 active torsions:
REMARK  status: ('A' for Active; 'I' for Inactive)
REMARK    1  A    between atoms: P_2  and  O1P_5 
REMARK    2  A    between atoms: O1P_5  and  C8_6 
REMARK    3  A    between atoms: C8_6  and  C7_7 
REMARK    4  A    between atoms: C7_7  and  O7_8 
REMARK    5  A    between atoms: C7_7  and  C6_9 
REMARK    6  A    between atoms: C6_9  and  O6_10 
REMARK    7  A    between atoms: C6_9  and  C5_11 
REMARK    8  A    between atoms: C5_11  and  O5_12 
REMARK    9  A    between atoms: C5_11  and  C4_13 
REMARK   10  A    between atoms: C4_13  and  O4_14 
REMARK   11  A    between atoms: C4_13  and  C3_15 
REMARK   12  A    between atoms: C3_15  and  C1_16 
REMARK   13  A    between atoms: C1_16  and  C2_18 
ROOT
ATOM      1  C6  KD0 d          36.247  53.985  18.346  0.00  0.00     0.180 C 
ENDROOT
BRANCH   1   2
ATOM      2  C7  KD0 d          37.443  53.806  17.437  0.00  0.00     0.173 C 
BRANCH   2   3
ATOM      3  C8  KD0 d          37.865  55.185  16.950  0.00  0.00     0.217 C 
BRANCH   3   4
ATOM      4  O1P KD0 d          38.492  55.015  15.758  0.00  0.00    -0.280 OA
BRANCH   4   5
ATOM      5  P   KD0 d          39.626  55.976  15.318  0.00  0.00     0.422 P 
ATOM      6  O4P KD0 d          39.727  55.743  13.746  0.00  0.00    -0.617 OA
ATOM      7  O2P KD0 d          39.185  57.481  15.628  0.00  0.00    -0.617 OA
ATOM      8  O3P KD0 d          40.909  55.616  15.983  0.00  0.00    -0.617 OA
ENDBRANCH   4   5
ENDBRANCH   3   4
ENDBRANCH   2   3
BRANCH   2   9
ATOM      9  O7  KD0 d          38.546  53.241  18.155  0.00  0.00    -0.391 OA
ATOM     10  H4  KD0 d          38.308  52.377  18.471  0.00  0.00     0.210 HD
ENDBRANCH   2   9
ENDBRANCH   1   2
BRANCH   1  11
ATOM     11  O6  KD0 d          35.147  54.522  17.560  0.00  0.00    -0.390 OA
ATOM     12  H6  KD0 d          34.388  54.640  18.119  0.00  0.00     0.210 HD
ENDBRANCH   1  11
BRANCH   1  13
ATOM     13  C5  KD0 d          35.822  52.660  18.997  0.00  0.00     0.178 C 
BRANCH  13  14
ATOM     14  O5  KD0 d          35.566  51.645  18.014  0.00  0.00    -0.390 OA
ATOM     15  H8  KD0 d          35.306  50.842  18.450  0.00  0.00     0.210 HD
ENDBRANCH  13  14
BRANCH  13  16
ATOM     16  C4  KD0 d          34.527  52.882  19.750  0.00  0.00     0.157 C 
BRANCH  16  17
ATOM     17  O4  KD0 d          34.688  53.987  20.618  0.00  0.00    -0.392 OA
ATOM     18  H10 KD0 d          34.901  54.760  20.109  0.00  0.00     0.210 HD
ENDBRANCH  16  17
BRANCH  16  19
ATOM     19  C3  KD0 d          34.204  51.660  20.612  0.00  0.00     0.124 C 
BRANCH  19  20
ATOM     20  C1  KD0 d          32.744  51.712  21.063  0.00  0.00     0.227 C 
ATOM     21  O3  KD0 d          31.834  51.482  20.261  0.00  0.00    -0.286 OA
BRANCH  20  22
ATOM     22  C2  KD0 d          32.404  52.010  22.522  0.00  0.00     0.246 C 
ATOM     23  O1  KD0 d          31.174  51.972  22.841  0.00  0.00    -0.642 OA
ATOM     24  O2  KD0 d          33.381  52.212  23.311  0.00  0.00    -0.642 OA
ENDBRANCH  20  22
ENDBRANCH  19  20
ENDBRANCH  16  19
ENDBRANCH  13  16
ENDBRANCH   1  13
TORSDOF 13
