REMARK  3 active torsions:
REMARK  status: ('A' for Active; 'I' for Inactive)
REMARK    1  A    between atoms: C7_7  and  C1_1 
REMARK    2  A    between atoms: C7_7  and  N1_8 
REMARK    3  A    between atoms: C8_12  and  C1'_13 
ROOT
ATOM      1  C1  MOL d          45.521  19.322  52.971  0.00  0.00     0.009 A 
ATOM      2  C2  MOL d          44.960  18.945  51.710  0.00  0.00     0.017 A 
ATOM      3  C3  MOL d          44.663  19.876  50.710  0.00  0.00     0.033 A 
ATOM      4  C4  MOL d          44.943  21.174  51.003  0.00  0.00     0.062 A 
ATOM      5  C5  MOL d          45.478  21.593  52.178  0.00  0.00     0.086 A 
ATOM      6  C6  MOL d          45.785  20.708  53.202  0.00  0.00     0.049 A 
ATOM      7  N3  MOL d          44.776  22.219  50.268  0.00  0.00    -0.338 N 
ATOM      8  N4  MOL d          45.645  22.913  52.216  0.00  0.00    -0.228 NA
ATOM      9  C8  MOL d          45.182  23.215  50.993  0.00  0.00     0.144 A 
ATOM     10  H8  MOL d          44.400  22.256  49.310  0.00  0.00     0.167 HD
ENDROOT
BRANCH   9  11
ATOM     11  C1' MOL d          45.212  24.516  50.439  0.00  0.00     0.078 A 
ATOM     12  C6' MOL d          44.530  24.847  49.210  0.00  0.00     0.259 A 
ATOM     13  N5' MOL d          44.633  26.109  48.791  0.00  0.00    -0.333 N 
ATOM     14  O6' MOL d          43.881  24.023  48.586  0.00  0.00    -0.267 OA
ATOM     15  C4' MOL d          45.300  27.096  49.377  0.00  0.00     0.091 A 
ATOM     16  H12 MOL d          44.156  26.337  47.942  0.00  0.00     0.168 HD
ATOM     17  C3' MOL d          45.954  26.784  50.552  0.00  0.00     0.018 A 
ATOM     18  C2' MOL d          45.918  25.519  51.080  0.00  0.00     0.022 A 
ENDBRANCH   9  11
BRANCH   1  19
ATOM     19  C7  MOL d          45.805  18.341  53.918  0.00  0.00     0.102 C 
ATOM     20  N2  MOL d          45.373  17.119  53.756  0.00  0.00    -0.385 N 
ATOM     21  H6  MOL d          44.810  16.877  52.928  0.00  0.00     0.157 HD
ATOM     22  H7  MOL d          45.596  16.397  54.456  0.00  0.00     0.157 HD
BRANCH  19  23
ATOM     23  N1  MOL d          46.515  18.653  54.958  0.00  0.00    -0.385 N 
ATOM     24  H4  MOL d          46.733  17.938  55.666  0.00  0.00     0.157 HD
ATOM     25  H5  MOL d          46.861  19.616  55.075  0.00  0.00     0.157 HD
ENDBRANCH  19  23
ENDBRANCH   1  19
TORSDOF 3
