REMARK  9 active torsions:
REMARK  status: ('A' for Active; 'I' for Inactive)
REMARK    1  A    between atoms: PB_1  and  O3A_5 
REMARK    2  A    between atoms: O3A_5  and  PA_6 
REMARK    3  A    between atoms: PA_6  and  O5'_9 
REMARK    4  A    between atoms: O5'_9  and  C5'_10 
REMARK    5  A    between atoms: C5'_10  and  C4'_11 
REMARK    6  A    between atoms: C3'_13  and  O3'_14 
REMARK    7  A    between atoms: C2'_15  and  O2'_16 
REMARK    8  A    between atoms: C1'_17  and  N9_18 
REMARK    9  A    between atoms: C2_25  and  N2_26 
ROOT
ATOM      1  C4' GDP d         -22.816   1.435  41.637  0.00  0.00     0.180 C 
ATOM      2  O4' GDP d         -21.541   0.866  41.913  0.00  0.00    -0.353 OA
ATOM      3  C3' GDP d         -22.660   2.140  40.295  0.00  0.00     0.182 C 
ATOM      4  C2' GDP d         -21.305   1.701  39.762  0.00  0.00     0.198 C 
ATOM      5  C1' GDP d         -20.558   1.481  41.053  0.00  0.00     0.262 C 
ENDROOT
BRANCH   5   6
ATOM      6  N9  GDP d         -19.494   0.490  40.954  0.00  0.00    -0.295 N 
ATOM      7  C8  GDP d         -19.363  -0.508  40.054  0.00  0.00     0.214 A 
ATOM      8  N7  GDP d         -18.268  -1.243  40.369  0.00  0.00    -0.234 NA
ATOM      9  C5  GDP d         -17.720  -0.715  41.492  0.00  0.00     0.171 A 
ATOM     10  C6  GDP d         -16.571  -1.009  42.365  0.00  0.00     0.292 A 
ATOM     11  C4  GDP d         -18.548   0.412  41.885  0.00  0.00     0.161 A 
ATOM     12  O6  GDP d         -15.845  -1.985  42.089  0.00  0.00    -0.265 OA
ATOM     13  N1  GDP d         -16.353  -0.219  43.444  0.00  0.00    -0.154 N 
ATOM     14  C2  GDP d         -17.153   0.824  43.738  0.00  0.00     0.680 A 
ATOM     15  H10 GDP d         -15.575  -0.416  44.040  0.00  0.00     0.187 HD
ATOM     16  N3  GDP d         -18.237   1.147  42.988  0.00  0.00    -0.174 N 
ATOM     17  H13 GDP d         -18.825   1.950  43.254  0.00  0.00     0.186 HD
BRANCH  14  18
ATOM     18  N2  GDP d         -16.886   1.565  44.830  0.00  0.00    -0.234 N 
ATOM     19  H11 GDP d         -17.488   2.366  45.069  0.00  0.00     0.174 HD
ATOM     20  H12 GDP d         -16.080   1.331  45.427  0.00  0.00     0.174 HD
ENDBRANCH  14  18
ENDBRANCH   5   6
BRANCH   4  21
ATOM     21  O2' GDP d         -20.653   2.726  39.023  0.00  0.00    -0.388 OA
ATOM     22  H7  GDP d         -20.517   3.481  39.583  0.00  0.00     0.210 HD
ENDBRANCH   4  21
BRANCH   1  23
ATOM     23  C5' GDP d         -23.849   0.314  41.671  0.00  0.00     0.216 C 
BRANCH  23  24
ATOM     24  O5' GDP d         -23.730  -0.503  40.505  0.00  0.00    -0.287 OA
BRANCH  24  25
ATOM     25  PA  GDP d         -24.734  -1.737  40.259  0.00  0.00     0.418 P 
ATOM     26  O1A GDP d         -24.071  -2.758  39.364  0.00  0.00    -0.624 OA
ATOM     27  O2A GDP d         -26.068  -1.311  39.701  0.00  0.00    -0.624 OA
BRANCH  25  28
ATOM     28  O3A GDP d         -24.837  -2.332  41.755  0.00  0.00    -0.173 OA
BRANCH  28  29
ATOM     29  PB  GDP d         -25.684  -3.638  42.184  0.00  0.00     0.431 P 
ATOM     30  O1B GDP d         -26.141  -4.438  40.964  0.00  0.00    -0.616 OA
ATOM     31  O2B GDP d         -24.774  -4.441  43.066  0.00  0.00    -0.616 OA
ATOM     32  O3B GDP d         -26.846  -3.127  42.960  0.00  0.00    -0.616 OA
ENDBRANCH  28  29
ENDBRANCH  25  28
ENDBRANCH  24  25
ENDBRANCH  23  24
ENDBRANCH   1  23
BRANCH   3  33
ATOM     33  O3' GDP d         -22.605   3.561  40.516  0.00  0.00    -0.390 OA
ATOM     34  H5  GDP d         -22.508   4.006  39.683  0.00  0.00     0.210 HD
ENDBRANCH   3  33
TORSDOF 9
