REMARK  5 active torsions:
REMARK  status: ('A' for Active; 'I' for Inactive)
REMARK       I    between atoms: C80_2  and  N82_3 
REMARK    1  A    between atoms: C80_2  and  C23_5 
REMARK    2  A    between atoms: C18_9  and  S24_11 
REMARK    3  A    between atoms: S24_11  and  C07_12 
REMARK    4  A    between atoms: C13_19  and  C16_21 
REMARK    5  A    between atoms: C17_22  and  C02_23 
ROOT
ATOM      1  C07 AXI d          11.449 155.406  35.174  0.00  0.00     0.007 A 
ATOM      2  C08 AXI d          10.094 155.605  35.510  0.00  0.00     0.020 A 
ATOM      3  C09 AXI d           9.106 154.731  35.021  0.00  0.00     0.017 A 
ATOM      4  C12 AXI d          11.829 154.355  34.355  0.00  0.00     0.051 A 
ATOM      5  C11 AXI d          10.820 153.466  33.853  0.00  0.00     0.064 A 
ATOM      6  N15 AXI d          10.913 152.363  33.024  0.00  0.00    -0.277 N 
ATOM      7  N14 AXI d           9.646 151.866  32.837  0.00  0.00    -0.174 NA
ATOM      8  C13 AXI d           8.750 152.610  33.518  0.00  0.00     0.089 A 
ATOM      9  C10 AXI d           9.490 153.650  34.178  0.00  0.00     0.022 A 
ATOM     10  H12 AXI d          11.779 151.981  32.618  0.00  0.00     0.189 HD
ENDROOT
BRANCH   1  11
ATOM     11  S24 AXI d          12.701 156.518  35.819  0.00  0.00    -0.089 SA
BRANCH  11  12
ATOM     12  C18 AXI d          12.352 156.592  37.579  0.00  0.00     0.021 A 
ATOM     13  C23 AXI d          12.559 157.773  38.313  0.00  0.00     0.049 A 
ATOM     14  C22 AXI d          12.266 157.805  39.676  0.00  0.00     0.018 A 
ATOM     15  C21 AXI d          11.767 156.673  40.308  0.00  0.00     0.001 A 
ATOM     16  C20 AXI d          11.558 155.501  39.574  0.00  0.00     0.001 A 
ATOM     17  C19 AXI d          11.856 155.471  38.208  0.00  0.00     0.020 A 
BRANCH  13  18
ATOM     18  C80 AXI d          13.111 158.986  37.635  0.00  0.00     0.252 C 
ATOM     19  O81 AXI d          14.146 158.892  36.995  0.00  0.00    -0.268 OA
ATOM     20  N82 AXI d          12.462 160.257  37.745  0.00  0.00    -0.361 N 
ATOM     21  C88 AXI d          13.012 161.426  37.076  0.00  0.00     0.149 C 
ATOM     22  H1  AXI d          11.625 160.342  38.285  0.00  0.00     0.162 HD
ENDBRANCH  13  18
ENDBRANCH  11  12
ENDBRANCH   1  11
BRANCH   8  23
ATOM     23  C16 AXI d           7.267 152.350  33.545  0.00  0.00     0.036 C 
ATOM     24  C17 AXI d           6.380 153.148  34.222  0.00  0.00     0.034 C 
BRANCH  24  25
ATOM     25  C02 AXI d           4.925 152.765  34.291  0.00  0.00     0.056 A 
ATOM     26  N03 AXI d           4.422 151.890  33.398  0.00  0.00    -0.261 NA
ATOM     27  C04 AXI d           3.118 151.527  33.431  0.00  0.00     0.117 A 
ATOM     28  C05 AXI d           2.273 152.066  34.398  0.00  0.00     0.019 A 
ATOM     29  C06 AXI d           2.771 152.972  35.327  0.00  0.00     0.004 A 
ATOM     30  C01 AXI d           4.118 153.327  35.268  0.00  0.00     0.031 A 
ENDBRANCH  24  25
ENDBRANCH   8  23
TORSDOF 5
