REMARK  9 active torsions:
REMARK  status: ('A' for Active; 'I' for Inactive)
REMARK    1  A    between atoms: C9_9  and  C15_15 
REMARK    2  A    between atoms: C21_21  and  C10_10 
REMARK    3  A    between atoms: C20_20  and  C11_11 
REMARK    4  A    between atoms: C16_16  and  C20_20 
REMARK       I    between atoms: N27_27  and  C16_16 
REMARK    5  A    between atoms: C25_25  and  C21_21 
REMARK    6  A    between atoms: C22_22  and  C24_24 
REMARK    7  A    between atoms: C25_25  and  C22_22 
REMARK    8  A    between atoms: C23_23  and  C25_25 
REMARK    9  A    between atoms: C23_23  and  N27_27 
ROOT
ATOM      1  C25 VXO d          -9.114  45.093  -0.425  0.00  0.00     0.008 C 
ENDROOT
BRANCH   1   2
ATOM      2  C21 VXO d         -10.431  44.430  -0.071  0.00  0.00     0.046 C 
BRANCH   2   3
ATOM      3  C10 VXO d         -11.493  44.524  -1.124  0.00  0.00    -0.038 A 
ATOM      4  C4  VXO d         -11.162  44.087  -2.397  0.00  0.00     0.011 A 
ATOM      5  C6  VXO d         -12.068  44.106  -3.435  0.00  0.00     0.040 A 
ATOM      6  C13 VXO d         -13.326  44.570  -3.165  0.00  0.00     0.106 A 
ATOM      7  C14 VXO d         -13.661  44.997  -1.919  0.00  0.00     0.122 A 
ATOM      8  O31 VXO d         -14.364  44.653  -4.054  0.00  0.00    -0.323 OA
ATOM      9  C9  VXO d         -12.777  44.985  -0.865  0.00  0.00     0.083 A 
ATOM     10  O32 VXO d         -14.960  45.405  -1.864  0.00  0.00    -0.322 OA
ATOM     11  C17 VXO d         -15.425  44.919  -3.131  0.00  0.00     0.352 C 
BRANCH   9  12
ATOM     12  C15 VXO d         -13.253  45.477   0.453  0.00  0.00     0.212 C 
ATOM     13  O28 VXO d         -14.378  45.077   0.864  0.00  0.00    -0.644 OA
ATOM     14  O29 VXO d         -12.509  46.302   1.050  0.00  0.00    -0.644 OA
ENDBRANCH   9  12
ENDBRANCH   2   3
ENDBRANCH   1   2
BRANCH   1  15
ATOM     15  C22 VXO d          -8.048  44.765   0.610  0.00  0.00     0.010 C 
BRANCH  15  16
ATOM     16  C24 VXO d          -7.825  43.282   0.887  0.00  0.00    -0.022 C 
ATOM     17  C18 VXO d          -7.424  42.510  -0.355  0.00  0.00     0.009 C 
ATOM     18  C19 VXO d          -6.751  43.159   1.952  0.00  0.00     0.009 C 
ENDBRANCH  15  16
ENDBRANCH   1  15
BRANCH   1  19
ATOM     19  C23 VXO d          -9.289  46.601  -0.464  0.00  0.00     0.127 C 
BRANCH  19  20
ATOM     20  N27 VXO d          -9.821  47.138   0.771  0.00  0.00    -0.360 N 
ATOM     21  C16 VXO d          -9.042  47.919   1.601  0.00  0.00     0.221 C 
ATOM     22  O30 VXO d          -8.030  48.520   1.275  0.00  0.00    -0.273 OA
ATOM     23  H   VXO d         -10.767  46.940   1.027  0.00  0.00     0.162 HD
BRANCH  21  24
ATOM     24  C20 VXO d          -9.551  47.946   3.011  0.00  0.00     0.143 C 
BRANCH  24  25
ATOM     25  C11 VXO d         -10.502  49.040   3.282  0.00  0.00    -0.022 A 
ATOM     26  C7  VXO d         -10.897  50.066   2.451  0.00  0.00     0.097 A 
ATOM     27  N26 VXO d         -11.796  50.838   3.132  0.00  0.00    -0.365 N 
ATOM     28  C12 VXO d         -11.993  50.334   4.388  0.00  0.00     0.042 A 
ATOM     29  H   VXO d         -12.258  51.677   2.754  0.00  0.00     0.165 HD
ATOM     30  C5  VXO d         -12.809  50.796   5.394  0.00  0.00     0.030 A 
ATOM     31  C8  VXO d         -11.197  49.212   4.507  0.00  0.00    -0.001 A 
ATOM     32  C2  VXO d         -12.798  50.069   6.564  0.00  0.00     0.002 A 
ATOM     33  C1  VXO d         -12.012  48.949   6.709  0.00  0.00     0.001 A 
ATOM     34  C3  VXO d         -11.201  48.499   5.691  0.00  0.00     0.014 A 
ENDBRANCH  24  25
ENDBRANCH  21  24
ENDBRANCH  19  20
ENDBRANCH   1  19
TORSDOF 9
