REMARK  6 active torsions:
REMARK  status: ('A' for Active; 'I' for Inactive)
REMARK    1  A    between atoms: N3_10  and  C8_11 
REMARK    2  A    between atoms: C5_16  and  O1_17 
REMARK    3  A    between atoms: O1_17  and  C3_18 
REMARK    4  A    between atoms: C4_23  and  N5_24 
REMARK    5  A    between atoms: C20_29  and  C23_30 
REMARK    6  A    between atoms: C23_30  and  O2_32 
ROOT
ATOM      1  C8  MOL d          14.929  88.084  42.927  0.00  0.00     0.034 A 
ATOM      2  C9  MOL d          13.555  87.997  42.700  0.00  0.00     0.032 A 
ATOM      3  C10 MOL d          13.013  88.390  41.477  0.00  0.00     0.039 A 
ATOM      4  C7  MOL d          15.759  88.567  41.911  0.00  0.00     0.032 A 
ATOM      5  C6  MOL d          15.221  88.962  40.687  0.00  0.00     0.039 A 
ATOM      6  C5  MOL d          13.845  88.870  40.467  0.00  0.00     0.078 A 
ENDROOT
BRANCH   6   7
ATOM      7  O1  MOL d          13.314  89.257  39.270  0.00  0.00    -0.289 OA
BRANCH   7   8
ATOM      8  C3  MOL d          13.109  88.228  38.394  0.00  0.00     0.216 A 
ATOM      9  N2  MOL d          13.958  87.182  38.363  0.00  0.00    -0.232 NA
ATOM     10  C2  MOL d          13.774  86.180  37.519  0.00  0.00     0.139 A 
ATOM     11  C1  MOL d          12.691  86.203  36.645  0.00  0.00     0.138 A 
ATOM     12  N1  MOL d          11.848  87.222  36.662  0.00  0.00    -0.238 NA
ATOM     13  C4  MOL d          12.020  88.245  37.516  0.00  0.00     0.179 A 
BRANCH  13  14
ATOM     14  N5  MOL d          11.096  89.305  37.483  0.00  0.00    -0.362 N 
ATOM     15  C22 MOL d          10.167  89.536  38.639  0.00  0.00     0.125 C 
ATOM     16  C21 MOL d           9.698  91.003  38.752  0.00  0.00     0.027 C 
ATOM     17  C20 MOL d           9.371  91.605  37.371  0.00  0.00     0.017 C 
ATOM     18  C19 MOL d          10.636  91.563  36.508  0.00  0.00     0.027 C 
ATOM     19  C18 MOL d          11.035  90.112  36.228  0.00  0.00     0.125 C 
BRANCH  17  20
ATOM     20  C23 MOL d           8.755  93.021  37.421  0.00  0.00     0.118 C 
ATOM     21  C24 MOL d           9.374  93.921  38.500  0.00  0.00     0.040 C 
BRANCH  20  22
ATOM     22  O2  MOL d           7.333  92.918  37.585  0.00  0.00    -0.396 OA
ATOM     23  H25 MOL d           6.977  92.357  36.906  0.00  0.00     0.210 HD
ENDBRANCH  20  22
ENDBRANCH  17  20
ENDBRANCH  13  14
ENDBRANCH   7   8
ENDBRANCH   6   7
BRANCH   1  24
ATOM     24  N3  MOL d          15.392  87.686  44.121  0.00  0.00    -0.335 N 
ATOM     25  C11 MOL d          16.601  87.929  44.640  0.00  0.00     0.172 A 
ATOM     26  N4  MOL d          17.753  88.095  43.975  0.00  0.00    -0.223 NA
ATOM     27  S1  MOL d          16.904  88.045  46.285  0.00  0.00    -0.050 SA
ATOM     28  C13 MOL d          18.841  88.317  44.749  0.00  0.00     0.076 A 
ATOM     29  C17 MOL d          20.162  88.532  44.350  0.00  0.00     0.033 A 
ATOM     30  C12 MOL d          18.554  88.325  46.128  0.00  0.00     0.037 A 
ATOM     31  C16 MOL d          21.171  88.746  45.290  0.00  0.00     0.002 A 
ATOM     32  C15 MOL d          20.870  88.752  46.652  0.00  0.00     0.002 A 
ATOM     33  C14 MOL d          19.559  88.540  47.072  0.00  0.00     0.021 A 
ATOM     34  H5  MOL d          14.746  87.133  44.702  0.00  0.00     0.168 HD
ENDBRANCH   1  24
TORSDOF 6
