REMARK  13 active torsions:
REMARK  status: ('A' for Active; 'I' for Inactive)
REMARK    1  A    between atoms: N1_1  and  C2_2 
REMARK    2  A    between atoms: C2_2  and  C3_3 
REMARK    3  A    between atoms: C3_3  and  C4_4 
REMARK    4  A    between atoms: C4_4  and  N5_5 
REMARK    5  A    between atoms: N5_5  and  C6_6 
REMARK    6  A    between atoms: C6_6  and  C7_7 
REMARK    7  A    between atoms: C7_7  and  C8_8 
REMARK    8  A    between atoms: C8_8  and  C9_9 
REMARK    9  A    between atoms: C9_9  and  N10_10 
REMARK   10  A    between atoms: N10_10  and  C11_11 
REMARK   11  A    between atoms: C11_11  and  C12_12 
REMARK   12  A    between atoms: C12_12  and  C13_13 
REMARK   13  A    between atoms: C13_13  and  N14_14 
ROOT
ATOM      1  C7  SPM d          -4.176   1.500  13.981  0.00  0.00     0.029 C 
ENDROOT
BRANCH   1   2
ATOM      2  C6  SPM d          -4.576   2.391  15.138  0.00  0.00     0.232 C 
BRANCH   2   3
ATOM      3  N5  SPM d          -5.994   2.697  15.212  0.00  0.00    -0.075 N 
ATOM      4  H10 SPM d          -6.234   3.214  14.380  0.00  0.00     0.277 HD
ATOM      5  H11 SPM d          -6.491   1.820  15.217  0.00  0.00     0.277 HD
BRANCH   3   6
ATOM      6  C4  SPM d          -6.461   3.463  16.344  0.00  0.00     0.233 C 
BRANCH   6   7
ATOM      7  C3  SPM d          -6.649   2.655  17.632  0.00  0.00     0.055 C 
BRANCH   7   8
ATOM      8  C2  SPM d          -5.492   1.711  17.875  0.00  0.00     0.231 C 
BRANCH   8   9
ATOM      9  N1  SPM d          -6.009   0.365  17.862  0.00  0.00    -0.079 N 
ATOM     10  H1  SPM d          -5.256  -0.286  18.022  0.00  0.00     0.274 HD
ATOM     11  H2  SPM d          -6.432   0.176  16.967  0.00  0.00     0.274 HD
ATOM     12  H3  SPM d          -6.701   0.264  18.588  0.00  0.00     0.274 HD
ENDBRANCH   8   9
ENDBRANCH   7   8
ENDBRANCH   6   7
ENDBRANCH   3   6
ENDBRANCH   2   3
ENDBRANCH   1   2
BRANCH   1  13
ATOM     13  C8  SPM d          -4.612   2.279  12.753  0.00  0.00     0.029 C 
BRANCH  13  14
ATOM     14  C9  SPM d          -5.203   3.572  13.244  0.00  0.00     0.232 C 
BRANCH  14  15
ATOM     15  N10 SPM d          -4.213   4.328  13.973  0.00  0.00    -0.075 N 
ATOM     16  H20 SPM d          -3.402   4.366  13.375  0.00  0.00     0.277 HD
ATOM     17  H21 SPM d          -4.001   3.782  14.793  0.00  0.00     0.277 HD
BRANCH  15  18
ATOM     18  C11 SPM d          -4.417   5.667  14.438  0.00  0.00     0.233 C 
BRANCH  18  19
ATOM     19  C12 SPM d          -3.202   6.134  15.213  0.00  0.00     0.055 C 
BRANCH  19  20
ATOM     20  C13 SPM d          -1.894   5.830  14.486  0.00  0.00     0.231 C 
BRANCH  20  21
ATOM     21  N14 SPM d          -1.191   4.729  15.111  0.00  0.00    -0.079 N 
ATOM     22  H28 SPM d          -0.334   4.551  14.611  0.00  0.00     0.274 HD
ATOM     23  H29 SPM d          -1.770   3.904  15.089  0.00  0.00     0.274 HD
ATOM     24  H30 SPM d          -0.980   4.965  16.068  0.00  0.00     0.274 HD
ENDBRANCH  20  21
ENDBRANCH  19  20
ENDBRANCH  18  19
ENDBRANCH  15  18
ENDBRANCH  14  15
ENDBRANCH  13  14
ENDBRANCH   1  13
TORSDOF 13
