REMARK  8 active torsions:
REMARK  status: ('A' for Active; 'I' for Inactive)
REMARK    1  A    between atoms: C1_1  and  N1_10 
REMARK    2  A    between atoms: C4_4  and  C7_7 
REMARK    3  A    between atoms: C7_7  and  NA_8 
REMARK    4  A    between atoms: N1_10  and  N_11 
REMARK    5  A    between atoms: N_11  and  N1'_12 
REMARK    6  A    between atoms: N1'_12  and  C1'_13 
REMARK    7  A    between atoms: C4'_16  and  C7'_19 
REMARK    8  A    between atoms: C7'_19  and  NA'_20 
ROOT
ATOM      1  N   BRN d         -28.809 -12.520  75.571  0.00  0.00    -0.068 NA
ENDROOT
BRANCH   1   2
ATOM      2  N1  BRN d         -28.499 -12.258  76.839  0.00  0.00    -0.133 NA
BRANCH   2   3
ATOM      3  C1  BRN d         -29.145 -11.328  77.584  0.00  0.00     0.080 A 
ATOM      4  C2  BRN d         -30.117 -10.488  77.035  0.00  0.00     0.034 A 
ATOM      5  C3  BRN d         -30.717  -9.507  77.821  0.00  0.00     0.017 A 
ATOM      6  C4  BRN d         -30.440  -9.427  79.183  0.00  0.00     0.007 A 
ATOM      7  C5  BRN d         -29.472 -10.265  79.743  0.00  0.00     0.017 A 
ATOM      8  C6  BRN d         -28.827 -11.207  78.941  0.00  0.00     0.034 A 
BRANCH   6   9
ATOM      9  C7  BRN d         -31.153  -8.408  80.018  0.00  0.00     0.102 C 
ATOM     10  NB  BRN d         -30.547  -7.804  81.028  0.00  0.00    -0.385 N 
ATOM     11  H7  BRN d         -29.596  -8.088  81.302  0.00  0.00     0.157 HD
ATOM     12  H8  BRN d         -31.027  -7.050  81.540  0.00  0.00     0.157 HD
BRANCH   9  13
ATOM     13  NA  BRN d         -32.313  -8.037  79.711  0.00  0.00    -0.385 N 
ATOM     14  H5  BRN d         -32.799  -7.336  80.288  0.00  0.00     0.157 HD
ATOM     15  H6  BRN d         -32.778  -8.434  78.882  0.00  0.00     0.157 HD
ENDBRANCH   9  13
ENDBRANCH   6   9
ENDBRANCH   2   3
ENDBRANCH   1   2
BRANCH   1  16
ATOM     16  N1' BRN d         -28.161 -13.386  74.930  0.00  0.00    -0.260 N 
ATOM     17  H9  BRN d         -27.394 -13.895  75.392  0.00  0.00     0.191 HD
BRANCH  16  18
ATOM     18  C1' BRN d         -28.473 -13.665  73.590  0.00  0.00     0.051 A 
ATOM     19  C2' BRN d         -29.816 -13.694  73.248  0.00  0.00     0.032 A 
ATOM     20  C3' BRN d         -30.205 -13.980  71.955  0.00  0.00     0.017 A 
ATOM     21  C4' BRN d         -29.272 -14.233  70.961  0.00  0.00     0.007 A 
ATOM     22  C5' BRN d         -27.918 -14.209  71.287  0.00  0.00     0.017 A 
ATOM     23  C6' BRN d         -27.523 -13.935  72.605  0.00  0.00     0.032 A 
BRANCH  21  24
ATOM     24  C7' BRN d         -29.805 -14.544  69.594  0.00  0.00     0.102 C 
ATOM     25  NB' BRN d         -29.125 -14.253  68.486  0.00  0.00    -0.385 N 
ATOM     26  H16 BRN d         -28.235 -13.737  68.548  0.00  0.00     0.157 HD
ATOM     27  H17 BRN d         -29.489 -14.544  67.567  0.00  0.00     0.157 HD
BRANCH  24  28
ATOM     28  NA' BRN d         -30.902 -15.179  69.527  0.00  0.00    -0.385 N 
ATOM     29  H14 BRN d         -31.306 -15.414  68.609  0.00  0.00     0.157 HD
ATOM     30  H15 BRN d         -31.389 -15.459  70.391  0.00  0.00     0.157 HD
ENDBRANCH  24  28
ENDBRANCH  21  24
ENDBRANCH  16  18
ENDBRANCH   1  16
TORSDOF 8
