REMARK  6 active torsions:
REMARK  status: ('A' for Active; 'I' for Inactive)
REMARK    1  A    between atoms: C9_8  and  C7_11 
REMARK    2  A    between atoms: C7_11  and  N4'_12 
REMARK    3  A    between atoms: C4'_13  and  C5'_14 
REMARK    4  A    between atoms: C5'_14  and  O5'_15 
REMARK    5  A    between atoms: C3'_16  and  O3'_17 
REMARK    6  A    between atoms: C2'_18  and  O2'_19 
ROOT
ATOM      1  N4' MBY d         -23.103 -17.525 -19.879  0.00  0.00    -0.056 N 
ATOM      2  C4' MBY d         -23.094 -17.435 -18.405  0.00  0.00     0.243 C 
ATOM      3  C3' MBY d         -23.181 -15.906 -18.196  0.00  0.00     0.181 C 
ATOM      4  C2' MBY d         -23.664 -15.293 -19.496  0.00  0.00     0.174 C 
ATOM      5  C1' MBY d         -24.009 -16.473 -20.383  0.00  0.00     0.270 C 
ATOM      6  H6  MBY d         -22.180 -17.265 -20.191  0.00  0.00     0.281 HD
ENDROOT
BRANCH   1   7
ATOM      7  C7  MBY d         -23.296 -18.906 -20.385  0.00  0.00     0.277 C 
BRANCH   7   8
ATOM      8  C9  MBY d         -24.692 -19.335 -20.802  0.00  0.00     0.004 A 
ATOM      9  C4  MBY d         -25.273 -18.955 -22.128  0.00  0.00     0.089 A 
ATOM     10  N3  MBY d         -24.704 -18.220 -23.099  0.00  0.00    -0.242 NA
ATOM     11  C5  MBY d         -26.602 -19.535 -22.260  0.00  0.00     0.102 A 
ATOM     12  C2  MBY d         -25.367 -17.990 -24.234  0.00  0.00     0.210 A 
ATOM     13  N1  MBY d         -26.605 -18.480 -24.441  0.00  0.00    -0.317 N 
ATOM     14  C6  MBY d         -27.281 -19.237 -23.534  0.00  0.00     0.265 A 
ATOM     15  H1  MBY d         -27.053 -18.276 -25.311  0.00  0.00     0.170 HD
ATOM     16  O6  MBY d         -28.429 -19.674 -23.773  0.00  0.00    -0.267 OA
ATOM     17  S7  MBY d         -27.045 -20.431 -20.894  0.00  0.00    -0.093 SA
ATOM     18  C8  MBY d         -25.567 -20.131 -20.036  0.00  0.00     0.061 A 
ENDBRANCH   7   8
ENDBRANCH   1   7
BRANCH   2  19
ATOM     19  C5' MBY d         -24.246 -18.207 -17.724  0.00  0.00     0.200 C 
BRANCH  19  20
ATOM     20  O5' MBY d         -23.915 -19.572 -17.330  0.00  0.00    -0.399 OA
ATOM     21  H10 MBY d         -24.672 -19.975 -16.921  0.00  0.00     0.209 HD
ENDBRANCH  19  20
ENDBRANCH   2  19
BRANCH   3  22
ATOM     22  O3' MBY d         -21.906 -15.394 -17.740  0.00  0.00    -0.391 OA
ATOM     23  H12 MBY d         -21.239 -15.583 -18.390  0.00  0.00     0.210 HD
ENDBRANCH   3  22
BRANCH   4  24
ATOM     24  O2' MBY d         -22.646 -14.529 -20.146  0.00  0.00    -0.391 OA
ATOM     25  H14 MBY d         -22.366 -13.824 -19.574  0.00  0.00     0.210 HD
ENDBRANCH   4  24
TORSDOF 6
