REMARK  10 active torsions:
REMARK  status: ('A' for Active; 'I' for Inactive)
REMARK    1  A    between atoms: C20_1  and  C21_3 
REMARK       I    between atoms: N19_15  and  C20_1 
REMARK    2  A    between atoms: C31_9  and  O40_14 
REMARK    3  A    between atoms: C17_16  and  N19_15 
REMARK    4  A    between atoms: C16_17  and  C17_16 
REMARK    5  A    between atoms: C17_16  and  C18_19 
REMARK       I    between atoms: N15_40  and  C16_17 
REMARK    6  A    between atoms: C18_19  and  C33_20 
REMARK    7  A    between atoms: C13_38  and  C5_30 
REMARK    8  A    between atoms: C6_31  and  N8_33 
REMARK    9  A    between atoms: C14_39  and  C13_38 
REMARK   10  A    between atoms: C14_39  and  N15_40 
ROOT
ATOM      1  C17 MOL d          25.606  11.279  53.379  0.00  0.00     0.181 C 
ENDROOT
BRANCH   1   2
ATOM      2  N19 MOL d          26.340  10.095  53.754  0.00  0.00    -0.343 N 
ATOM      3  C20 MOL d          26.200   9.537  55.011  0.00  0.00     0.252 C 
ATOM      4  O22 MOL d          25.357   9.908  55.824  0.00  0.00    -0.268 OA
ATOM      5  H7  MOL d          26.960   9.671  53.094  0.00  0.00     0.163 HD
BRANCH   3   6
ATOM      6  C21 MOL d          27.174   8.473  55.367  0.00  0.00     0.033 A 
ATOM      7  C23 MOL d          28.386   8.375  54.705  0.00  0.00     0.019 A 
ATOM      8  C24 MOL d          29.270   7.379  55.066  0.00  0.00     0.031 A 
ATOM      9  C27 MOL d          28.945   6.494  56.084  0.00  0.00     0.048 A 
ATOM     10  C26 MOL d          27.743   6.593  56.740  0.00  0.00     0.025 A 
ATOM     11  N28 MOL d          29.840   5.480  56.471  0.00  0.00    -0.323 N 
ATOM     12  C25 MOL d          26.857   7.588  56.381  0.00  0.00     0.033 A 
ATOM     13  C31 MOL d          27.461   5.635  57.818  0.00  0.00     0.083 A 
ATOM     14  C30 MOL d          28.319   4.672  58.180  0.00  0.00     0.111 A 
ATOM     15  C29 MOL d          29.609   4.556  57.478  0.00  0.00     0.248 A 
ATOM     16  O32 MOL d          30.406   3.678  57.801  0.00  0.00    -0.268 OA
ATOM     17  H5  MOL d          30.710   5.421  55.982  0.00  0.00     0.169 HD
BRANCH  13  18
ATOM     18  O40 MOL d          26.258   5.778  58.440  0.00  0.00    -0.360 OA
ATOM     19  H6  MOL d          25.752   4.981  58.334  0.00  0.00     0.217 HD
ENDBRANCH  13  18
ENDBRANCH   3   6
ENDBRANCH   1   2
BRANCH   1  20
ATOM     20  C16 MOL d          24.857  10.883  52.129  0.00  0.00     0.240 C 
ATOM     21  O39 MOL d          25.239  10.002  51.377  0.00  0.00    -0.271 OA
ATOM     22  N15 MOL d          23.703  11.605  51.914  0.00  0.00    -0.359 N 
ATOM     23  H24 MOL d          23.459  12.359  52.524  0.00  0.00     0.162 HD
BRANCH  22  24
ATOM     24  C14 MOL d          22.847  11.263  50.797  0.00  0.00     0.127 C 
BRANCH  24  25
ATOM     25  C13 MOL d          21.977  12.432  50.406  0.00  0.00     0.060 C 
BRANCH  25  26
ATOM     26  C5  MOL d          20.872  12.050  49.464  0.00  0.00    -0.026 A 
ATOM     27  C4  MOL d          21.063  12.214  48.102  0.00  0.00     0.033 A 
ATOM     28  C3  MOL d          20.079  11.894  47.184  0.00  0.00     0.034 A 
ATOM     29  C2  MOL d          18.870  11.394  47.623  0.00  0.00     0.026 A 
ATOM     30 CL7  MOL d          20.365  12.135  45.471  0.00  0.00    -0.084 Cl
ATOM     31  C1  MOL d          18.660  11.217  48.985  0.00  0.00     0.033 A 
ATOM     32  C6  MOL d          19.654  11.546  49.897  0.00  0.00     0.061 A 
BRANCH  32  33
ATOM     33  N8  MOL d          19.402  11.372  51.276  0.00  0.00    -0.234 N 
ATOM     34  C9  MOL d          19.917  10.429  52.124  0.00  0.00     0.249 A 
ATOM     35  N10 MOL d          19.375  10.576  53.320  0.00  0.00    -0.156 NA
ATOM     36  N11 MOL d          18.508  11.631  53.191  0.00  0.00     0.017 NA
ATOM     37  N12 MOL d          18.517  12.124  51.957  0.00  0.00     0.002 NA
ENDBRANCH  32  33
ENDBRANCH  25  26
ENDBRANCH  24  25
ENDBRANCH  22  24
ENDBRANCH   1  20
BRANCH   1  38
ATOM     38  C18 MOL d          26.566  12.395  53.001  0.00  0.00     0.073 C 
BRANCH  38  39
ATOM     39  C33 MOL d          27.582  12.714  54.059  0.00  0.00    -0.056 A 
ATOM     40  C34 MOL d          27.184  13.218  55.281  0.00  0.00     0.007 A 
ATOM     41  C35 MOL d          28.110  13.521  56.253  0.00  0.00     0.001 A 
ATOM     42  C36 MOL d          29.449  13.314  56.004  0.00  0.00     0.000 A 
ATOM     43  C37 MOL d          29.853  12.810  54.786  0.00  0.00     0.001 A 
ATOM     44  C38 MOL d          28.921  12.515  53.812  0.00  0.00     0.007 A 
ENDBRANCH  38  39
ENDBRANCH   1  38
TORSDOF 10
