REMARK  4 active torsions:
REMARK  status: ('A' for Active; 'I' for Inactive)
REMARK    1  A    between atoms: C1_1  and  C7_7 
REMARK    2  A    between atoms: C7_7  and  N1_8 
REMARK    3  A    between atoms: C8_12  and  C1'_13 
REMARK    4  A    between atoms: C6'_18  and  O6'_19 
ROOT
ATOM      1  C1  BMZ d          11.940 -11.623  22.635  0.00  0.00     0.009 A 
ATOM      2  C2  BMZ d          12.309 -10.351  22.202  0.00  0.00     0.017 A 
ATOM      3  C3  BMZ d          13.133 -10.178  21.108  0.00  0.00     0.033 A 
ATOM      4  C4  BMZ d          13.567 -11.300  20.478  0.00  0.00     0.062 A 
ATOM      5  C5  BMZ d          13.230 -12.550  20.873  0.00  0.00     0.086 A 
ATOM      6  C6  BMZ d          12.409 -12.754  21.961  0.00  0.00     0.049 A 
ATOM      7  N3  BMZ d          14.327 -11.443  19.457  0.00  0.00    -0.338 N 
ATOM      8  N4  BMZ d          13.762 -13.480  20.124  0.00  0.00    -0.228 NA
ATOM      9  C8  BMZ d          14.443 -12.727  19.250  0.00  0.00     0.141 A 
ATOM     10  H8  BMZ d          14.763 -10.690  18.905  0.00  0.00     0.167 HD
ENDROOT
BRANCH   9  11
ATOM     11  C1' BMZ d          15.227 -13.235  18.202  0.00  0.00     0.043 A 
ATOM     12  C2' BMZ d          15.225 -14.611  17.917  0.00  0.00     0.018 A 
ATOM     13  C3' BMZ d          15.996 -15.117  16.881  0.00  0.00     0.001 A 
ATOM     14  C4' BMZ d          16.785 -14.260  16.117  0.00  0.00     0.003 A 
ATOM     15  C5' BMZ d          16.796 -12.894  16.395  0.00  0.00     0.037 A 
ATOM     16  C6' BMZ d          16.023 -12.377  17.434  0.00  0.00     0.079 A 
BRANCH  16  17
ATOM     17  O6' BMZ d          16.055 -11.025  17.691  0.00  0.00    -0.360 OA
ATOM     18  H13 BMZ d          15.481 -10.829  18.422  0.00  0.00     0.217 HD
ENDBRANCH  16  17
ENDBRANCH   9  11
BRANCH   1  19
ATOM     19  C7  BMZ d          11.105 -11.747  23.726  0.00  0.00     0.102 C 
ATOM     20  N2  BMZ d          11.015 -10.757  24.592  0.00  0.00    -0.385 N 
ATOM     21  H6  BMZ d          11.568  -9.899  24.453  0.00  0.00     0.157 HD
ATOM     22  H7  BMZ d          10.392 -10.841  25.407  0.00  0.00     0.157 HD
BRANCH  19  23
ATOM     23  N1  BMZ d          10.423 -12.853  23.861  0.00  0.00    -0.385 N 
ATOM     24  H4  BMZ d           9.792 -12.974  24.666  0.00  0.00     0.157 HD
ATOM     25  H5  BMZ d          10.517 -13.604  23.163  0.00  0.00     0.157 HD
ENDBRANCH  19  23
ENDBRANCH   1  19
TORSDOF 4
