REMARK  8 active torsions:
REMARK  status: ('A' for Active; 'I' for Inactive)
REMARK    1  A    between atoms: C12_7  and  C14_1 
REMARK    2  A    between atoms: C8_4  and  N18_18 
REMARK    3  A    between atoms: N11_14  and  C12_7 
REMARK    4  A    between atoms: C3_9  and  C2_11 
REMARK    5  A    between atoms: C2_11  and  O34_34 
REMARK    6  A    between atoms: N18_18  and  C19_19 
REMARK    7  A    between atoms: C23_23  and  N25_25 
REMARK    8  A    between atoms: C28_28  and  O32_32 
ROOT
ATOM      1  C5  MOL d         -52.701   1.185 -19.616  0.00  0.00     0.103 A 
ATOM      2  C6  MOL d         -53.699   2.145 -19.783  0.00  0.00     0.153 A 
ATOM      3  C8  MOL d         -53.963   1.554 -22.031  0.00  0.00     0.131 A 
ATOM      4  C9  MOL d         -52.934   0.607 -21.963  0.00  0.00     0.082 A 
ATOM      5  C10 MOL d         -52.300   0.396 -20.728  0.00  0.00     0.070 A 
ATOM      6  C3  MOL d         -51.122  -0.133 -18.919  0.00  0.00     0.136 A 
ATOM      7  N4  MOL d         -51.948   0.806 -18.563  0.00  0.00    -0.229 NA
ATOM      8  N7  MOL d         -54.295   2.270 -20.956  0.00  0.00    -0.241 NA
ATOM      9  N11 MOL d         -51.302  -0.434 -20.248  0.00  0.00    -0.318 N 
ENDROOT
BRANCH   3  10
ATOM     10  N18 MOL d         -54.647   1.874 -23.209  0.00  0.00    -0.325 N 
ATOM     11  H11 MOL d         -55.081   2.808 -23.229  0.00  0.00     0.169 HD
BRANCH  10  12
ATOM     12  C19 MOL d         -54.822   1.110 -24.353  0.00  0.00     0.149 A 
ATOM     13  C20 MOL d         -56.002   1.257 -25.100  0.00  0.00     0.071 A 
ATOM     14  C21 MOL d         -56.152   0.476 -26.245  0.00  0.00     0.140 A 
ATOM     15  N22 MOL d         -55.184  -0.376 -26.581  0.00  0.00    -0.075 NA
ATOM     16  C23 MOL d         -54.072  -0.515 -25.842  0.00  0.00     0.726 A 
ATOM     17  N24 MOL d         -53.887   0.260 -24.772  0.00  0.00    -0.045 NA
BRANCH  16  18
ATOM     18  N25 MOL d         -53.025  -1.350 -26.242  0.00  0.00    -0.211 N 
ATOM     19  C26 MOL d         -52.041  -1.828 -25.240  0.00  0.00     0.144 C 
ATOM     20  C27 MOL d         -50.630  -1.816 -25.879  0.00  0.00     0.055 C 
ATOM     21  C28 MOL d         -50.623  -2.612 -27.207  0.00  0.00     0.158 C 
ATOM     22  C29 MOL d         -51.711  -2.111 -28.183  0.00  0.00     0.217 C 
ATOM     23  C30 MOL d         -53.094  -2.081 -27.527  0.00  0.00     0.181 C 
ATOM     24  F31 MOL d         -51.417  -0.795 -28.529  0.00  0.00    -0.245 F 
BRANCH  21  25
ATOM     25  O32 MOL d         -49.354  -2.451 -27.844  0.00  0.00    -0.388 OA
ATOM     26  C33 MOL d         -48.514  -3.606 -27.736  0.00  0.00     0.202 C 
ENDBRANCH  21  25
ENDBRANCH  16  18
ENDBRANCH  10  12
ENDBRANCH   3  10
BRANCH   9  27
ATOM     27  C12 MOL d         -50.578  -1.487 -20.985  0.00  0.00     0.195 C 
ATOM     28  C13 MOL d         -51.485  -2.599 -21.544  0.00  0.00     0.042 C 
BRANCH  27  29
ATOM     29  C14 MOL d         -49.529  -0.933 -21.937  0.00  0.00     0.407 C 
ATOM     30  F15 MOL d         -48.711  -0.038 -21.259  0.00  0.00    -0.169 F 
ATOM     31  F16 MOL d         -48.758  -1.975 -22.432  0.00  0.00    -0.169 F 
ATOM     32  F17 MOL d         -50.130  -0.257 -22.989  0.00  0.00    -0.169 F 
ENDBRANCH  27  29
ENDBRANCH   9  27
BRANCH   6  33
ATOM     33  C2  MOL d         -50.121  -0.811 -17.999  0.00  0.00     0.183 C 
ATOM     34  C1  MOL d         -50.007  -0.152 -16.620  0.00  0.00     0.047 C 
BRANCH  33  35
ATOM     35  O34 MOL d         -50.562  -2.156 -17.834  0.00  0.00    -0.388 OA
ATOM     36  H25 MOL d         -51.410  -2.160 -17.405  0.00  0.00     0.210 HD
ENDBRANCH  33  35
ENDBRANCH   6  33
TORSDOF 8
