REMARK  3 active torsions:
REMARK  status: ('A' for Active; 'I' for Inactive)
REMARK    1  A    between atoms: P_1  and  O1P_2 
REMARK    2  A    between atoms: O1P_2  and  C2_6 
REMARK    3  A    between atoms: C2_6  and  C1_7 
ROOT
ATOM      1  O1P PGA d          85.879 -13.202  65.786  0.00  0.00    -0.272 OA
ENDROOT
BRANCH   1   2
ATOM      2  P   PGA d          84.678 -12.356  66.437  0.00  0.00     0.422 P 
ATOM      3  O2P PGA d          85.095 -12.270  67.848  0.00  0.00    -0.617 OA
ATOM      4  O3P PGA d          84.712 -11.082  65.645  0.00  0.00    -0.617 OA
ATOM      5  O4P PGA d          83.451 -13.157  66.218  0.00  0.00    -0.617 OA
ENDBRANCH   1   2
BRANCH   1   6
ATOM      6  C2  PGA d          86.172 -14.475  66.308  0.00  0.00     0.295 C 
BRANCH   6   7
ATOM      7  C1  PGA d          86.691 -15.405  65.239  0.00  0.00     0.198 C 
ATOM      8  O1  PGA d          85.997 -15.559  64.209  0.00  0.00    -0.646 OA
ATOM      9  O2  PGA d          87.792 -15.985  65.424  0.00  0.00    -0.646 OA
ENDBRANCH   6   7
ENDBRANCH   1   6
TORSDOF 3
