REMARK  20 active torsions:
REMARK  status: ('A' for Active; 'I' for Inactive)
REMARK    1  A    between atoms: BN1_1  and  BC1'_13 
REMARK    2  A    between atoms: BC4'_11  and  BC5'_10 
REMARK    3  A    between atoms: BC5'_10  and  BO5'_20 
REMARK    4  A    between atoms: BC3'_15  and  BO3'_16 
REMARK    5  A    between atoms: BO5'_20  and  PA_17 
REMARK    6  A    between atoms: PA_17  and  O3A_21 
REMARK    7  A    between atoms: O3A_21  and  PB_22 
REMARK    8  A    between atoms: PB_22  and  O3B_25 
REMARK    9  A    between atoms: O3B_25  and  PC_26 
REMARK   10  A    between atoms: PC_26  and  O3C_29 
REMARK   11  A    between atoms: O3C_29  and  PD_30 
REMARK   12  A    between atoms: PD_30  and  O3D_33 
REMARK   13  A    between atoms: O3D_33  and  PE_34 
REMARK   14  A    between atoms: PE_34  and  AO5'_37 
REMARK   15  A    between atoms: AO5'_37  and  AC5'_38 
REMARK   16  A    between atoms: AC5'_38  and  AC4'_39 
REMARK   17  A    between atoms: AC1'_41  and  AN9_46 
REMARK   18  A    between atoms: AC2'_42  and  AO2'_43 
REMARK   19  A    between atoms: AC3'_44  and  AO3'_45 
REMARK   20  A    between atoms: AC6_51  and  AN6_52 
ROOT
ATOM      1  O3C T5A d           0.110  -2.500 149.654  0.00  0.00    -0.180 OA
ENDROOT
BRANCH   1   2
ATOM      2  PC  T5A d           0.325  -3.053 148.089  0.00  0.00     0.427 P 
ATOM      3  O2C T5A d           1.697  -2.593 147.713  0.00  0.00    -0.624 OA
ATOM      4  O1C T5A d          -0.062  -4.467 148.018  0.00  0.00    -0.624 OA
BRANCH   2   5
ATOM      5  O3B T5A d          -0.864  -2.120 147.712  0.00  0.00    -0.180 OA
BRANCH   5   6
ATOM      6  PB  T5A d          -1.350  -1.200 146.558  0.00  0.00     0.427 P 
ATOM      7  O2B T5A d          -1.253   0.237 146.962  0.00  0.00    -0.624 OA
ATOM      8  O1B T5A d          -2.663  -1.690 146.073  0.00  0.00    -0.624 OA
BRANCH   6   9
ATOM      9  O3A T5A d          -0.209  -1.292 145.372  0.00  0.00    -0.180 OA
BRANCH   9  10
ATOM     10  PA  T5A d           0.574  -0.215 144.523  0.00  0.00     0.417 P 
ATOM     11  O2A T5A d           1.707   0.292 145.348  0.00  0.00    -0.624 OA
ATOM     12  O1A T5A d          -0.400   0.818 144.039  0.00  0.00    -0.624 OA
BRANCH  10  13
ATOM     13  BO5 T5A d           1.165  -1.171 143.389  0.00  0.00    -0.287 OA
BRANCH  13  14
ATOM     14  BC5 T5A d           0.364  -1.711 142.344  0.00  0.00     0.216 C 
BRANCH  14  15
ATOM     15  BC4 T5A d           1.201  -2.578 141.488  0.00  0.00     0.177 C 
ATOM     16  BO4 T5A d           2.085  -1.660 140.826  0.00  0.00    -0.356 OA
ATOM     17  BC1 T5A d           3.185  -2.527 140.501  0.00  0.00     0.235 C 
ATOM     18  BC2 T5A d           3.454  -3.180 141.887  0.00  0.00     0.088 C 
ATOM     19  BC3 T5A d           2.055  -3.485 142.359  0.00  0.00     0.153 C 
BRANCH  17  20
ATOM     20  BN1 T5A d           4.290  -1.726 139.984  0.00  0.00    -0.282 N 
ATOM     21  BC2 T5A d           5.007  -2.248 138.896  0.00  0.00     0.331 C 
ATOM     22  BN3 T5A d           5.898  -1.402 138.319  0.00  0.00    -0.275 N 
ATOM     23  BO2 T5A d           4.867  -3.386 138.469  0.00  0.00    -0.246 OA
ATOM     24  BC4 T5A d           6.127  -0.080 138.637  0.00  0.00     0.256 C 
ATOM     25  H2  T5A d           6.452  -1.781 137.578  0.00  0.00     0.173 HD
ATOM     26  BC5 T5A d           5.403   0.361 139.874  0.00  0.00     0.022 C 
ATOM     27  BO4 T5A d           6.885   0.615 137.927  0.00  0.00    -0.267 OA
ATOM     28  BC6 T5A d           4.528  -0.469 140.472  0.00  0.00     0.110 C 
ATOM     29  BC7 T5A d           5.615   1.765 140.436  0.00  0.00     0.056 C 
ENDBRANCH  17  20
BRANCH  19  30
ATOM     30  BO3 T5A d           1.861  -4.844 142.123  0.00  0.00    -0.393 OA
ATOM     31  H13 T5A d           2.424  -5.348 142.699  0.00  0.00     0.210 HD
ENDBRANCH  19  30
ENDBRANCH  14  15
ENDBRANCH  13  14
ENDBRANCH  10  13
ENDBRANCH   9  10
ENDBRANCH   6   9
ENDBRANCH   5   6
ENDBRANCH   2   5
ENDBRANCH   1   2
BRANCH   1  32
ATOM     32  PD  T5A d           0.987  -1.829 150.772  0.00  0.00     0.427 P 
ATOM     33  O2D T5A d           2.148  -2.684 150.914  0.00  0.00    -0.624 OA
ATOM     34  O1D T5A d           1.103  -0.345 150.569  0.00  0.00    -0.624 OA
BRANCH  32  35
ATOM     35  O3D T5A d           0.017  -1.963 152.137  0.00  0.00    -0.180 OA
BRANCH  35  36
ATOM     36  PE  T5A d          -0.884  -0.952 152.978  0.00  0.00     0.417 P 
ATOM     37  O2E T5A d          -1.825  -0.182 152.132  0.00  0.00    -0.624 OA
ATOM     38  O1E T5A d           0.052  -0.094 153.756  0.00  0.00    -0.624 OA
BRANCH  36  39
ATOM     39  AO5 T5A d          -1.645  -2.051 153.854  0.00  0.00    -0.287 OA
BRANCH  39  40
ATOM     40  AC5 T5A d          -2.591  -3.007 153.538  0.00  0.00     0.216 C 
BRANCH  40  41
ATOM     41  AC4 T5A d          -3.333  -3.448 154.818  0.00  0.00     0.180 C 
ATOM     42  AC3 T5A d          -4.017  -2.296 155.545  0.00  0.00     0.182 C 
ATOM     43  AC2 T5A d          -3.008  -1.975 156.613  0.00  0.00     0.198 C 
ATOM     44  AC1 T5A d          -2.484  -3.400 156.988  0.00  0.00     0.262 C 
ATOM     45  AO4 T5A d          -2.514  -4.140 155.754  0.00  0.00    -0.353 OA
BRANCH  42  46
ATOM     46  AO3 T5A d          -5.134  -2.930 156.202  0.00  0.00    -0.390 OA
ATOM     47  H21 T5A d          -5.501  -2.335 156.845  0.00  0.00     0.210 HD
ENDBRANCH  42  46
BRANCH  43  48
ATOM     48  AO2 T5A d          -3.638  -1.196 157.675  0.00  0.00    -0.388 OA
ATOM     49  H19 T5A d          -4.349  -1.698 158.056  0.00  0.00     0.210 HD
ENDBRANCH  43  48
BRANCH  44  50
ATOM     50  AN9 T5A d          -1.067  -3.409 157.603  0.00  0.00    -0.294 N 
ATOM     51  AC8 T5A d          -0.067  -2.517 157.362  0.00  0.00     0.214 A 
ATOM     52  AN7 T5A d           1.000  -2.673 158.104  0.00  0.00    -0.236 NA
ATOM     53  AC5 T5A d           0.729  -3.805 158.823  0.00  0.00     0.149 A 
ATOM     54  AC4 T5A d          -0.526  -4.280 158.525  0.00  0.00     0.167 A 
ATOM     55  AC6 T5A d           1.511  -4.486 159.773  0.00  0.00     0.155 C 
ATOM     56  AN3 T5A d          -1.137  -5.354 159.104  0.00  0.00    -0.222 NA
ATOM     57  AC2 T5A d          -0.278  -5.992 159.929  0.00  0.00     0.237 C 
ATOM     58  AN1 T5A d           0.993  -5.650 160.240  0.00  0.00    -0.222 NA
BRANCH  55  59
ATOM     59  AN6 T5A d           2.716  -4.026 160.165  0.00  0.00    -0.382 N 
ATOM     60  H23 T5A d           3.076  -3.138 159.788  0.00  0.00     0.157 HD
ATOM     61  H24 T5A d           3.277  -4.563 160.842  0.00  0.00     0.157 HD
ENDBRANCH  55  59
ENDBRANCH  44  50
ENDBRANCH  40  41
ENDBRANCH  39  40
ENDBRANCH  36  39
ENDBRANCH  35  36
ENDBRANCH  32  35
ENDBRANCH   1  32
TORSDOF 20
