REMARK  10 active torsions:
REMARK  status: ('A' for Active; 'I' for Inactive)
REMARK    1  A    between atoms: O3B_8  and  PG_1 
REMARK    2  A    between atoms: PB_5  and  O3B_8 
REMARK    3  A    between atoms: O3A_12  and  PB_5 
REMARK    4  A    between atoms: PA_9  and  O3A_12 
REMARK    5  A    between atoms: PA_9  and  O5'_13 
REMARK    6  A    between atoms: O5'_13  and  C5'_14 
REMARK    7  A    between atoms: C5'_14  and  C4'_15 
REMARK    8  A    between atoms: C3'_17  and  O3'_18 
REMARK    9  A    between atoms: C2'_19  and  O2'_20 
REMARK   10  A    between atoms: C1'_21  and  N9_22 
ROOT
ATOM      1  C4' ATP d          16.238  13.170 -33.264  0.00  0.00     0.180 C 
ATOM      2  O4' ATP d          16.588  14.470 -33.696  0.00  0.00    -0.353 OA
ATOM      3  C3' ATP d          16.282  12.267 -34.514  0.00  0.00     0.182 C 
ATOM      4  C2' ATP d          17.016  13.088 -35.538  0.00  0.00     0.198 C 
ATOM      5  C1' ATP d          16.608  14.498 -35.130  0.00  0.00     0.262 C 
ENDROOT
BRANCH   1   6
ATOM      6  C5' ATP d          17.193  12.863 -32.123  0.00  0.00     0.216 C 
BRANCH   6   7
ATOM      7  O5' ATP d          18.486  12.704 -32.687  0.00  0.00    -0.287 OA
BRANCH   7   8
ATOM      8  PA  ATP d          19.335  11.406 -32.272  0.00  0.00     0.417 P 
ATOM      9  O1A ATP d          19.456  11.433 -30.771  0.00  0.00    -0.624 OA
ATOM     10  O2A ATP d          20.603  11.456 -33.056  0.00  0.00    -0.624 OA
BRANCH   8  11
ATOM     11  O3A ATP d          18.369  10.186 -32.722  0.00  0.00    -0.180 OA
BRANCH  11  12
ATOM     12  PB  ATP d          17.747   9.043 -31.764  0.00  0.00     0.428 P 
ATOM     13  O1B ATP d          16.860   9.600 -30.675  0.00  0.00    -0.624 OA
ATOM     14  O2B ATP d          18.801   8.074 -31.280  0.00  0.00    -0.624 OA
BRANCH  12  15
ATOM     15  O3B ATP d          16.704   8.293 -32.756  0.00  0.00    -0.173 OA
BRANCH  15  16
ATOM     16  PG  ATP d          16.910   7.479 -34.145  0.00  0.00     0.431 P 
ATOM     17  O1G ATP d          15.453   7.291 -34.529  0.00  0.00    -0.616 OA
ATOM     18  O2G ATP d          17.720   8.360 -35.079  0.00  0.00    -0.616 OA
ATOM     19  O3G ATP d          17.556   6.191 -33.725  0.00  0.00    -0.616 OA
ENDBRANCH  15  16
ENDBRANCH  12  15
ENDBRANCH  11  12
ENDBRANCH   8  11
ENDBRANCH   7   8
ENDBRANCH   6   7
ENDBRANCH   1   6
BRANCH   3  20
ATOM     20  O3' ATP d          14.955  12.005 -35.017  0.00  0.00    -0.390 OA
ATOM     21  H5  ATP d          15.013  11.448 -35.785  0.00  0.00     0.210 HD
ENDBRANCH   3  20
BRANCH   5  22
ATOM     22  N9  ATP d          17.527  15.532 -35.588  0.00  0.00    -0.294 N 
ATOM     23  C8  ATP d          18.865  15.465 -35.603  0.00  0.00     0.214 A 
ATOM     24  N7  ATP d          19.365  16.622 -36.058  0.00  0.00    -0.236 NA
ATOM     25  C5  ATP d          18.343  17.446 -36.335  0.00  0.00     0.149 A 
ATOM     26  C6  ATP d          18.168  18.808 -36.866  0.00  0.00     0.155 A 
ATOM     27  C4  ATP d          17.128  16.715 -36.035  0.00  0.00     0.167 A 
ATOM     28  N6  ATP d          19.230  19.570 -37.193  0.00  0.00    -0.382 N 
ATOM     29  N1  ATP d          16.922  19.293 -36.983  0.00  0.00    -0.222 NA
ATOM     30  H10 ATP d          19.087  20.521 -37.563  0.00  0.00     0.157 HD
ATOM     31  H11 ATP d          20.184  19.202 -37.073  0.00  0.00     0.157 HD
ATOM     32  C2  ATP d          15.845  18.559 -36.670  0.00  0.00     0.237 A 
ATOM     33  N3  ATP d          15.936  17.310 -36.215  0.00  0.00    -0.222 NA
ENDBRANCH   5  22
BRANCH   4  34
ATOM     34  O2' ATP d          16.658  12.816 -36.886  0.00  0.00    -0.388 OA
ATOM     35  H7  ATP d          15.732  12.989 -37.008  0.00  0.00     0.210 HD
ENDBRANCH   4  34
TORSDOF 10
