REMARK  12 active torsions:
REMARK  status: ('A' for Active; 'I' for Inactive)
REMARK       I    between atoms: N_4  and  C_1 
REMARK    1  A    between atoms: CA_5  and  N_4 
REMARK    2  A    between atoms: C_6  and  CA_5 
REMARK    3  A    between atoms: CA_5  and  CB_8 
REMARK       I    between atoms: N_20  and  C_6 
REMARK    4  A    between atoms: CB_8  and  CG_9 
REMARK    5  A    between atoms: CZ_14  and  OH_15 
REMARK    6  A    between atoms: OH_15  and  P_16 
REMARK    7  A    between atoms: CA_22  and  N_20 
REMARK    8  A    between atoms: CA_22  and  C_23 
REMARK       I    between atoms: C_23  and  N_27 
REMARK    9  A    between atoms: N_27  and  CA_28 
REMARK   10  A    between atoms: CA_28  and  C_29 
REMARK   11  A    between atoms: CA_28  and  CB_31 
REMARK       I    between atoms: C_29  and  N_35 
REMARK   12  A    between atoms: CB_31  and  CG_32 
REMARK       I    between atoms: CG_32  and  ND2_34 
ROOT
ATOM      1  C   ACE d          -7.312   7.882  -1.000  0.00  0.00     0.241 C 
ATOM      2  O   ACE d          -6.129   8.146  -1.145  0.00  0.00    -0.271 OA
ATOM      3  N   ACE d          -8.046   7.235  -1.866  0.00  0.00    -0.341 N 
ATOM      4  H12 ACE d          -9.014   7.068  -1.679  0.00  0.00     0.163 HD
ENDROOT
BRANCH   3   5
ATOM      5  CA  ACE d          -7.441   6.753  -3.118  0.00  0.00     0.114 C 
ATOM      6  CB1 ACE d          -6.651   5.450  -2.935  0.00  0.00     0.041 C 
ATOM      7  CG  ACE d          -7.883   4.611  -3.357  0.00  0.00     0.006 C 
ATOM      8  CB2 ACE d          -8.511   5.929  -3.870  0.00  0.00     0.041 C 
BRANCH   5   9
ATOM      9  C   ACE d          -6.755   7.922  -3.905  0.00  0.00     0.246 C 
ATOM     10  O   ACE d          -5.723   7.791  -4.608  0.00  0.00    -0.271 OA
ATOM     11  N   ACE d          -7.388   9.061  -3.811  0.00  0.00    -0.345 N 
ATOM     12  H19 ACE d          -8.185   9.114  -3.209  0.00  0.00     0.163 HD
BRANCH  11  13
ATOM     13  CA  ACE d          -6.986  10.265  -4.546  0.00  0.00     0.185 C 
BRANCH  13  14
ATOM     14  C   ACE d          -6.289  11.269  -3.632  0.00  0.00     0.238 C 
ATOM     15  O   ACE d          -6.169  12.415  -3.995  0.00  0.00    -0.271 OA
ATOM     16  N   ACE d          -5.730  10.858  -2.475  0.00  0.00    -0.368 N 
ATOM     17  H25 ACE d          -5.274  11.518  -1.878  0.00  0.00     0.159 HD
ATOM     18  H26 ACE d          -5.772   9.893  -2.215  0.00  0.00     0.159 HD
ENDBRANCH  13  14
BRANCH  13  19
ATOM     19  CB  ACE d          -8.203  10.852  -5.348  0.00  0.00     0.137 C 
BRANCH  19  20
ATOM     20  CG  ACE d          -9.351  11.423  -4.433  0.00  0.00     0.217 C 
ATOM     21  OD1 ACE d          -9.373  11.126  -3.222  0.00  0.00    -0.274 OA
ATOM     22  ND2 ACE d         -10.168  12.326  -4.986  0.00  0.00    -0.370 N 
ATOM     23  H23 ACE d         -10.914  12.721  -4.449  0.00  0.00     0.159 HD
ATOM     24  H24 ACE d         -10.033  12.607  -5.936  0.00  0.00     0.159 HD
ENDBRANCH  19  20
ENDBRANCH  13  19
ENDBRANCH  11  13
ENDBRANCH   5   9
ENDBRANCH   3   5
BRANCH   1  25
ATOM     25  CA  ACE d          -8.037   8.276   0.283  0.00  0.00     0.180 C 
BRANCH  25  26
ATOM     26  N   ACE d          -7.151   8.010   1.460  0.00  0.00    -0.348 N 
ATOM     27  C   ACE d          -7.607   7.337   2.536  0.00  0.00     0.214 C 
ATOM     28  O   ACE d          -8.742   6.841   2.657  0.00  0.00    -0.274 OA
ATOM     29  CH3 ACE d          -6.565   7.191   3.660  0.00  0.00     0.117 C 
ATOM     30  H4  ACE d          -6.206   8.337   1.448  0.00  0.00     0.163 HD
ENDBRANCH  25  26
BRANCH  25  31
ATOM     31  CB  ACE d          -8.445   9.758   0.214  0.00  0.00     0.073 C 
BRANCH  31  32
ATOM     32  CG  ACE d          -9.142  10.179   1.511  0.00  0.00    -0.056 A 
ATOM     33  CD1 ACE d          -8.355  10.642   2.565  0.00  0.00     0.010 A 
ATOM     34  CE1 ACE d          -8.997  10.983   3.739  0.00  0.00     0.038 A 
ATOM     35  CZ  ACE d         -10.360  10.828   3.911  0.00  0.00     0.082 A 
ATOM     36  CE2 ACE d         -11.170  10.379   2.871  0.00  0.00     0.038 A 
ATOM     37  CD2 ACE d         -10.528  10.039   1.651  0.00  0.00     0.010 A 
BRANCH  35  38
ATOM     38  OH  ACE d         -10.811  11.205   5.170  0.00  0.00    -0.240 OA
BRANCH  38  39
ATOM     39  P   ACE d         -12.333  10.837   5.662  0.00  0.00     0.427 P 
ATOM     40  O1P ACE d         -13.289  11.908   5.199  0.00  0.00    -0.617 OA
ATOM     41  O2P ACE d         -12.642   9.497   5.378  0.00  0.00    -0.617 OA
ATOM     42  O3P ACE d         -12.140  10.995   7.260  0.00  0.00    -0.617 OA
ENDBRANCH  38  39
ENDBRANCH  35  38
ENDBRANCH  31  32
ENDBRANCH  25  31
ENDBRANCH   1  25
TORSDOF 12
