REMARK  6 active torsions:
REMARK  status: ('A' for Active; 'I' for Inactive)
REMARK    1  A    between atoms: C3_1  and  S1_13 
REMARK    2  A    between atoms: N8_21  and  C9_2 
REMARK    3  A    between atoms: C9_2  and  C10_3 
REMARK    4  A    between atoms: S1_13  and  N21_12 
REMARK    5  A    between atoms: C6_16  and  S7_18 
REMARK    6  A    between atoms: S7_18  and  N8_21 
ROOT
ATOM      1  S7  AL5 d          -4.924   5.413  13.825  0.00  0.00     0.265 S 
ATOM      2  O3B AL5 d          -6.086   5.417  12.999  0.00  0.00    -0.200 OA
ATOM      3  O4B AL5 d          -5.253   6.332  14.866  0.00  0.00    -0.200 OA
ENDROOT
BRANCH   1   4
ATOM      4  C6  AL5 d          -4.772   3.864  14.585  0.00  0.00     0.121 A 
ATOM      5  C5  AL5 d          -3.663   3.044  14.711  0.00  0.00     0.035 A 
ATOM      6  C4  AL5 d          -3.945   1.918  15.454  0.00  0.00     0.035 A 
ATOM      7  C3  AL5 d          -5.262   1.917  15.868  0.00  0.00     0.121 A 
ATOM      8  S2  AL5 d          -6.186   3.290  15.352  0.00  0.00    -0.063 SA
BRANCH   7   9
ATOM      9  S1  AL5 d          -5.923   0.680  16.887  0.00  0.00     0.263 S 
ATOM     10  O2A AL5 d          -7.342   0.898  16.816  0.00  0.00    -0.200 OA
ATOM     11  O1A AL5 d          -5.452   0.890  18.209  0.00  0.00    -0.200 OA
BRANCH   9  12
ATOM     12  N21 AL5 d          -5.426  -0.670  16.241  0.00  0.00    -0.324 N 
ATOM     13  H10 AL5 d          -5.680  -1.545  16.654  0.00  0.00     0.169 HD
ATOM     14  H11 AL5 d          -4.857  -0.651  15.419  0.00  0.00     0.169 HD
ENDBRANCH   9  12
ENDBRANCH   7   9
ENDBRANCH   1   4
BRANCH   1  15
ATOM     15  N8  AL5 d          -3.674   5.788  13.110  0.00  0.00    -0.311 N 
ATOM     16  H14 AL5 d          -3.619   5.876  12.115  0.00  0.00     0.172 HD
BRANCH  15  17
ATOM     17  C9  AL5 d          -2.533   6.016  13.996  0.00  0.00     0.170 C 
BRANCH  17  18
ATOM     18  C10 AL5 d          -2.073   7.458  14.006  0.00  0.00    -0.040 A 
ATOM     19  C15 AL5 d          -1.655   8.018  15.212  0.00  0.00     0.009 A 
ATOM     20  C14 AL5 d          -1.224   9.340  15.266  0.00  0.00     0.007 A 
ATOM     21  C13 AL5 d          -1.209  10.118  14.112  0.00  0.00    -0.062 A 
ATOM     22  C12 AL5 d          -1.630   9.564  12.892  0.00  0.00     0.007 A 
ATOM     23  C16 AL5 d          -0.706  11.575  14.204  0.00  0.00     0.048 C 
ATOM     24  C11 AL5 d          -2.059   8.237  12.836  0.00  0.00     0.009 A 
ENDBRANCH  17  18
ENDBRANCH  15  17
ENDBRANCH   1  15
TORSDOF 6
