REMARK  3 active torsions:
REMARK  status: ('A' for Active; 'I' for Inactive)
REMARK    1  A    between atoms: C7_7  and  S8_8 
REMARK    2  A    between atoms: S8_8  and  C11_11 
REMARK    3  A    between atoms: C17_17  and  N18_18 
ROOT
ATOM      1  C11 B2K d          65.653  10.728  24.523  0.00  0.00     0.177 A 
ATOM      2  N12 B2K d          66.682  11.261  25.227  0.00  0.00    -0.051 NA
ATOM      3  C13 B2K d          65.878  10.200  23.247  0.00  0.00     0.072 A 
ATOM      4  C14 B2K d          67.186  10.163  22.769  0.00  0.00     0.052 A 
ATOM      5  C15 B2K d          67.474   9.568  21.381  0.00  0.00     0.071 C 
ATOM      6  N16 B2K d          68.191  10.714  23.491  0.00  0.00    -0.068 NA
ATOM      7  C17 B2K d          67.948  11.217  24.723  0.00  0.00     0.721 A 
ENDROOT
BRANCH   1   8
ATOM      8  S8  B2K d          64.012  10.784  25.182  0.00  0.00     0.224 S 
ATOM      9  O9  B2K d          63.154   9.679  24.638  0.00  0.00    -0.216 OA
ATOM     10  O10 B2K d          64.095  10.718  26.678  0.00  0.00    -0.216 OA
BRANCH   8  11
ATOM     11  C7  B2K d          63.284  12.325  24.712  0.00  0.00     0.065 A 
ATOM     12  C1  B2K d          63.769  13.502  25.269  0.00  0.00     0.024 A 
ATOM     13  C2  B2K d          63.195  14.720  24.900  0.00  0.00     0.008 A 
ATOM     14  C3  B2K d          62.155  14.763  23.957  0.00  0.00    -0.062 A 
ATOM     15  C4  B2K d          61.571  16.112  23.543  0.00  0.00     0.048 C 
ATOM     16  C5  B2K d          61.672  13.583  23.385  0.00  0.00     0.008 A 
ATOM     17  C6  B2K d          62.219  12.360  23.802  0.00  0.00     0.024 A 
ENDBRANCH   8  11
ENDBRANCH   1   8
BRANCH   7  18
ATOM     18  N18 B2K d          68.974  11.666  25.419  0.00  0.00    -0.231 N 
ATOM     19  H12 B2K d          68.826  12.056  26.361  0.00  0.00     0.174 HD
ATOM     20  H13 B2K d          69.923  11.627  25.021  0.00  0.00     0.174 HD
ENDBRANCH   7  18
TORSDOF 3
