REMARK  3 active torsions:
REMARK  status: ('A' for Active; 'I' for Inactive)
REMARK    1  A    between atoms: C1_1  and  O1_16 
REMARK    2  A    between atoms: C22_11  and  O22_17 
REMARK    3  A    between atoms: C25_14  and  N25_18 
ROOT
ATOM      1  C1  MNX d          26.650   3.579  16.384  0.00  0.00     0.082 A 
ATOM      2  C2  MNX d          25.952   4.813  16.172  0.00  0.00     0.082 A 
ATOM      3  C3  MNX d          25.311   5.464  17.285  0.00  0.00     0.093 A 
ATOM      4  C4  MNX d          25.345   4.872  18.572  0.00  0.00     0.038 A 
ATOM      5  C5  MNX d          26.031   3.649  18.775  0.00  0.00     0.006 A 
ATOM      6  C6  MNX d          26.676   3.000  17.684  0.00  0.00     0.037 A 
ATOM      7  O13 MNX d          24.624   6.655  17.108  0.00  0.00    -0.306 OA
ATOM      8  C14 MNX d          24.525   7.313  15.872  0.00  0.00     0.126 A 
ATOM      9  C15 MNX d          25.144   6.756  14.702  0.00  0.00     0.085 A 
ATOM     10  C16 MNX d          25.895   5.474  14.839  0.00  0.00     0.203 A 
ATOM     11  C22 MNX d          25.029   7.439  13.448  0.00  0.00     0.082 A 
ATOM     12  C23 MNX d          24.310   8.650  13.367  0.00  0.00     0.040 A 
ATOM     13  C24 MNX d          23.695   9.197  14.519  0.00  0.00     0.042 A 
ATOM     14  C25 MNX d          23.797   8.542  15.772  0.00  0.00     0.137 A 
ATOM     15  O16 MNX d          26.445   4.949  13.856  0.00  0.00    -0.286 OA
ENDROOT
BRANCH  14  16
ATOM     16  N25 MNX d          23.147   9.142  16.920  0.00  0.00    -0.113 N 
ATOM     17  O2B MNX d          23.203   8.565  18.160  0.00  0.00    -0.532 OA
ATOM     18  O2A MNX d          22.459  10.314  16.769  0.00  0.00    -0.532 OA
ENDBRANCH  14  16
BRANCH  11  19
ATOM     19  O22 MNX d          25.610   6.945  12.281  0.00  0.00    -0.360 OA
ATOM     20  H7  MNX d          26.060   6.131  12.473  0.00  0.00     0.217 HD
ENDBRANCH  11  19
BRANCH   1  21
ATOM     21  O1  MNX d          27.287   2.914  15.334  0.00  0.00    -0.360 OA
ATOM     22  H6  MNX d          27.186   3.417  14.534  0.00  0.00     0.217 HD
ENDBRANCH   1  21
TORSDOF 3
