REMARK  13 active torsions:
REMARK  status: ('A' for Active; 'I' for Inactive)
REMARK    1  A    between atoms: C11_11  and  N3_1 
REMARK       I    between atoms: N3_1  and  C10_12 
REMARK    2  A    between atoms: C18_3  and  N5_2 
REMARK    3  A    between atoms: C14_5  and  C18_3 
REMARK    4  A    between atoms: C17_8  and  C11_11 
REMARK    5  A    between atoms: C10_12  and  C8_14 
REMARK    6  A    between atoms: C8_14  and  N2_15 
REMARK       I    between atoms: N2_15  and  C7_16 
REMARK    7  A    between atoms: C7_16  and  C5_18 
REMARK    8  A    between atoms: C5_18  and  C6_19 
REMARK    9  A    between atoms: C5_18  and  N1_21 
REMARK   10  A    between atoms: C6_19  and  O3_20 
REMARK   11  A    between atoms: N1_21  and  S1_22 
REMARK   12  A    between atoms: S1_22  and  C1_25 
REMARK   13  A    between atoms: C1_25  and  C4_26 
ROOT
ATOM      1  C8  SK1 d          28.936  10.155  30.941  0.00  0.00     0.172 C 
ATOM      2  C22 SK1 d          27.606  10.772  31.385  0.00  0.00     0.042 C 
ENDROOT
BRANCH   1   3
ATOM      3  C10 SK1 d          28.802   9.482  29.600  0.00  0.00     0.240 C 
ATOM      4  N3  SK1 d          28.462   8.149  29.675  0.00  0.00    -0.355 N 
ATOM      5  H1  SK1 d          28.270   7.739  30.567  0.00  0.00     0.162 HD
ATOM      6  O5  SK1 d          29.000  10.097  28.581  0.00  0.00    -0.271 OA
BRANCH   4   7
ATOM      7  C11 SK1 d          28.380   7.343  28.495  0.00  0.00     0.161 C 
BRANCH   7   8
ATOM      8  C17 SK1 d          29.666   6.593  28.234  0.00  0.00    -0.040 C 
ATOM      9  C12 SK1 d          30.748   7.168  27.535  0.00  0.00     0.010 C 
ATOM     10  C13 SK1 d          31.947   6.471  27.300  0.00  0.00     0.016 C 
ATOM     11  C14 SK1 d          32.025   5.116  27.668  0.00  0.00     0.007 C 
ATOM     12  C15 SK1 d          30.962   4.550  28.402  0.00  0.00     0.016 C 
ATOM     13  C16 SK1 d          29.808   5.280  28.694  0.00  0.00     0.010 C 
BRANCH  11  14
ATOM     14  C18 SK1 d          33.113   4.297  27.325  0.00  0.00     0.102 C 
ATOM     15  N4  SK1 d          33.043   2.972  27.518  0.00  0.00    -0.385 N 
ATOM     16  H4  SK1 d          32.192   2.555  27.922  0.00  0.00     0.157 HD
ATOM     17  H5  SK1 d          33.840   2.372  27.262  0.00  0.00     0.157 HD
BRANCH  14  18
ATOM     18  N5  SK1 d          34.276   4.721  26.791  0.00  0.00    -0.385 N 
ATOM     19  H2  SK1 d          34.423   5.724  26.606  0.00  0.00     0.157 HD
ATOM     20  H3  SK1 d          35.018   4.042  26.568  0.00  0.00     0.157 HD
ENDBRANCH  14  18
ENDBRANCH  11  14
ENDBRANCH   7   8
ENDBRANCH   4   7
ENDBRANCH   1   3
BRANCH   1  21
ATOM     21  N2  SK1 d          29.927  11.178  30.975  0.00  0.00    -0.346 N 
ATOM     22  C7  SK1 d          31.239  10.804  30.781  0.00  0.00     0.243 C 
ATOM     23  O4  SK1 d          31.551   9.639  30.630  0.00  0.00    -0.271 OA
ATOM     24  H13 SK1 d          29.679  12.134  31.134  0.00  0.00     0.163 HD
BRANCH  22  25
ATOM     25  C5  SK1 d          32.279  11.906  30.737  0.00  0.00     0.208 C 
BRANCH  25  26
ATOM     26  C6  SK1 d          33.028  12.085  32.066  0.00  0.00     0.199 C 
BRANCH  26  27
ATOM     27  O3  SK1 d          32.073  12.021  33.098  0.00  0.00    -0.398 OA
ATOM     28  H17 SK1 d          32.507  12.129  33.936  0.00  0.00     0.209 HD
ENDBRANCH  26  27
ENDBRANCH  25  26
BRANCH  25  29
ATOM     29  N1  SK1 d          33.306  11.651  29.785  0.00  0.00    -0.303 N 
ATOM     30  H18 SK1 d          34.188  11.358  30.153  0.00  0.00     0.173 HD
BRANCH  29  31
ATOM     31  S1  SK1 d          33.207  11.783  28.152  0.00  0.00     0.231 S 
ATOM     32  O1  SK1 d          34.583  11.501  27.712  0.00  0.00    -0.206 OA
ATOM     33  O2  SK1 d          32.760  13.135  27.921  0.00  0.00    -0.206 OA
BRANCH  31  34
ATOM     34  C1  SK1 d          31.921  10.655  27.594  0.00  0.00     0.201 C 
BRANCH  34  35
ATOM     35  C4  SK1 d          31.874  10.907  26.103  0.00  0.00    -0.043 C 
ATOM     36  C19 SK1 d          32.573  10.088  25.210  0.00  0.00     0.008 C 
ATOM     37  C20 SK1 d          32.679  10.511  23.883  0.00  0.00     0.001 C 
ATOM     38  C21 SK1 d          32.101  11.715  23.459  0.00  0.00     0.000 C 
ATOM     39  C2  SK1 d          31.326  12.483  24.341  0.00  0.00     0.001 C 
ATOM     40  C3  SK1 d          31.130  12.010  25.647  0.00  0.00     0.008 C 
ENDBRANCH  34  35
ENDBRANCH  31  34
ENDBRANCH  29  31
ENDBRANCH  25  29
ENDBRANCH  22  25
ENDBRANCH   1  21
TORSDOF 13
