REMARK  9 active torsions:
REMARK  status: ('A' for Active; 'I' for Inactive)
REMARK    1  A    between atoms: C3_4  and  C1_1 
REMARK    2  A    between atoms: C2_3  and  N1_2 
REMARK    3  A    between atoms: C2_3  and  C10_10 
REMARK    4  A    between atoms: C2_3  and  C3_4 
REMARK       I    between atoms: C10_10  and  N12_12 
REMARK    5  A    between atoms: C14_14  and  C17_17 
REMARK       I    between atoms: C17_17  and  N19_19 
REMARK    6  A    between atoms: N19_19  and  C20_20 
REMARK    7  A    between atoms: C20_20  and  C30_21 
REMARK    8  A    between atoms: C30_21  and  N27_22 
REMARK    9  A    between atoms: N27_22  and  C21_23 
ROOT
ATOM      1  C10 PPX d          17.604 -14.837  22.963  0.00  0.00     0.251 C 
ATOM      2  O11 PPX d          16.570 -14.215  23.190  0.00  0.00    -0.271 OA
ATOM      3  N12 PPX d          18.520 -14.427  22.064  0.00  0.00    -0.337 N 
ATOM      4  C13 PPX d          19.598 -15.261  21.476  0.00  0.00     0.127 C 
ATOM      5  C14 PPX d          18.379 -13.143  21.349  0.00  0.00     0.179 C 
ATOM      6  C15 PPX d          19.582 -13.155  20.372  0.00  0.00     0.037 C 
ATOM      7  C16 PPX d          20.510 -14.234  20.912  0.00  0.00     0.022 C 
ENDROOT
BRANCH   1   8
ATOM      8  C2  PPX d          17.851 -16.186  23.667  0.00  0.00     0.279 C 
BRANCH   8   9
ATOM      9  N1  PPX d          16.575 -16.957  23.518  0.00  0.00    -0.066 N 
ATOM     10  H1  PPX d          16.672 -17.857  23.962  0.00  0.00     0.275 HD
ATOM     11  H2  PPX d          16.372 -17.085  22.539  0.00  0.00     0.275 HD
ATOM     12  H3  PPX d          15.822 -16.448  23.953  0.00  0.00     0.275 HD
ENDBRANCH   8   9
BRANCH   8  13
ATOM     13  C3  PPX d          18.137 -15.971  25.161  0.00  0.00     0.081 C 
BRANCH  13  14
ATOM     14  C1  PPX d          19.574 -15.569  25.354  0.00  0.00    -0.056 C 
ATOM     15  C6  PPX d          20.586 -16.450  24.993  0.00  0.00     0.007 C 
ATOM     16  C8  PPX d          21.924 -16.056  25.027  0.00  0.00     0.001 C 
ATOM     17  C9  PPX d          22.251 -14.802  25.541  0.00  0.00     0.000 C 
ATOM     18  C7  PPX d          21.260 -13.989  26.022  0.00  0.00     0.001 C 
ATOM     19  C5  PPX d          19.934 -14.391  25.984  0.00  0.00     0.007 C 
ENDBRANCH  13  14
ENDBRANCH   8  13
ENDBRANCH   1   8
BRANCH   5  20
ATOM     20  C17 PPX d          17.060 -13.064  20.596  0.00  0.00     0.240 C 
ATOM     21  N19 PPX d          16.302 -11.996  20.811  0.00  0.00    -0.358 N 
ATOM     22  H19 PPX d          16.640 -11.296  21.440  0.00  0.00     0.162 HD
ATOM     23  O18 PPX d          16.720 -13.966  19.834  0.00  0.00    -0.271 OA
BRANCH  21  24
ATOM     24  C20 PPX d          14.996 -11.785  20.177  0.00  0.00     0.142 C 
BRANCH  24  25
ATOM     25  C30 PPX d          14.053 -11.040  21.076  0.00  0.00     0.139 C 
BRANCH  25  26
ATOM     26  N27 PPX d          13.172 -11.983  21.665  0.00  0.00    -0.388 N 
ATOM     27  H24 PPX d          13.152 -12.946  21.301  0.00  0.00     0.159 HD
BRANCH  26  28
ATOM     28  C21 PPX d          12.372 -11.656  22.674  0.00  0.00     0.030 A 
ATOM     29  C26 PPX d          12.438 -10.457  23.384  0.00  0.00     0.048 A 
ATOM     30  C25 PPX d          11.567 -10.259  24.456  0.00  0.00     0.118 A 
ATOM     31  N24 PPX d          10.682 -11.213  24.814  0.00  0.00    -0.273 NA
ATOM     32  C23 PPX d          10.603 -12.362  24.144  0.00  0.00     0.118 A 
ATOM     33  C22 PPX d          11.452 -12.613  23.063  0.00  0.00     0.048 A 
ENDBRANCH  26  28
ENDBRANCH  25  26
ENDBRANCH  24  25
ENDBRANCH  21  24
ENDBRANCH   5  20
TORSDOF 9
