REMARK  20 active torsions:
REMARK  status: ('A' for Active; 'I' for Inactive)
REMARK    1  A    between atoms: CA_2  and  N_1 
REMARK    2  A    between atoms: CA_2  and  CB_5 
REMARK    3  A    between atoms: C_3  and  CA_2 
REMARK       I    between atoms: N_10  and  C_3 
REMARK    4  A    between atoms: CB_5  and  CG_6 
REMARK    5  A    between atoms: CG_6  and  CD_7 
REMARK    6  A    between atoms: CD_7  and  CE_8 
REMARK    7  A    between atoms: CE_8  and  NZ_9 
REMARK    8  A    between atoms: CA_11  and  N_10 
REMARK    9  A    between atoms: CA_11  and  CB_14 
REMARK   10  A    between atoms: C_12  and  CA_11 
REMARK       I    between atoms: C_12  and  N_21 
REMARK   11  A    between atoms: CB_14  and  CG_15 
REMARK   12  A    between atoms: CG_15  and  CD_16 
REMARK   13  A    between atoms: CD_16  and  NE_17 
REMARK       I    between atoms: NE_17  and  CZ_18 
REMARK       I    between atoms: CZ_18  and  NH1_19 
REMARK   14  A    between atoms: N_21  and  CA_22 
REMARK   15  A    between atoms: CA_22  and  CB_25 
REMARK   16  A    between atoms: CA_22  and  C_23 
REMARK   17  A    between atoms: CB_25  and  CG_26 
REMARK   18  A    between atoms: CG_26  and  CD_27 
REMARK   19  A    between atoms: CD_27  and  CE_28 
REMARK   20  A    between atoms: CE_28  and  NZ_29 
ROOT
ATOM      1  CA  MOL d           3.939  20.466  16.115  0.00  0.00     0.176 C 
ENDROOT
BRANCH   1   2
ATOM      2  N   MOL d           5.026  19.801  15.463  0.00  0.00    -0.346 N 
ATOM      3  C   MOL d           5.183  18.493  15.413  0.00  0.00     0.248 C 
ATOM      4  O   MOL d           4.446  17.690  16.010  0.00  0.00    -0.271 OA
ATOM      5  H16 MOL d           5.715  20.369  15.013  0.00  0.00     0.163 HD
BRANCH   3   6
ATOM      6  CA  MOL d           6.406  17.962  14.668  0.00  0.00     0.274 C 
BRANCH   6   7
ATOM      7  N   MOL d           6.833  16.654  15.260  0.00  0.00    -0.067 N 
ATOM      8  H1  MOL d           7.640  16.308  14.765  0.00  0.00     0.275 HD
ATOM      9  H2  MOL d           6.080  15.988  15.182  0.00  0.00     0.275 HD
ATOM     10  H3  MOL d           7.066  16.785  16.232  0.00  0.00     0.275 HD
ENDBRANCH   6   7
BRANCH   6  11
ATOM     11  CB  MOL d           6.075  17.859  13.166  0.00  0.00     0.042 C 
BRANCH  11  12
ATOM     12  CG  MOL d           5.249  16.622  12.787  0.00  0.00     0.004 C 
BRANCH  12  13
ATOM     13  CD  MOL d           5.203  16.552  11.242  0.00  0.00     0.027 C 
BRANCH  13  14
ATOM     14  CE  MOL d           6.491  15.884  10.743  0.00  0.00     0.229 C 
BRANCH  14  15
ATOM     15  NZ  MOL d           6.439  14.420  11.012  0.00  0.00    -0.079 N 
ATOM     16  H13 MOL d           7.288  13.987  10.682  0.00  0.00     0.274 HD
ATOM     17  H14 MOL d           5.649  14.018  10.533  0.00  0.00     0.274 HD
ATOM     18  H15 MOL d           6.346  14.264  12.003  0.00  0.00     0.274 HD
ENDBRANCH  14  15
ENDBRANCH  13  14
ENDBRANCH  12  13
ENDBRANCH  11  12
ENDBRANCH   6  11
ENDBRANCH   3   6
ENDBRANCH   1   2
BRANCH   1  19
ATOM     19  CB  MOL d           4.116  22.007  16.197  0.00  0.00     0.036 C 
BRANCH  19  20
ATOM     20  CG  MOL d           5.382  22.417  16.986  0.00  0.00     0.023 C 
BRANCH  20  21
ATOM     21  CD  MOL d           5.256  22.233  18.507  0.00  0.00     0.138 C 
BRANCH  21  22
ATOM     22  NE  MOL d           6.581  22.455  19.093  0.00  0.00    -0.227 N 
ATOM     23  CZ  MOL d           7.136  21.931  20.180  0.00  0.00     0.665 C 
ATOM     24  NH2 MOL d           8.412  22.223  20.485  0.00  0.00    -0.235 N 
ATOM     25  NH1 MOL d           6.464  21.097  20.956  0.00  0.00    -0.235 N 
ATOM     26  H27 MOL d           8.948  22.871  19.890  0.00  0.00     0.174 HD
ATOM     27  H28 MOL d           8.854  21.799  21.313  0.00  0.00     0.174 HD
ATOM     28  H25 MOL d           6.911  20.701  21.795  0.00  0.00     0.174 HD
ATOM     29  H26 MOL d           5.494  20.844  20.721  0.00  0.00     0.174 HD
ATOM     30  H24 MOL d           7.175  23.123  18.581  0.00  0.00     0.177 HD
ENDBRANCH  21  22
ENDBRANCH  20  21
ENDBRANCH  19  20
ENDBRANCH   1  19
BRANCH   1  31
ATOM     31  C   MOL d           2.592  20.295  15.394  0.00  0.00     0.241 C 
ATOM     32  O   MOL d           2.503  20.564  14.182  0.00  0.00    -0.271 OA
ATOM     33  N   MOL d           1.585  20.024  16.215  0.00  0.00    -0.345 N 
ATOM     34  H29 MOL d           1.772  19.869  17.185  0.00  0.00     0.163 HD
BRANCH  33  35
ATOM     35  CA  MOL d           0.213  19.948  15.733  0.00  0.00     0.185 C 
BRANCH  35  36
ATOM     36  CB  MOL d          -0.289  18.567  15.335  0.00  0.00     0.036 C 
BRANCH  36  37
ATOM     37  CG  MOL d          -1.371  18.778  14.231  0.00  0.00     0.004 C 
BRANCH  37  38
ATOM     38  CD  MOL d          -1.980  17.451  13.870  0.00  0.00     0.027 C 
BRANCH  38  39
ATOM     39  CE  MOL d          -3.085  17.494  12.850  0.00  0.00     0.229 C 
BRANCH  39  40
ATOM     40  NZ  MOL d          -3.927  18.703  12.775  0.00  0.00    -0.079 N 
ATOM     41  H39 MOL d          -4.619  18.586  12.051  0.00  0.00     0.274 HD
ATOM     42  H40 MOL d          -3.350  19.502  12.563  0.00  0.00     0.274 HD
ATOM     43  H41 MOL d          -4.388  18.847  13.660  0.00  0.00     0.274 HD
ENDBRANCH  39  40
ENDBRANCH  38  39
ENDBRANCH  37  38
ENDBRANCH  36  37
ENDBRANCH  35  36
BRANCH  35  44
ATOM     44  C   MOL d          -0.776  20.546  16.750  0.00  0.00     0.196 C 
ATOM     45  O   MOL d          -1.993  20.305  16.611  0.00  0.00    -0.646 OA
ATOM     46  OXT MOL d          -0.409  21.394  17.591  0.00  0.00    -0.646 OA
ENDBRANCH  35  44
ENDBRANCH  33  35
ENDBRANCH   1  31
TORSDOF 20
