REMARK  18 active torsions:
REMARK  status: ('A' for Active; 'I' for Inactive)
REMARK    1  A    between atoms: CAL_12  and  OAA_1 
REMARK    2  A    between atoms: CAM_13  and  OAB_2 
REMARK    3  A    between atoms: CAQ_17  and  OAC_3 
REMARK    4  A    between atoms: CAR_18  and  OAD_4 
REMARK    5  A    between atoms: CAS_19  and  OAE_5 
REMARK    6  A    between atoms: CAT_20  and  OAF_6 
REMARK    7  A    between atoms: CAU_21  and  OAG_7 
REMARK    8  A    between atoms: CAV_22  and  OAH_8 
REMARK    9  A    between atoms: CAQ_17  and  CAL_12 
REMARK   10  A    between atoms: CAW_23  and  CAM_13 
REMARK   11  A    between atoms: CAS_19  and  CAO_15 
REMARK   12  A    between atoms: CAO_15  and  SAY_25 
REMARK   13  A    between atoms: CAX_24  and  OAP_16 
REMARK   14  A    between atoms: OAP_16  and  SAZ_26 
REMARK   15  A    between atoms: CAT_20  and  CAQ_17 
REMARK   16  A    between atoms: CAX_24  and  CAS_19 
REMARK   17  A    between atoms: CAV_22  and  CAT_20 
REMARK   18  A    between atoms: CAV_22  and  CAX_24 
ROOT
ATOM      1  CAX NR3 d           2.472 -20.620  21.135  0.00  0.00     0.205 C 
ENDROOT
BRANCH   1   2
ATOM      2  OAP NR3 d           3.131 -20.984  19.904  0.00  0.00    -0.246 OA
BRANCH   2   3
ATOM      3  SAZ NR3 d           2.401 -21.503  18.760  0.00  0.00     0.252 S 
ATOM      4  OAI NR3 d           1.537 -20.454  18.166  0.00  0.00    -0.572 OA
ATOM      5  OAJ NR3 d           3.383 -21.984  17.725  0.00  0.00    -0.572 OA
ATOM      6  OAK NR3 d           1.571 -22.576  19.185  0.00  0.00    -0.572 OA
ENDBRANCH   2   3
ENDBRANCH   1   2
BRANCH   1   7
ATOM      7  CAS NR3 d           2.779 -19.129  21.414  0.00  0.00     0.159 C 
BRANCH   7   8
ATOM      8  OAE NR3 d           2.201 -18.747  22.666  0.00  0.00    -0.392 OA
ATOM      9  H5  NR3 d           2.529 -19.317  23.352  0.00  0.00     0.210 HD
ENDBRANCH   7   8
BRANCH   7  10
ATOM     10  CAO NR3 d           2.267 -18.226  20.292  0.00  0.00     0.098 C 
BRANCH  10  11
ATOM     11  SAY NR3 d           2.567 -16.460  20.486  0.00  0.00    -0.206 SA
ATOM     12  CAN NR3 d           1.156 -15.783  21.464  0.00  0.00     0.098 C 
ATOM     13  CAR NR3 d           0.145 -15.445  20.348  0.00  0.00     0.156 C 
ATOM     14  CAU NR3 d           0.943 -14.778  19.203  0.00  0.00     0.162 C 
ATOM     15  CAW NR3 d           2.040 -15.819  18.859  0.00  0.00     0.092 C 
BRANCH  13  16
ATOM     16  OAD NR3 d          -0.985 -14.590  20.757  0.00  0.00    -0.392 OA
ATOM     17  H4  NR3 d          -1.551 -14.436  20.010  0.00  0.00     0.210 HD
ENDBRANCH  13  16
BRANCH  14  18
ATOM     18  OAG NR3 d           0.064 -14.620  18.080  0.00  0.00    -0.392 OA
ATOM     19  H7  NR3 d          -0.671 -14.072  18.329  0.00  0.00     0.210 HD
ENDBRANCH  14  18
BRANCH  15  20
ATOM     20  CAM NR3 d           3.205 -15.275  18.017  0.00  0.00     0.181 C 
BRANCH  20  21
ATOM     21  OAB NR3 d           3.707 -14.018  18.514  0.00  0.00    -0.400 OA
ATOM     22  H2  NR3 d           4.423 -13.724  17.963  0.00  0.00     0.209 HD
ENDBRANCH  20  21
ENDBRANCH  15  20
ENDBRANCH  10  11
ENDBRANCH   7  10
ENDBRANCH   1   7
BRANCH   1  23
ATOM     23  CAV NR3 d           2.974 -21.409  22.384  0.00  0.00     0.182 C 
BRANCH  23  24
ATOM     24  OAH NR3 d           4.271 -20.927  22.736  0.00  0.00    -0.390 OA
ATOM     25  H8  NR3 d           4.900 -21.208  22.082  0.00  0.00     0.210 HD
ENDBRANCH  23  24
BRANCH  23  26
ATOM     26  CAT NR3 d           3.027 -22.943  22.328  0.00  0.00     0.180 C 
BRANCH  26  27
ATOM     27  OAF NR3 d           1.734 -23.444  21.979  0.00  0.00    -0.390 OA
ATOM     28  H6  NR3 d           1.538 -23.211  21.079  0.00  0.00     0.210 HD
ENDBRANCH  26  27
BRANCH  26  29
ATOM     29  CAQ NR3 d           4.111 -23.546  21.406  0.00  0.00     0.173 C 
BRANCH  29  30
ATOM     30  OAC NR3 d           5.325 -22.748  21.424  0.00  0.00    -0.391 OA
ATOM     31  H3  NR3 d           5.119 -21.854  21.178  0.00  0.00     0.210 HD
ENDBRANCH  29  30
BRANCH  29  32
ATOM     32  CAL NR3 d           4.424 -25.010  21.805  0.00  0.00     0.198 C 
BRANCH  32  33
ATOM     33  OAA NR3 d           3.852 -25.949  20.856  0.00  0.00    -0.398 OA
ATOM     34  H1  NR3 d           4.059 -26.836  21.126  0.00  0.00     0.209 HD
ENDBRANCH  32  33
ENDBRANCH  29  32
ENDBRANCH  26  29
ENDBRANCH  23  26
ENDBRANCH   1  23
TORSDOF 18
