REMARK  1 active torsions:
REMARK  status: ('A' for Active; 'I' for Inactive)
REMARK    1  A    between atoms: NAS_7  and  CAO_8 
ROOT
ATOM      1  CAO MOL d         111.840 139.014   6.216  0.00  0.00     0.039 A 
ATOM      2  CAH MOL d         110.536 138.742   6.660  0.00  0.00     0.060 A 
ATOM      3  CAR MOL d         110.102 137.486   7.108  0.00  0.00     0.050 A 
ATOM      4  NAT MOL d         108.816 137.306   7.529  0.00  0.00    -0.318 N 
ATOM      5  CAB MOL d         107.771 138.397   7.598  0.00  0.00     0.159 C 
ATOM      6  CAP MOL d         108.436 136.077   7.930  0.00  0.00     0.248 A 
ATOM      7  OAD MOL d         107.291 135.917   8.279  0.00  0.00    -0.268 OA
ATOM      8  CAG MOL d         109.342 134.993   7.921  0.00  0.00     0.082 A 
ATOM      9  CAN MOL d         110.655 135.143   7.516  0.00  0.00    -0.044 A 
ATOM     10  CAA MOL d         111.576 134.041   7.541  0.00  0.00     0.049 C 
ATOM     11  CAQ MOL d         111.055 136.431   7.105  0.00  0.00    -0.003 A 
ATOM     12  CAF MOL d         112.374 136.682   6.648  0.00  0.00     0.016 A 
ATOM     13  CAE MOL d         112.767 137.959   6.195  0.00  0.00     0.031 A 
ENDROOT
BRANCH   1  14
ATOM     14  NAS MOL d         112.095 140.297   5.771  0.00  0.00    -0.318 N 
ATOM     15  CAM MOL d         112.746 141.286   6.469  0.00  0.00     0.224 C 
ATOM     16  OAC MOL d         113.239 141.042   7.573  0.00  0.00    -0.273 OA
ATOM     17  CAK MOL d         112.885 142.613   5.936  0.00  0.00     0.103 C 
ATOM     18  CAI MOL d         111.686 142.990   5.012  0.00  0.00     0.011 C 
ATOM     19  CAJ MOL d         111.806 141.948   3.855  0.00  0.00     0.021 C 
ATOM     20  CAL MOL d         111.473 140.561   4.420  0.00  0.00     0.132 C 
ENDBRANCH   1  14
TORSDOF 1
