4z6h_ligand

Created by X-TOOL on Sun Nov 13 14:28:26 2016
 38 40  0  0  0  0  0  0  0  0999 V2000
  113.2390  141.0420    7.5730  O 0  0  0  1  0  1
  112.7460  141.2860    6.4690  C 0  0  0  1  0  3
  112.8850  142.6130    5.9360  C 0  0  0  3  0  4
  111.6860  142.9900    5.0120  C 0  0  0  3  0  4
  111.8060  141.9480    3.8550  C 0  0  0  3  0  4
  111.4730  140.5610    4.4200  C 0  0  0  3  0  4
  112.0950  140.2970    5.7710  N 0  0  0  1  0  3
  111.8400  139.0140    6.2160  C 0  0  0  1  0  3
  110.5360  138.7420    6.6600  C 0  0  0  2  0  3
  110.1020  137.4860    7.1080  C 0  0  0  1  0  3
  108.8160  137.3060    7.5290  N 0  0  0  1  0  3
  107.7710  138.3970    7.5980  C 0  0  0  4  0  4
  108.4360  136.0770    7.9300  C 0  0  0  1  0  3
  107.2910  135.9170    8.2790  O 0  0  0  1  0  1
  109.3420  134.9930    7.9210  C 0  0  0  2  0  3
  110.6550  135.1430    7.5160  C 0  0  0  1  0  3
  111.5760  134.0410    7.5410  C 0  0  0  4  0  4
  111.0550  136.4310    7.1050  C 0  0  0  1  0  3
  112.3740  136.6820    6.6480  C 0  0  0  2  0  3
  112.7670  137.9590    6.1950  C 0  0  0  2  0  3
  113.8159  142.6676    5.3526  H 0  0  0  1  0  1
  112.9321  143.3292    6.7695  H 0  0  0  1  0  1
  111.7851  144.0177    4.6325  H 0  0  0  1  0  1
  110.7280  142.8857    5.5423  H 0  0  0  1  0  1
  112.8313  141.9510    3.4565  H 0  0  0  1  0  1
  111.0993  142.2016    3.0511  H 0  0  0  1  0  1
  111.8376  139.8004    3.7140  H 0  0  0  1  0  1
  110.3805  140.4774    4.5171  H 0  0  0  1  0  1
  109.8189  139.5549    6.6562  H 0  0  0  1  0  1
  108.2057  139.3439    7.2454  H 0  0  0  1  0  1
  107.4313  138.5142    8.6376  H 0  0  0  1  0  1
  106.9159  138.1265    6.9611  H 0  0  0  1  0  1
  108.9961  134.0116    8.2422  H 0  0  0  1  0  1
  111.0565  133.1369    7.8912  H 0  0  0  1  0  1
  112.4074  134.2734    8.2227  H 0  0  0  1  0  1
  111.9693  133.8688    6.5283  H 0  0  0  1  0  1
  113.0967  135.8741    6.6468  H 0  0  0  1  0  1
  113.7756  138.1245    5.8339  H 0  0  0  1  0  1
  1  2  2  0  0  2
  2  3  1  0  0  1
  2  7  1  0  0  1
  3  4  1  0  0  1
  4  5  1  0  0  1
  5  6  1  0  0  1
  6  7  1  0  0  1
  7  8  1  0  0  2
  8  9  4  0  0  1
  8 20  4  0  0  1
  9 10  4  0  0  1
 10 11  1  0  0  1
 10 18  4  0  0  1
 11 12  1  0  0  2
 11 13  1  0  0  1
 13 14  2  0  0  2
 13 15  1  0  0  1
 15 16  2  0  0  1
 16 17  1  0  0  2
 16 18  1  0  0  1
 18 19  4  0  0  1
 19 20  4  0  0  1
  3 21  1  0  0  2
  3 22  1  0  0  2
  4 23  1  0  0  2
  4 24  1  0  0  2
  5 25  1  0  0  2
  5 26  1  0  0  2
  6 27  1  0  0  2
  6 28  1  0  0  2
  9 29  1  0  0  2
 12 30  1  0  0  2
 12 31  1  0  0  2
 12 32  1  0  0  2
 15 33  1  0  0  2
 17 34  1  0  0  2
 17 35  1  0  0  2
 17 36  1  0  0  2
 19 37  1  0  0  2
 20 38  1  0  0  2
M  END
> <MOLECULAR_FORMULA>
C16H18N2O2

> <MOLECULAR_WEIGHT>
270.2

> <NUM_HB_ATOMS>
2  

> <NUM_ROTOR>
0  

> <XLOGP2>
1.47 

$$$$
