REMARK  19 active torsions:
REMARK  status: ('A' for Active; 'I' for Inactive)
REMARK    1  A    between atoms: OBI_2  and  CBK_3 
REMARK       I    between atoms: CBK_3  and  N_5 
REMARK    2  A    between atoms: N_5  and  CA_6 
REMARK    3  A    between atoms: CA_6  and  CB_7 
REMARK    4  A    between atoms: CA_6  and  C_11 
REMARK       I    between atoms: C_11  and  NBG_13 
REMARK    5  A    between atoms: NBG_13  and  CBT_14 
REMARK    6  A    between atoms: CBT_14  and  CBA_15 
REMARK    7  A    between atoms: CBT_14  and  CBS_22 
REMARK    8  A    between atoms: CBA_15  and  CBO_16 
REMARK    9  A    between atoms: CBS_22  and  OAM_23 
REMARK   10  A    between atoms: CBS_22  and  CBC_24 
REMARK   11  A    between atoms: CBC_24  and  NBW_25 
REMARK   12  A    between atoms: NBW_25  and  NBH_26 
REMARK   13  A    between atoms: NBW_25  and  CBB_39 
REMARK       I    between atoms: NBH_26  and  CBN_27 
REMARK   14  A    between atoms: CBN_27  and  CBV_29 
REMARK   15  A    between atoms: CBV_29  and  CBY_30 
REMARK   16  A    between atoms: CBV_29  and  NBF_34 
REMARK       I    between atoms: NBF_34  and  CBL_35 
REMARK   17  A    between atoms: CBL_35  and  OBJ_37 
REMARK   18  A    between atoms: CBB_39  and  CBP_40 
REMARK   19  A    between atoms: CBQ_45  and  CBR_46 
ROOT
ATOM      1  NBW DR7 d         -39.369  71.451  27.798  0.00  0.00     0.017 N 
ATOM      2  H28 DR7 d         -39.467  70.519  28.169  0.00  0.00     0.309 HD
ENDROOT
BRANCH   1   3
ATOM      3  CBC DR7 d         -40.534  71.914  28.497  0.00  0.00     0.296 C 
BRANCH   3   4
ATOM      4  CBS DR7 d         -41.709  71.131  28.313  0.00  0.00     0.169 C 
BRANCH   4   5
ATOM      5  CBT DR7 d         -41.792  69.764  28.937  0.00  0.00     0.119 C 
BRANCH   5   6
ATOM      6  NBG DR7 d         -41.760  69.693  30.381  0.00  0.00    -0.352 N 
ATOM      7  C   DR7 d         -41.063  68.926  31.166  0.00  0.00     0.241 C 
ATOM      8  O   DR7 d         -40.298  68.122  30.804  0.00  0.00    -0.271 OA
ATOM      9  H15 DR7 d         -42.369  70.334  30.849  0.00  0.00     0.163 HD
BRANCH   7  10
ATOM     10  CA  DR7 d         -41.439  69.178  32.803  0.00  0.00     0.186 C 
BRANCH  10  11
ATOM     11  N   DR7 d         -41.890  67.796  32.873  0.00  0.00    -0.323 N 
ATOM     12  CBK DR7 d         -43.183  67.950  33.647  0.00  0.00     0.360 C 
ATOM     13  OAI DR7 d         -43.632  68.974  34.037  0.00  0.00    -0.239 OA
ATOM     14  H4  DR7 d         -41.462  66.969  32.509  0.00  0.00     0.165 HD
BRANCH  12  15
ATOM     15  OBI DR7 d         -43.867  66.752  33.976  0.00  0.00    -0.309 OA
ATOM     16  CAA DR7 d         -45.021  66.855  34.746  0.00  0.00     0.215 C 
ENDBRANCH  12  15
ENDBRANCH  10  11
BRANCH  10  17
ATOM     17  CB  DR7 d         -40.119  69.316  33.419  0.00  0.00    -0.022 C 
ATOM     18  CAE DR7 d         -39.307  68.022  33.507  0.00  0.00     0.017 C 
ATOM     19  CG2 DR7 d         -40.489  69.799  34.742  0.00  0.00     0.017 C 
ATOM     20  CG1 DR7 d         -39.271  70.406  32.827  0.00  0.00     0.017 C 
ENDBRANCH  10  17
ENDBRANCH   7  10
ENDBRANCH   5   6
BRANCH   5  21
ATOM     21  CBA DR7 d         -43.111  69.181  28.578  0.00  0.00     0.066 C 
BRANCH  21  22
ATOM     22  CBO DR7 d         -43.434  67.842  29.175  0.00  0.00    -0.056 A 
ATOM     23  CAT DR7 d         -42.921  66.662  28.708  0.00  0.00     0.007 A 
ATOM     24  CAP DR7 d         -43.247  65.462  29.321  0.00  0.00     0.001 A 
ATOM     25  CAN DR7 d         -44.105  65.432  30.430  0.00  0.00     0.000 A 
ATOM     26  CAQ DR7 d         -44.622  66.599  30.897  0.00  0.00     0.001 A 
ATOM     27  CAU DR7 d         -44.282  67.796  30.276  0.00  0.00     0.007 A 
ENDBRANCH  21  22
ENDBRANCH   5  21
ENDBRANCH   4   5
BRANCH   4  28
ATOM     28  OAM DR7 d         -42.519  72.082  28.892  0.00  0.00    -0.392 OA
ATOM     29  H25 DR7 d         -42.406  72.910  28.441  0.00  0.00     0.210 HD
ENDBRANCH   4  28
ENDBRANCH   3   4
ENDBRANCH   1   3
BRANCH   1  30
ATOM     30  NBH DR7 d         -39.326  70.970  26.469  0.00  0.00    -0.184 N 
ATOM     31  CBN DR7 d         -39.142  69.893  25.768  0.00  0.00     0.265 C 
ATOM     32  OAL DR7 d         -38.926  68.823  26.145  0.00  0.00    -0.269 OA
ATOM     33  H29 DR7 d         -39.499  71.733  25.846  0.00  0.00     0.197 HD
BRANCH  31  34
ATOM     34  CBV DR7 d         -39.196  70.262  24.301  0.00  0.00     0.188 C 
BRANCH  34  35
ATOM     35  CBY DR7 d         -40.006  69.346  23.368  0.00  0.00    -0.022 C 
ATOM     36  CAH DR7 d         -40.178  70.015  22.030  0.00  0.00     0.017 C 
ATOM     37  CAF DR7 d         -41.384  69.114  23.901  0.00  0.00     0.017 C 
ATOM     38  CAG DR7 d         -39.307  68.032  23.191  0.00  0.00     0.017 C 
ENDBRANCH  34  35
BRANCH  34  39
ATOM     39  NBF DR7 d         -37.829  70.470  23.811  0.00  0.00    -0.323 N 
ATOM     40  CBL DR7 d         -37.350  71.499  23.178  0.00  0.00     0.360 C 
ATOM     41  OAJ DR7 d         -37.947  72.459  22.880  0.00  0.00    -0.239 OA
ATOM     42  H40 DR7 d         -37.184  69.726  23.986  0.00  0.00     0.165 HD
BRANCH  40  43
ATOM     43  OBJ DR7 d         -35.976  71.421  22.817  0.00  0.00    -0.309 OA
ATOM     44  CAB DR7 d         -35.347  72.567  22.319  0.00  0.00     0.215 C 
ENDBRANCH  40  43
ENDBRANCH  34  39
ENDBRANCH  31  34
ENDBRANCH   1  30
BRANCH   1  45
ATOM     45  CBB DR7 d         -38.091  71.697  28.468  0.00  0.00     0.301 C 
BRANCH  45  46
ATOM     46  CBP DR7 d         -36.861  71.448  27.642  0.00  0.00    -0.030 A 
ATOM     47  CAW DR7 d         -36.250  72.382  26.799  0.00  0.00     0.010 A 
ATOM     48  CAY DR7 d         -35.087  72.046  26.090  0.00  0.00     0.014 A 
ATOM     49  CBQ DR7 d         -34.566  70.780  26.233  0.00  0.00    -0.007 A 
ATOM     50  CAZ DR7 d         -35.201  69.882  27.065  0.00  0.00     0.014 A 
ATOM     51  CAX DR7 d         -36.323  70.199  27.760  0.00  0.00     0.010 A 
BRANCH  49  52
ATOM     52  CBR DR7 d         -33.438  70.288  25.604  0.00  0.00     0.066 A 
ATOM     53  CAV DR7 d         -33.037  68.928  25.839  0.00  0.00     0.032 A 
ATOM     54  CAR DR7 d         -31.923  68.340  25.254  0.00  0.00     0.004 A 
ATOM     55  CAO DR7 d         -31.185  69.098  24.414  0.00  0.00     0.019 A 
ATOM     56  CAS DR7 d         -31.572  70.411  24.177  0.00  0.00     0.117 A 
ATOM     57  NBD DR7 d         -32.659  70.993  24.743  0.00  0.00    -0.260 NA
ENDBRANCH  49  52
ENDBRANCH  45  46
ENDBRANCH   1  45
TORSDOF 19
