REMARK  9 active torsions:
REMARK  status: ('A' for Active; 'I' for Inactive)
REMARK    1  A    between atoms: N10_10  and  C13_13 
REMARK    2  A    between atoms: C13_13  and  C17_17 
REMARK    3  A    between atoms: C15_15  and  C16_16 
REMARK    4  A    between atoms: C17_17  and  C18_18 
REMARK    5  A    between atoms: C17_17  and  O19_19 
REMARK    6  A    between atoms: C18_18  and  N20_20 
REMARK    7  A    between atoms: C18_18  and  C21_21 
REMARK       I    between atoms: N20_20  and  C28_28 
REMARK    8  A    between atoms: C21_21  and  C22_22 
REMARK       I    between atoms: C28_28  and  N29_29 
REMARK    9  A    between atoms: N29_29  and  C31_31 
ROOT
ATOM      1  C17 MOL d          13.570  23.935   4.704  0.00  0.00     0.160 C 
ENDROOT
BRANCH   1   2
ATOM      2  C13 MOL d          14.546  22.817   4.392  0.00  0.00     0.169 C 
BRANCH   2   3
ATOM      3  N10 MOL d          14.275  21.648   5.232  0.00  0.00    -0.304 N 
ATOM      4  S9  MOL d          13.805  20.225   4.486  0.00  0.00     0.261 S 
ATOM      5  C5  MOL d          15.311  19.501   3.886  0.00  0.00     0.086 A 
ATOM      6  O11 MOL d          12.965  20.514   3.348  0.00  0.00    -0.200 OA
ATOM      7  O12 MOL d          13.304  19.357   5.535  0.00  0.00    -0.200 OA
ATOM      8  C4  MOL d          16.348  19.252   4.769  0.00  0.00    -0.032 A 
ATOM      9  C6  MOL d          15.355  19.193   2.541  0.00  0.00     0.029 A 
ATOM     10  C3  MOL d          17.478  18.646   4.253  0.00  0.00     0.051 A 
ATOM     11  C8  MOL d          16.324  19.554   6.236  0.00  0.00     0.046 C 
ATOM     12  C2  MOL d          17.533  18.337   2.913  0.00  0.00     0.117 A 
ATOM     13  C1  MOL d          16.492  18.595   2.050  0.00  0.00     0.044 A 
ATOM     14  F7  MOL d          18.633  17.745   2.437  0.00  0.00    -0.206 F 
ATOM     15  C15 MOL d          16.297  21.029   6.578  0.00  0.00     0.012 C 
ATOM     16  C14 MOL d          14.873  21.570   6.571  0.00  0.00     0.140 C 
BRANCH  15  17
ATOM     17  C16 MOL d          16.830  21.179   7.996  0.00  0.00    -0.017 C 
ATOM     18  C34 MOL d          18.334  21.122   8.112  0.00  0.00     0.010 C 
ATOM     19  C35 MOL d          16.426  22.482   8.618  0.00  0.00     0.010 C 
ENDBRANCH  15  17
ENDBRANCH   2   3
ENDBRANCH   1   2
BRANCH   1  20
ATOM     20  C18 MOL d          12.078  23.678   4.425  0.00  0.00     0.120 C 
BRANCH  20  21
ATOM     21  N20 MOL d          11.280  24.664   5.142  0.00  0.00    -0.336 N 
ATOM     22  C28 MOL d          10.871  24.450   6.444  0.00  0.00     0.317 C 
ATOM     23  N29 MOL d          10.104  25.483   6.959  0.00  0.00    -0.335 N 
ATOM     24  O30 MOL d          11.206  23.473   7.093  0.00  0.00    -0.247 OA
ATOM     25  H   MOL d           9.833  26.212   6.330  0.00  0.00     0.165 HD
ATOM     26  H   MOL d          11.023  25.514   4.682  0.00  0.00     0.164 HD
BRANCH  23  27
ATOM     27  C31 MOL d           9.665  25.592   8.330  0.00  0.00     0.023 C 
ATOM     28  C32 MOL d           8.678  24.501   8.699  0.00  0.00     0.037 C 
ATOM     29  C33 MOL d          10.837  25.544   9.286  0.00  0.00     0.037 C 
ATOM     30  C36 MOL d           9.015  26.957   8.469  0.00  0.00     0.037 C 
ENDBRANCH  23  27
ENDBRANCH  20  21
BRANCH  20  31
ATOM     31  C21 MOL d          11.682  23.616   2.949  0.00  0.00     0.066 C 
BRANCH  31  32
ATOM     32  C22 MOL d          10.222  23.337   2.810  0.00  0.00    -0.056 A 
ATOM     33  C23 MOL d           9.763  22.047   3.002  0.00  0.00     0.007 A 
ATOM     34  C24 MOL d           8.413  21.779   2.920  0.00  0.00     0.001 A 
ATOM     35  C25 MOL d           7.533  22.803   2.641  0.00  0.00     0.000 A 
ATOM     36  C26 MOL d           7.989  24.083   2.431  0.00  0.00     0.001 A 
ATOM     37  C27 MOL d           9.338  24.357   2.503  0.00  0.00     0.007 A 
ENDBRANCH  31  32
ENDBRANCH  20  31
ENDBRANCH   1  20
BRANCH   1  38
ATOM     38  O19 MOL d          14.011  25.131   4.076  0.00  0.00    -0.392 OA
ATOM     39  H   MOL d          13.886  25.059   3.137  0.00  0.00     0.210 HD
ENDBRANCH   1  38
TORSDOF 9
