REMARK  13 active torsions:
REMARK  status: ('A' for Active; 'I' for Inactive)
REMARK    1  A    between atoms: C2_2  and  C3_3 
REMARK    2  A    between atoms: C3_3  and  S4_4 
REMARK    3  A    between atoms: S4_4  and  C5_5 
REMARK    4  A    between atoms: C7_7  and  N8_8 
REMARK    5  A    between atoms: N8_8  and  C9_9 
REMARK    6  A    between atoms: C12_11  and  C14_12 
REMARK    7  A    between atoms: N25_23  and  C26_24 
REMARK    8  A    between atoms: C29_26  and  O31_27 
REMARK    9  A    between atoms: O31_27  and  C32_28 
REMARK   10  A    between atoms: C32_28  and  C33_29 
REMARK   11  A    between atoms: C33_29  and  O34_30 
REMARK   12  A    between atoms: C35_31  and  O37_32 
REMARK   13  A    between atoms: C38_33  and  O40_34 
ROOT
ATOM      1  C5  TIQ d           5.609   5.942   0.211  0.00  0.00     0.192 A 
ATOM      2  N6  TIQ d           6.872   6.380   0.223  0.00  0.00    -0.203 NA
ATOM      3  C7  TIQ d           7.841   5.663  -0.370  0.00  0.00     0.161 A 
ATOM      4  C22 TIQ d           7.473   4.475  -0.975  0.00  0.00     0.167 A 
ATOM      5  N23 TIQ d           8.171   3.520  -1.666  0.00  0.00    -0.152 NA
ATOM      6  N24 TIQ d           7.324   2.571  -2.038  0.00  0.00     0.007 NA
ATOM      7  N25 TIQ d           6.104   2.932  -1.601  0.00  0.00    -0.247 N 
ATOM      8  C41 TIQ d           6.154   4.120  -0.920  0.00  0.00     0.180 A 
ATOM      9  N42 TIQ d           5.168   4.810  -0.342  0.00  0.00    -0.201 NA
ENDROOT
BRANCH   7  10
ATOM     10  C26 TIQ d           5.013   1.981  -1.657  0.00  0.00     0.142 C 
ATOM     11  C28 TIQ d           3.766   2.461  -2.367  0.00  0.00     0.064 C 
ATOM     12  C29 TIQ d           2.625   1.716  -1.696  0.00  0.00     0.154 C 
ATOM     13  C35 TIQ d           3.201   0.969  -0.516  0.00  0.00     0.178 C 
ATOM     14  C38 TIQ d           4.549   1.593  -0.261  0.00  0.00     0.174 C 
BRANCH  12  15
ATOM     15  O31 TIQ d           1.575   2.557  -1.191  0.00  0.00    -0.381 OA
BRANCH  15  16
ATOM     16  C32 TIQ d           0.610   2.845  -2.218  0.00  0.00     0.194 C 
BRANCH  16  17
ATOM     17  C33 TIQ d          -0.549   1.865  -2.253  0.00  0.00     0.190 C 
BRANCH  17  18
ATOM     18  O34 TIQ d          -0.980   1.628  -0.928  0.00  0.00    -0.399 OA
ATOM     19  H24 TIQ d          -0.263   1.263  -0.423  0.00  0.00     0.209 HD
ENDBRANCH  17  18
ENDBRANCH  16  17
ENDBRANCH  15  16
ENDBRANCH  12  15
BRANCH  13  20
ATOM     20  O37 TIQ d           3.357  -0.409  -0.881  0.00  0.00    -0.390 OA
ATOM     21  H26 TIQ d           3.719  -0.891  -0.147  0.00  0.00     0.210 HD
ENDBRANCH  13  20
BRANCH  14  22
ATOM     22  O40 TIQ d           5.406   0.679   0.444  0.00  0.00    -0.391 OA
ATOM     23  H28 TIQ d           5.524  -0.107  -0.076  0.00  0.00     0.210 HD
ENDBRANCH  14  22
ENDBRANCH   7  10
BRANCH   3  24
ATOM     24  N8  TIQ d           9.176   6.059  -0.419  0.00  0.00    -0.367 N 
ATOM     25  H8  TIQ d           9.771   5.828  -1.227  0.00  0.00     0.161 HD
BRANCH  24  26
ATOM     26  C9  TIQ d           9.703   6.816   0.719  0.00  0.00     0.092 A 
ATOM     27  C11 TIQ d          10.172   8.220   0.465  0.00  0.00     0.037 A 
ATOM     28  C12 TIQ d          11.157   7.157   0.826  0.00  0.00     0.043 A 
BRANCH  28  29
ATOM     29  C14 TIQ d          11.854   7.313   2.126  0.00  0.00    -0.049 A 
ATOM     30  C15 TIQ d          13.228   7.146   2.145  0.00  0.00     0.011 A 
ATOM     31  C16 TIQ d          13.966   7.275   3.305  0.00  0.00     0.046 A 
ATOM     32  C17 TIQ d          13.312   7.574   4.479  0.00  0.00     0.154 A 
ATOM     33  F18 TIQ d          13.997   7.690   5.625  0.00  0.00    -0.203 F 
ATOM     34  C19 TIQ d          11.950   7.762   4.479  0.00  0.00     0.155 A 
ATOM     35  F20 TIQ d          11.334   8.063   5.626  0.00  0.00    -0.203 F 
ATOM     36  C21 TIQ d          11.224   7.642   3.317  0.00  0.00     0.053 A 
ENDBRANCH  28  29
ENDBRANCH  24  26
ENDBRANCH   3  24
BRANCH   1  37
ATOM     37  S4  TIQ d           4.419   6.959   1.029  0.00  0.00    -0.090 SA
BRANCH  37  38
ATOM     38  C3  TIQ d           2.855   6.059   0.845  0.00  0.00     0.082 C 
BRANCH  38  39
ATOM     39  C2  TIQ d           2.630   5.160   2.046  0.00  0.00     0.006 C 
ATOM     40  C1  TIQ d           1.416   4.278   1.862  0.00  0.00     0.006 C 
ENDBRANCH  38  39
ENDBRANCH  37  38
ENDBRANCH   1  37
TORSDOF 13
