REMARK  10 active torsions:
REMARK  status: ('A' for Active; 'I' for Inactive)
REMARK    1  A    between atoms: O3B_8  and  PG_1 
REMARK    2  A    between atoms: PB_5  and  O3B_8 
REMARK    3  A    between atoms: O3A_12  and  PB_5 
REMARK    4  A    between atoms: PA_9  and  O3A_12 
REMARK    5  A    between atoms: PA_9  and  O5'_13 
REMARK    6  A    between atoms: O5'_13  and  C5'_14 
REMARK    7  A    between atoms: C5'_14  and  C4'_15 
REMARK    8  A    between atoms: C3'_17  and  O3'_18 
REMARK    9  A    between atoms: C2'_19  and  O2'_20 
REMARK   10  A    between atoms: C1'_21  and  N9_22 
ROOT
ATOM      1  C4' ATP d          19.431  77.838  30.886  0.00  0.00     0.180 C 
ATOM      2  O4' ATP d          20.257  77.093  31.780  0.00  0.00    -0.353 OA
ATOM      3  C3' ATP d          20.108  79.191  30.689  0.00  0.00     0.182 C 
ATOM      4  C2' ATP d          21.508  78.979  31.233  0.00  0.00     0.198 C 
ATOM      5  C1' ATP d          21.224  77.979  32.325  0.00  0.00     0.262 C 
ENDROOT
BRANCH   1   6
ATOM      6  C5' ATP d          19.286  77.037  29.591  0.00  0.00     0.216 C 
BRANCH   6   7
ATOM      7  O5' ATP d          18.784  75.752  29.942  0.00  0.00    -0.287 OA
BRANCH   7   8
ATOM      8  PA  ATP d          18.050  74.852  28.825  0.00  0.00     0.417 P 
ATOM      9  O1A ATP d          18.957  74.795  27.624  0.00  0.00    -0.624 OA
ATOM     10  O2A ATP d          17.537  73.624  29.506  0.00  0.00    -0.624 OA
BRANCH   8  11
ATOM     11  O3A ATP d          16.809  75.827  28.490  0.00  0.00    -0.180 OA
BRANCH  11  12
ATOM     12  PB  ATP d          15.764  75.664  27.273  0.00  0.00     0.428 P 
ATOM     13  O1B ATP d          15.314  74.237  27.167  0.00  0.00    -0.624 OA
ATOM     14  O2B ATP d          16.345  76.302  26.040  0.00  0.00    -0.624 OA
BRANCH  12  15
ATOM     15  O3B ATP d          14.615  76.619  27.918  0.00  0.00    -0.173 OA
BRANCH  15  16
ATOM     16  PG  ATP d          13.036  76.378  28.187  0.00  0.00     0.431 P 
ATOM     17  O1G ATP d          12.324  76.874  26.937  0.00  0.00    -0.616 OA
ATOM     18  O2G ATP d          12.822  77.235  29.416  0.00  0.00    -0.616 OA
ATOM     19  O3G ATP d          12.790  74.939  28.473  0.00  0.00    -0.616 OA
ENDBRANCH  15  16
ENDBRANCH  12  15
ENDBRANCH  11  12
ENDBRANCH   8  11
ENDBRANCH   7   8
ENDBRANCH   6   7
ENDBRANCH   1   6
BRANCH   3  20
ATOM     20  O3' ATP d          19.397  80.148  31.487  0.00  0.00    -0.390 OA
ATOM     21  H5  ATP d          19.797  81.004  31.385  0.00  0.00     0.210 HD
ENDBRANCH   3  20
BRANCH   5  22
ATOM     22  N9  ATP d          22.414  77.201  32.696  0.00  0.00    -0.294 N 
ATOM     23  C8  ATP d          23.205  76.475  31.884  0.00  0.00     0.214 A 
ATOM     24  N7  ATP d          24.199  75.887  32.602  0.00  0.00    -0.236 NA
ATOM     25  C5  ATP d          24.032  76.246  33.889  0.00  0.00     0.149 A 
ATOM     26  C6  ATP d          24.732  75.991  35.158  0.00  0.00     0.155 A 
ATOM     27  C4  ATP d          22.853  77.117  33.945  0.00  0.00     0.167 A 
ATOM     28  N6  ATP d          25.837  75.201  35.177  0.00  0.00    -0.382 N 
ATOM     29  N1  ATP d          24.228  76.565  36.279  0.00  0.00    -0.222 NA
ATOM     30  H10 ATP d          26.327  75.022  36.065  0.00  0.00     0.157 HD
ATOM     31  H11 ATP d          26.185  74.781  34.303  0.00  0.00     0.157 HD
ATOM     32  C2  ATP d          23.131  77.351  36.254  0.00  0.00     0.237 A 
ATOM     33  N3  ATP d          22.451  77.637  35.128  0.00  0.00    -0.222 NA
ENDBRANCH   5  22
BRANCH   4  34
ATOM     34  O2' ATP d          22.151  80.151  31.742  0.00  0.00    -0.388 OA
ATOM     35  H7  ATP d          21.636  80.509  32.455  0.00  0.00     0.210 HD
ENDBRANCH   4  34
TORSDOF 10
