REMARK  5 active torsions:
REMARK  status: ('A' for Active; 'I' for Inactive)
REMARK    1  A    between atoms: C2_2  and  O2_8 
REMARK    2  A    between atoms: C3_3  and  O3_9 
REMARK    3  A    between atoms: C4_4  and  O4_10 
REMARK    4  A    between atoms: C5_5  and  C6_6 
REMARK    5  A    between atoms: C6_6  and  O6_12 
ROOT
ATOM      1  C1  MOL d         -10.846 -27.577 -26.265  0.00  0.00     0.291 C 
ATOM      2  C2  MOL d          -9.873 -28.630 -25.700  0.00  0.00     0.248 C 
ATOM      3  C3  MOL d          -8.999 -29.224 -26.820  0.00  0.00     0.188 C 
ATOM      4  C4  MOL d          -9.875 -29.648 -28.002  0.00  0.00     0.181 C 
ATOM      5  C5  MOL d         -10.474 -28.368 -28.640  0.00  0.00     0.186 C 
ATOM      6  O1  MOL d         -11.403 -26.814 -25.515  0.00  0.00    -0.262 OA
ATOM      7  O5  MOL d         -11.086 -27.484 -27.622  0.00  0.00    -0.309 OA
ENDROOT
BRANCH   5   8
ATOM      8  C6  MOL d         -11.566 -28.744 -29.648  0.00  0.00     0.199 C 
BRANCH   8   9
ATOM      9  O6  MOL d         -10.972 -29.383 -30.777  0.00  0.00    -0.398 OA
ATOM     10  H10 MOL d         -11.650 -29.615 -31.401  0.00  0.00     0.209 HD
ENDBRANCH   8   9
ENDBRANCH   5   8
BRANCH   4  11
ATOM     11  O4  MOL d         -10.939 -30.504 -27.544  0.00  0.00    -0.390 OA
ATOM     12  H9  MOL d         -10.568 -31.287 -27.154  0.00  0.00     0.210 HD
ENDBRANCH   4  11
BRANCH   3  13
ATOM     13  O3  MOL d          -8.297 -30.357 -26.310  0.00  0.00    -0.390 OA
ATOM     14  H8  MOL d          -7.755 -30.089 -25.577  0.00  0.00     0.210 HD
ENDBRANCH   3  13
BRANCH   2  15
ATOM     15  O2  MOL d          -9.023 -28.013 -24.723  0.00  0.00    -0.383 OA
ATOM     16  H7  MOL d          -9.556 -27.644 -24.029  0.00  0.00     0.210 HD
ENDBRANCH   2  15
TORSDOF 5
