REMARK  9 active torsions:
REMARK  status: ('A' for Active; 'I' for Inactive)
REMARK    1  A    between atoms: C2_29  and  O3_1 
REMARK    2  A    between atoms: C4_2  and  C5_3 
REMARK    3  A    between atoms: C5_3  and  O1_26 
REMARK    4  A    between atoms: C1_30  and  O4_4 
REMARK    5  A    between atoms: O5_10  and  C6_5 
REMARK    6  A    between atoms: C18_19  and  N1_6 
REMARK    7  A    between atoms: C9_9  and  N_23 
REMARK    8  A    between atoms: C_24  and  O5_10 
REMARK    9  A    between atoms: C3_27  and  O2_28 
ROOT
ATOM      1  C6  MOL d         -28.579  -8.919 -10.682  0.00  0.00     0.072 A 
ATOM      2  C7  MOL d         -29.004  -7.727 -11.183  0.00  0.00     0.039 A 
ATOM      3  C8  MOL d         -30.335  -7.640 -11.622  0.00  0.00     0.033 A 
ATOM      4  C9  MOL d         -31.190  -8.750 -11.535  0.00  0.00     0.039 A 
ATOM      5  C10 MOL d         -30.716  -9.940 -11.023  0.00  0.00     0.033 A 
ATOM      6  C11 MOL d         -29.418 -10.022 -10.603  0.00  0.00     0.039 A 
ENDROOT
BRANCH   1   7
ATOM      7  O5  MOL d         -27.276  -9.116 -10.262  0.00  0.00    -0.318 OA
BRANCH   7   8
ATOM      8  C   MOL d         -26.400  -8.075 -10.074  0.00  0.00     0.298 C 
ATOM      9  O   MOL d         -26.851  -7.074  -9.219  0.00  0.00    -0.348 OA
ATOM     10  C4  MOL d         -27.161  -7.589  -7.916  0.00  0.00     0.179 C 
ATOM     11  C3  MOL d         -25.911  -8.215  -7.292  0.00  0.00     0.180 C 
ATOM     12  C2  MOL d         -25.330  -9.271  -8.222  0.00  0.00     0.183 C 
ATOM     13  C1  MOL d         -25.108  -8.693  -9.614  0.00  0.00     0.205 C 
BRANCH  10  14
ATOM     14  C5  MOL d         -27.720  -6.440  -7.124  0.00  0.00     0.198 C 
BRANCH  14  15
ATOM     15  O1  MOL d         -26.762  -5.392  -6.974  0.00  0.00    -0.398 OA
ATOM     16  H16 MOL d         -27.145  -4.684  -6.471  0.00  0.00     0.209 HD
ENDBRANCH  14  15
ENDBRANCH  10  14
BRANCH  11  17
ATOM     17  O2  MOL d         -26.240  -8.827  -6.065  0.00  0.00    -0.390 OA
ATOM     18  H18 MOL d         -26.593  -8.175  -5.472  0.00  0.00     0.210 HD
ENDBRANCH  11  17
BRANCH  12  19
ATOM     19  O3  MOL d         -24.111  -9.769  -7.679  0.00  0.00    -0.390 OA
ATOM     20  H1  MOL d         -23.752 -10.428  -8.262  0.00  0.00     0.210 HD
ENDBRANCH  12  19
BRANCH  13  21
ATOM     21  O4  MOL d         -24.102  -7.684  -9.577  0.00  0.00    -0.388 OA
ATOM     22  H5  MOL d         -23.282  -8.066  -9.287  0.00  0.00     0.210 HD
ENDBRANCH  13  21
ENDBRANCH   7   8
ENDBRANCH   1   7
BRANCH   4  23
ATOM     23  N   MOL d         -32.550  -8.660 -11.955  0.00  0.00    -0.322 N 
ATOM     24  C12 MOL d         -32.979  -7.905 -13.071  0.00  0.00     0.098 A 
ATOM     25  C13 MOL d         -34.358  -8.077 -13.205  0.00  0.00     0.031 A 
ATOM     26  C14 MOL d         -34.797  -8.953 -12.116  0.00  0.00    -0.005 A 
ATOM     27  C15 MOL d         -33.634  -9.299 -11.359  0.00  0.00     0.049 A 
ATOM     28  C19 MOL d         -36.069  -9.401 -11.703  0.00  0.00     0.049 A 
ATOM     29  C16 MOL d         -33.740 -10.098 -10.181  0.00  0.00     0.033 A 
ATOM     30  C17 MOL d         -34.991 -10.527  -9.777  0.00  0.00     0.038 A 
ATOM     31  C18 MOL d         -36.140 -10.177 -10.540  0.00  0.00     0.103 A 
BRANCH  31  32
ATOM     32  N1  MOL d         -37.475 -10.649 -10.059  0.00  0.00    -0.116 N 
ATOM     33  O6  MOL d         -37.543 -11.081  -8.910  0.00  0.00    -0.532 OA
ATOM     34  O7  MOL d         -38.439 -10.587 -10.809  0.00  0.00    -0.532 OA
ENDBRANCH  31  32
ENDBRANCH   4  23
TORSDOF 9
