REMARK  15 active torsions:
REMARK  status: ('A' for Active; 'I' for Inactive)
REMARK    1  A    between atoms: N1_1  and  C7_4 
REMARK    2  A    between atoms: C5_2  and  C27_24 
REMARK    3  A    between atoms: C12_28  and  C6_3 
REMARK    4  A    between atoms: C7_4  and  C8_5 
REMARK    5  A    between atoms: C8_5  and  C9_22 
REMARK    6  A    between atoms: C10_6  and  C11_20 
REMARK    7  A    between atoms: C9_22  and  C10_6 
REMARK    8  A    between atoms: C26_14  and  O2_40 
REMARK    9  A    between atoms: C35_19  and  C36_17 
REMARK   10  A    between atoms: C11_20  and  C35_19 
REMARK   11  A    between atoms: C11_20  and  O3_21 
REMARK   12  A    between atoms: C9_22  and  O4_23 
REMARK   13  A    between atoms: C3_36  and  C2_30 
REMARK   14  A    between atoms: C1_31  and  C31_32 
REMARK       I    between atoms: N2_38  and  C3_36 
REMARK   15  A    between atoms: N2_38  and  C32_39 
ROOT
ATOM      1  N1  MOL d          32.892  -7.287 -12.066  0.00  0.00    -0.347 N 
ATOM      2  C5  MOL d          33.076  -6.049 -12.530  0.00  0.00     0.057 A 
ATOM      3  C12 MOL d          33.917  -8.085 -12.492  0.00  0.00     0.032 A 
ATOM      4  C2  MOL d          34.811  -7.324 -13.266  0.00  0.00     0.068 A 
ATOM      5  C1  MOL d          34.320  -6.047 -13.289  0.00  0.00     0.020 A 
ENDROOT
BRANCH   1   6
ATOM      6  C7  MOL d          31.724  -7.633 -11.246  0.00  0.00     0.132 C 
BRANCH   6   7
ATOM      7  C8  MOL d          32.038  -7.387  -9.774  0.00  0.00     0.052 C 
BRANCH   7   8
ATOM      8  C9  MOL d          30.792  -7.477  -8.895  0.00  0.00     0.122 C 
BRANCH   8   9
ATOM      9  C10 MOL d          31.115  -6.911  -7.524  0.00  0.00     0.064 C 
BRANCH   9  10
ATOM     10  C11 MOL d          31.269  -5.398  -7.509  0.00  0.00     0.130 C 
BRANCH  10  11
ATOM     11  C35 MOL d          31.917  -5.020  -6.175  0.00  0.00     0.144 C 
BRANCH  11  12
ATOM     12  C36 MOL d          32.294  -3.566  -6.127  0.00  0.00     0.175 C 
ATOM     13  O7  MOL d          33.342  -3.219  -6.712  0.00  0.00    -0.648 OA
ATOM     14  O6  MOL d          31.561  -2.749  -5.518  0.00  0.00    -0.648 OA
ENDBRANCH  11  12
ENDBRANCH  10  11
BRANCH  10  15
ATOM     15  O3  MOL d          29.988  -4.797  -7.671  0.00  0.00    -0.395 OA
ATOM     16  H21 MOL d          29.622  -5.056  -8.508  0.00  0.00     0.210 HD
ENDBRANCH  10  15
ENDBRANCH   9  10
ENDBRANCH   8   9
BRANCH   8  17
ATOM     17  O4  MOL d          30.390  -8.829  -8.722  0.00  0.00    -0.395 OA
ATOM     18  H23 MOL d          30.182  -9.207  -9.568  0.00  0.00     0.210 HD
ENDBRANCH   8  17
ENDBRANCH   7   8
ENDBRANCH   6   7
ENDBRANCH   1   6
BRANCH   2  19
ATOM     19  C27 MOL d          32.341  -4.766 -12.382  0.00  0.00    -0.008 A 
ATOM     20  C21 MOL d          32.629  -3.997 -11.262  0.00  0.00     0.017 A 
ATOM     21  C24 MOL d          31.975  -2.793 -11.048  0.00  0.00     0.043 A 
ATOM     22  C30 MOL d          31.030  -2.361 -11.963  0.00  0.00     0.116 A 
ATOM     23  C15 MOL d          30.732  -3.122 -13.087  0.00  0.00     0.043 A 
ATOM     24  F1  MOL d          30.407  -1.199 -11.750  0.00  0.00    -0.206 F 
ATOM     25  C18 MOL d          31.391  -4.332 -13.299  0.00  0.00     0.017 A 
ENDBRANCH   2  19
BRANCH   3  26
ATOM     26  C6  MOL d          34.111  -9.535 -12.222  0.00  0.00     0.028 C 
ATOM     27  C13 MOL d          32.901 -10.369 -12.639  0.00  0.00     0.016 C 
ATOM     28  C14 MOL d          34.500  -9.738 -10.764  0.00  0.00     0.016 C 
ENDBRANCH   3  26
BRANCH   5  29
ATOM     29  C31 MOL d          34.863  -4.851 -13.982  0.00  0.00    -0.023 A 
ATOM     30  C25 MOL d          35.518  -3.854 -13.275  0.00  0.00     0.012 A 
ATOM     31  C22 MOL d          36.006  -2.741 -13.946  0.00  0.00     0.001 A 
ATOM     32  C28 MOL d          35.830  -2.620 -15.318  0.00  0.00     0.000 A 
ATOM     33  C19 MOL d          35.171  -3.619 -16.034  0.00  0.00     0.001 A 
ATOM     34  C16 MOL d          34.674  -4.730 -15.356  0.00  0.00     0.012 A 
ENDBRANCH   5  29
BRANCH   4  35
ATOM     35  C3  MOL d          36.068  -7.827 -13.897  0.00  0.00     0.259 C 
ATOM     36  O1  MOL d          36.877  -8.405 -13.176  0.00  0.00    -0.267 OA
ATOM     37  N2  MOL d          36.235  -7.730 -15.213  0.00  0.00    -0.320 N 
ATOM     38  H31 MOL d          35.442  -7.487 -15.771  0.00  0.00     0.169 HD
BRANCH  37  39
ATOM     39  C32 MOL d          37.470  -7.951 -15.871  0.00  0.00     0.068 A 
ATOM     40  C17 MOL d          38.356  -8.949 -15.455  0.00  0.00     0.032 A 
ATOM     41  C20 MOL d          39.561  -9.147 -16.119  0.00  0.00     0.002 A 
ATOM     42  C29 MOL d          39.892  -8.353 -17.218  0.00  0.00     0.003 A 
ATOM     43  C23 MOL d          39.018  -7.358 -17.651  0.00  0.00     0.039 A 
ATOM     44  C26 MOL d          37.809  -7.159 -16.977  0.00  0.00     0.092 A 
BRANCH  44  45
ATOM     45  O2  MOL d          36.985  -6.200 -17.410  0.00  0.00    -0.358 OA
ATOM     46  H32 MOL d          37.372  -5.767 -18.162  0.00  0.00     0.217 HD
ENDBRANCH  44  45
ENDBRANCH  37  39
ENDBRANCH   4  35
TORSDOF 15
