REMARK  3 active torsions:
REMARK  status: ('A' for Active; 'I' for Inactive)
REMARK    1  A    between atoms: C2_2  and  O4_3 
REMARK    2  A    between atoms: C2_2  and  C5_4 
REMARK    3  A    between atoms: N6_5  and  C18_16 
ROOT
ATOM      1  C18 1J5 d           7.470  55.905   0.644  0.00  0.00     0.092 C 
ATOM      2  C20 1J5 d           7.260  55.984   2.168  0.00  0.00     0.027 C 
ATOM      3  C21 1J5 d           6.830  54.626   2.749  0.00  0.00     0.021 C 
ATOM      4  C22 1J5 d           5.649  54.032   1.943  0.00  0.00     0.093 C 
ATOM      5  C24 1J5 d           5.917  53.945   0.429  0.00  0.00     0.021 C 
ATOM      6  C25 1J5 d           6.246  55.347  -0.106  0.00  0.00     0.027 C 
ATOM      7  C26 1J5 d           5.391  52.673   2.454  0.00  0.00     0.064 C 
ATOM      8  N27 1J5 d           5.202  51.641   2.892  0.00  0.00    -0.197 NA
ENDROOT
BRANCH   1   9
ATOM      9  N6  1J5 d           7.787  57.240   0.101  0.00  0.00    -0.325 N 
ATOM     10  C5  1J5 d           8.941  57.542  -0.558  0.00  0.00     0.136 A 
ATOM     11  N9  1J5 d           8.947  58.784  -0.915  0.00  0.00    -0.229 NA
ATOM     12  C8  1J5 d           7.800  59.382  -0.533  0.00  0.00     0.104 A 
ATOM     13  C7  1J5 d           7.031  58.405   0.134  0.00  0.00     0.081 A 
ATOM     14  C10 1J5 d           7.339  60.689  -0.667  0.00  0.00     0.153 A 
ATOM     15  C13 1J5 d           5.773  58.827   0.611  0.00  0.00     0.041 A 
ATOM     16  C12 1J5 d           5.387  60.168   0.418  0.00  0.00     0.139 A 
ATOM     17  C14 1J5 d           4.670  58.195   1.309  0.00  0.00     0.034 A 
ATOM     18  N11 1J5 d           6.171  61.044  -0.198  0.00  0.00    -0.240 NA
ATOM     19  N16 1J5 d           4.157  60.311   0.953  0.00  0.00    -0.350 N 
ATOM     20  C15 1J5 d           3.731  59.126   1.486  0.00  0.00     0.091 A 
ATOM     21  H9  1J5 d           3.616  61.188   0.959  0.00  0.00     0.166 HD
BRANCH  10  22
ATOM     22  C2  1J5 d          10.077  56.599  -0.802  0.00  0.00     0.183 C 
ATOM     23  C1  1J5 d          11.041  57.151  -1.861  0.00  0.00     0.047 C 
BRANCH  22  24
ATOM     24  O4  1J5 d          10.733  56.452   0.469  0.00  0.00    -0.388 OA
ATOM     25  H5  1J5 d          10.116  56.110   1.105  0.00  0.00     0.210 HD
ENDBRANCH  22  24
ENDBRANCH  10  22
ENDBRANCH   1   9
TORSDOF 3
