REMARK  14 active torsions:
REMARK  status: ('A' for Active; 'I' for Inactive)
REMARK       I    between atoms: N1_26  and  C3_3 
REMARK    1  A    between atoms: C3_3  and  O1_29 
REMARK    2  A    between atoms: O1_29  and  C4_4 
REMARK    3  A    between atoms: C6_6  and  C5_5 
REMARK    4  A    between atoms: C5_5  and  C7_7 
REMARK    5  A    between atoms: C5_5  and  N1_26 
REMARK    6  A    between atoms: C14_14  and  C6_6 
REMARK    7  A    between atoms: C6_6  and  O3_31 
REMARK    8  A    between atoms: C7_7  and  C8_8 
REMARK    9  A    between atoms: N2_27  and  C14_14 
REMARK   10  A    between atoms: C15_15  and  C16_16 
REMARK   11  A    between atoms: N2_27  and  C15_15 
REMARK   12  A    between atoms: S1_35  and  C17_17 
REMARK   13  A    between atoms: C20_20  and  N3_28 
REMARK   14  A    between atoms: N2_27  and  S1_35 
ROOT
ATOM      1  C6  MOL d          15.449  23.997  18.094  0.00  0.00     0.160 C 
ENDROOT
BRANCH   1   2
ATOM      2  C5  MOL d          15.015  22.905  17.138  0.00  0.00     0.121 C 
BRANCH   2   3
ATOM      3  C7  MOL d          14.254  23.339  15.894  0.00  0.00     0.066 C 
BRANCH   3   4
ATOM      4  C8  MOL d          13.822  22.231  14.989  0.00  0.00    -0.056 A 
ATOM      5  C9  MOL d          12.523  21.739  15.019  0.00  0.00     0.007 A 
ATOM      6  C11 MOL d          12.226  20.607  14.236  0.00  0.00     0.001 A 
ATOM      7  C13 MOL d          13.179  20.054  13.386  0.00  0.00     0.000 A 
ATOM      8  C12 MOL d          14.462  20.558  13.316  0.00  0.00     0.001 A 
ATOM      9  C10 MOL d          14.752  21.639  14.138  0.00  0.00     0.007 A 
ENDBRANCH   3   4
ENDBRANCH   2   3
BRANCH   2  10
ATOM     10  N1  MOL d          14.180  21.960  17.855  0.00  0.00    -0.329 N 
ATOM     11  C3  MOL d          14.517  20.730  18.295  0.00  0.00     0.361 C 
ATOM     12  O2  MOL d          15.626  20.227  18.219  0.00  0.00    -0.238 OA
ATOM     13  H32 MOL d          13.244  22.255  18.046  0.00  0.00     0.165 HD
BRANCH  11  14
ATOM     14  O1  MOL d          13.480  20.094  18.926  0.00  0.00    -0.296 OA
BRANCH  14  15
ATOM     15  C4  MOL d          13.761  18.809  19.484  0.00  0.00     0.159 C 
ATOM     16  C1  MOL d          12.414  18.158  19.824  0.00  0.00     0.200 C 
ATOM     17  O6  MOL d          12.033  18.673  21.126  0.00  0.00    -0.389 OA
ATOM     18  C25 MOL d          13.271  18.567  21.844  0.00  0.00     0.170 C 
ATOM     19  C2  MOL d          14.346  19.059  20.879  0.00  0.00     0.061 C 
ENDBRANCH  14  15
ENDBRANCH  11  14
ENDBRANCH   2  10
ENDBRANCH   1   2
BRANCH   1  20
ATOM     20  C14 MOL d          16.571  24.886  17.576  0.00  0.00     0.169 C 
BRANCH  20  21
ATOM     21  N2  MOL d          17.850  24.233  17.469  0.00  0.00    -0.304 N 
BRANCH  21  22
ATOM     22  C15 MOL d          18.787  24.626  18.517  0.00  0.00     0.139 C 
BRANCH  22  23
ATOM     23  C16 MOL d          18.492  23.960  19.890  0.00  0.00    -0.004 C 
ATOM     24  C23 MOL d          18.591  22.455  19.744  0.00  0.00     0.011 C 
ATOM     25  C24 MOL d          19.561  24.448  20.901  0.00  0.00     0.011 C 
ENDBRANCH  22  23
ENDBRANCH  21  22
BRANCH  21  26
ATOM     26  S1  MOL d          18.532  23.910  16.004  0.00  0.00     0.260 S 
ATOM     27  O4  MOL d          17.445  23.614  15.058  0.00  0.00    -0.200 OA
ATOM     28  O5  MOL d          19.555  22.855  16.238  0.00  0.00    -0.200 OA
BRANCH  26  29
ATOM     29  C17 MOL d          19.339  25.317  15.346  0.00  0.00     0.079 A 
ATOM     30  C18 MOL d          18.644  26.257  14.609  0.00  0.00     0.027 A 
ATOM     31  C19 MOL d          19.170  27.466  14.159  0.00  0.00     0.030 A 
ATOM     32  C20 MOL d          20.491  27.742  14.480  0.00  0.00     0.025 A 
ATOM     33  C21 MOL d          21.219  26.781  15.157  0.00  0.00     0.030 A 
ATOM     34  C22 MOL d          20.684  25.605  15.665  0.00  0.00     0.027 A 
BRANCH  32  35
ATOM     35  N3  MOL d          21.069  28.879  14.001  0.00  0.00    -0.399 N 
ATOM     36  H33 MOL d          20.498  29.575  13.501  0.00  0.00     0.156 HD
ATOM     37  H34 MOL d          22.077  29.042  14.139  0.00  0.00     0.156 HD
ENDBRANCH  32  35
ENDBRANCH  26  29
ENDBRANCH  21  26
ENDBRANCH  20  21
ENDBRANCH   1  20
BRANCH   1  38
ATOM     38  O3  MOL d          14.332  24.817  18.448  0.00  0.00    -0.392 OA
ATOM     39  H35 MOL d          13.628  24.268  18.772  0.00  0.00     0.210 HD
ENDBRANCH   1  38
TORSDOF 14
