REMARK  4 active torsions:
REMARK  status: ('A' for Active; 'I' for Inactive)
REMARK    1  A    between atoms: C6_1  and  C5_2 
REMARK    2  A    between atoms: C6_1  and  O6_6 
REMARK    3  A    between atoms: C4_3  and  O4_8 
REMARK    4  A    between atoms: C3_4  and  O3_9 
ROOT
ATOM      1  C5  OXZ d          -2.127  10.734   8.977  0.00  0.00     0.213 C 
ATOM      2  C4  OXZ d          -0.983  10.733   7.936  0.00  0.00     0.182 C 
ATOM      3  C3  OXZ d          -0.071  11.946   8.228  0.00  0.00     0.177 C 
ATOM      4  C2  OXZ d           0.525  11.838   9.639  0.00  0.00     0.302 C 
ATOM      5  O5  OXZ d          -1.525  10.535  10.250  0.00  0.00    -0.195 OA
ATOM      6  N1  OXZ d          -0.522  11.591  10.640  0.00  0.00     0.042 N 
ATOM      7  H11 OXZ d          -1.018  12.454  10.796  0.00  0.00     0.315 HD
ATOM      8  H12 OXZ d          -0.076  11.301  11.496  0.00  0.00     0.315 HD
ENDROOT
BRANCH   1   9
ATOM      9  C6  OXZ d          -3.129   9.598   8.735  0.00  0.00     0.201 C 
BRANCH   9  10
ATOM     10  O6  OXZ d          -2.525   8.317   8.919  0.00  0.00    -0.398 OA
ATOM     11  H8  OXZ d          -2.200   8.246   9.809  0.00  0.00     0.209 HD
ENDBRANCH   9  10
ENDBRANCH   1   9
BRANCH   2  12
ATOM     12  O4  OXZ d          -1.455  10.773   6.603  0.00  0.00    -0.390 OA
ATOM     13  H9  OXZ d          -0.716  10.754   6.006  0.00  0.00     0.210 HD
ENDBRANCH   2  12
BRANCH   3  14
ATOM     14  O3  OXZ d           0.978  12.135   7.291  0.00  0.00    -0.391 OA
ATOM     15  H10 OXZ d           0.612  12.202   6.417  0.00  0.00     0.210 HD
ENDBRANCH   3  14
TORSDOF 4
