REMARK  4 active torsions:
REMARK  status: ('A' for Active; 'I' for Inactive)
REMARK    1  A    between atoms: C4_4  and  N1_5 
REMARK    2  A    between atoms: N1_5  and  C5_6 
REMARK    3  A    between atoms: C13_15  and  C19_23 
REMARK       I    between atoms: N2_19  and  C17_20 
REMARK    4  A    between atoms: C22_26  and  C25_29 
ROOT
ATOM      1  C1  MOL d          22.092   7.853 -10.790  0.00  0.00     0.033 C 
ATOM      2  C2  MOL d          21.922   9.277 -10.252  0.00  0.00     0.091 C 
ATOM      3  C3  MOL d          21.822  10.285 -11.416  0.00  0.00     0.055 C 
ATOM      4  C4  MOL d          20.885  11.433 -11.092  0.00  0.00     0.119 C 
ATOM      5  C11 MOL d          19.565  10.817 -10.699  0.00  0.00    -0.008 A 
ATOM      6  C12 MOL d          18.353  11.265 -11.254  0.00  0.00     0.024 A 
ATOM      7  C13 MOL d          17.121  10.676 -10.925  0.00  0.00    -0.025 A 
ATOM      8  C14 MOL d          17.114   9.617 -10.016  0.00  0.00     0.014 A 
ATOM      9  C15 MOL d          18.304   9.142  -9.470  0.00  0.00     0.031 A 
ATOM     10  C16 MOL d          19.515   9.745  -9.812  0.00  0.00     0.046 A 
ATOM     11  N2  MOL d          20.771   9.314  -9.311  0.00  0.00    -0.313 N 
ATOM     12  C17 MOL d          21.037   8.950  -8.044  0.00  0.00     0.220 C 
ATOM     13  C18 MOL d          20.005   9.138  -6.968  0.00  0.00     0.117 C 
ATOM     14  O1  MOL d          22.140   8.486  -7.765  0.00  0.00    -0.273 OA
ENDROOT
BRANCH   4  15
ATOM     15  N1  MOL d          20.739  12.330 -12.223  0.00  0.00    -0.381 N 
ATOM     16  H   MOL d          20.957  11.963 -13.160  0.00  0.00     0.160 HD
BRANCH  15  17
ATOM     17  C5  MOL d          20.324  13.654 -12.124  0.00  0.00     0.028 A 
ATOM     18  C6  MOL d          19.968  14.253 -10.913  0.00  0.00     0.031 A 
ATOM     19  C7  MOL d          19.548  15.582 -10.893  0.00  0.00     0.026 A 
ATOM     20  C8  MOL d          19.485  16.292 -12.085  0.00  0.00     0.034 A 
ATOM     21 CL1  MOL d          18.962  17.951 -12.098  0.00  0.00    -0.084 Cl
ATOM     22  C9  MOL d          19.836  15.701 -13.287  0.00  0.00     0.026 A 
ATOM     23  C10 MOL d          20.256  14.379 -13.309  0.00  0.00     0.031 A 
ENDBRANCH  15  17
ENDBRANCH   4  15
BRANCH   7  24
ATOM     24  C19 MOL d          15.818  11.150 -11.522  0.00  0.00    -0.026 A 
ATOM     25  C20 MOL d          15.807  11.942 -12.681  0.00  0.00     0.013 A 
ATOM     26  C21 MOL d          14.609  12.434 -13.202  0.00  0.00     0.019 A 
ATOM     27  C22 MOL d          13.396  12.134 -12.586  0.00  0.00     0.040 A 
ATOM     28  C23 MOL d          13.392  11.332 -11.450  0.00  0.00     0.019 A 
ATOM     29  C24 MOL d          14.588  10.837 -10.928  0.00  0.00     0.013 A 
BRANCH  27  30
ATOM     30  C25 MOL d          12.091  12.651 -13.134  0.00  0.00     0.209 C 
ATOM     31  O2  MOL d          11.024  12.333 -12.633  0.00  0.00    -0.644 OA
ATOM     32  O3  MOL d          12.185  13.451 -14.186  0.00  0.00    -0.644 OA
ENDBRANCH  27  30
ENDBRANCH   7  24
TORSDOF 4
