REMARK  2 active torsions:
REMARK  status: ('A' for Active; 'I' for Inactive)
REMARK    1  A    between atoms: C2'_10  and  O2'_11 
REMARK    2  A    between atoms: C1'_12  and  N9_13 
ROOT
ATOM      1  P   CMP d          -6.684  -6.949  20.154  0.00  0.00     0.408 P 
ATOM      2  O1P CMP d          -6.101  -5.665  20.666  0.00  0.00    -0.624 OA
ATOM      3  O2P CMP d          -8.118  -7.185  20.043  0.00  0.00    -0.624 OA
ATOM      4  O5' CMP d          -6.275  -8.094  21.206  0.00  0.00    -0.287 OA
ATOM      5  C5' CMP d          -6.168  -9.447  20.861  0.00  0.00     0.216 C 
ATOM      6  C4' CMP d          -5.313  -9.505  19.605  0.00  0.00     0.180 C 
ATOM      7  O4' CMP d          -5.193 -10.785  19.062  0.00  0.00    -0.353 OA
ATOM      8  C3' CMP d          -5.938  -8.696  18.474  0.00  0.00     0.198 C 
ATOM      9  O3' CMP d          -5.794  -7.355  18.870  0.00  0.00    -0.279 OA
ATOM     10  C2' CMP d          -5.193  -9.236  17.281  0.00  0.00     0.199 C 
ATOM     11  C1' CMP d          -5.117 -10.730  17.629  0.00  0.00     0.262 C 
ENDROOT
BRANCH  11  12
ATOM     12  N9  CMP d          -6.258 -11.452  17.010  0.00  0.00    -0.294 N 
ATOM     13  C8  CMP d          -7.389 -11.850  17.563  0.00  0.00     0.214 A 
ATOM     14  N7  CMP d          -8.182 -12.463  16.641  0.00  0.00    -0.236 NA
ATOM     15  C5  CMP d          -7.549 -12.437  15.466  0.00  0.00     0.149 A 
ATOM     16  C6  CMP d          -7.787 -12.827  14.035  0.00  0.00     0.155 A 
ATOM     17  C4  CMP d          -6.309 -11.753  15.715  0.00  0.00     0.167 A 
ATOM     18  N6  CMP d          -8.879 -13.450  13.638  0.00  0.00    -0.382 N 
ATOM     19  N1  CMP d          -6.869 -12.570  13.109  0.00  0.00    -0.222 NA
ATOM     20  H9  CMP d          -8.999 -13.698  12.645  0.00  0.00     0.157 HD
ATOM     21  H10 CMP d          -9.613 -13.689  14.320  0.00  0.00     0.157 HD
ATOM     22  C2  CMP d          -5.714 -12.001  13.431  0.00  0.00     0.237 A 
ATOM     23  N3  CMP d          -5.453 -11.561  14.673  0.00  0.00    -0.222 NA
ENDBRANCH  11  12
BRANCH  10  24
ATOM     24  O2' CMP d          -3.912  -8.689  17.115  0.00  0.00    -0.388 OA
ATOM     25  H6  CMP d          -3.502  -9.072  16.349  0.00  0.00     0.210 HD
ENDBRANCH  10  24
TORSDOF 2
