REMARK  9 active torsions:
REMARK  status: ('A' for Active; 'I' for Inactive)
REMARK    1  A    between atoms: C1_1  and  C2_2 
REMARK    2  A    between atoms: C4_4  and  O4_15 
REMARK    3  A    between atoms: C5_5  and  N5_12 
REMARK    4  A    between atoms: C6_6  and  C7_7 
REMARK    5  A    between atoms: C7_7  and  O7_17 
REMARK    6  A    between atoms: C7_7  and  C8_8 
REMARK    7  A    between atoms: C8_8  and  O8_18 
REMARK    8  A    between atoms: C8_8  and  C9_9 
REMARK    9  A    between atoms: C9_9  and  N9_19 
REMARK       I    between atoms: N5_12  and  C10_10 
ROOT
ATOM      1  C2  MOL d          24.090  18.710  63.971  0.00  0.00     0.144 C 
ATOM      2  C3  MOL d          23.492  17.531  63.641  0.00  0.00     0.050 C 
ATOM      3  C4  MOL d          24.114  16.569  62.599  0.00  0.00     0.169 C 
ATOM      4  C5  MOL d          25.639  16.660  62.626  0.00  0.00     0.149 C 
ATOM      5  C6  MOL d          26.038  18.148  62.502  0.00  0.00     0.186 C 
ATOM      6  O6  MOL d          25.409  18.912  63.590  0.00  0.00    -0.335 OA
ENDROOT
BRANCH   5   7
ATOM      7  C7  MOL d          27.588  18.419  62.603  0.00  0.00     0.180 C 
BRANCH   7   8
ATOM      8  O7  MOL d          27.962  18.115  63.968  0.00  0.00    -0.390 OA
ATOM      9  H14 MOL d          27.477  18.677  64.561  0.00  0.00     0.210 HD
ENDBRANCH   7   8
BRANCH   7  10
ATOM     10  C8  MOL d          27.827  19.887  62.292  0.00  0.00     0.174 C 
BRANCH  10  11
ATOM     11  O8  MOL d          27.789  20.035  60.925  0.00  0.00    -0.391 OA
ATOM     12  H15 MOL d          27.936  20.947  60.702  0.00  0.00     0.210 HD
ENDBRANCH  10  11
BRANCH  10  13
ATOM     13  C9  MOL d          29.157  20.407  62.810  0.00  0.00     0.263 C 
BRANCH  13  14
ATOM     14  N9  MOL d          30.318  19.648  62.272  0.00  0.00    -0.077 N 
ATOM     15  H16 MOL d          31.172  20.032  62.645  0.00  0.00     0.274 HD
ATOM     16  H17 MOL d          30.329  19.719  61.267  0.00  0.00     0.274 HD
ATOM     17  H18 MOL d          30.239  18.679  62.540  0.00  0.00     0.274 HD
ENDBRANCH  13  14
ENDBRANCH  10  13
ENDBRANCH   7  10
ENDBRANCH   5   7
BRANCH   4  18
ATOM     18  N5  MOL d          26.198  15.880  61.506  0.00  0.00    -0.351 N 
ATOM     19  C10 MOL d          27.030  14.854  61.666  0.00  0.00     0.214 C 
ATOM     20  O10 MOL d          27.424  14.478  62.770  0.00  0.00    -0.274 OA
ATOM     21  C11 MOL d          27.513  14.120  60.401  0.00  0.00     0.117 C 
ATOM     22  H12 MOL d          25.937  16.136  60.575  0.00  0.00     0.163 HD
ENDBRANCH   4  18
BRANCH   3  23
ATOM     23  O4  MOL d          23.705  15.296  62.958  0.00  0.00    -0.389 OA
ATOM     24  H13 MOL d          24.063  14.665  62.345  0.00  0.00     0.210 HD
ENDBRANCH   3  23
BRANCH   1  25
ATOM     25  C1  MOL d          23.514  19.724  64.728  0.00  0.00     0.233 C 
ATOM     26  O1B MOL d          22.355  19.620  65.189  0.00  0.00    -0.642 OA
ATOM     27  O1A MOL d          24.217  20.742  64.923  0.00  0.00    -0.642 OA
ENDBRANCH   1  25
TORSDOF 9
