REMARK  6 active torsions:
REMARK  status: ('A' for Active; 'I' for Inactive)
REMARK    1  A    between atoms: C5_2  and  C51_4 
REMARK    2  A    between atoms: C4_5  and  C41_7 
REMARK    3  A    between atoms: C2_9  and  C21_10 
REMARK    4  A    between atoms: C24_25  and  C30_26 
REMARK    5  A    between atoms: C26_30  and  O27_31 
REMARK    6  A    between atoms: O27_31  and  C28_32 
ROOT
ATOM      1  N1  I31 d          -3.659   5.032  -0.045  0.00  0.00    -0.358 N 
ATOM      2  C5  I31 d          -3.658   3.911  -0.998  0.00  0.00     0.086 C 
ATOM      3  C57 I31 d          -3.386   4.398  -2.430  0.00  0.00     0.047 C 
ATOM      4  C4  I31 d          -2.476   3.049  -0.444  0.00  0.00     0.108 C 
ATOM      5  C47 I31 d          -1.168   3.438  -1.149  0.00  0.00     0.049 C 
ATOM      6  N3  I31 d          -2.395   3.476   0.940  0.00  0.00    -0.254 NA
ATOM      7  C2  I31 d          -2.939   4.629   1.071  0.00  0.00     0.133 C 
ATOM      8  H1  I31 d          -4.111   5.947  -0.181  0.00  0.00     0.162 HD
ENDROOT
BRANCH   7   9
ATOM      9  C21 I31 d          -2.813   5.488   2.245  0.00  0.00     0.043 A 
ATOM     10  C22 I31 d          -1.654   5.415   3.017  0.00  0.00     0.018 A 
ATOM     11  C23 I31 d          -1.488   6.233   4.125  0.00  0.00     0.009 A 
ATOM     12  C24 I31 d          -2.482   7.136   4.486  0.00  0.00    -0.048 A 
ATOM     13  C25 I31 d          -3.666   7.224   3.722  0.00  0.00     0.045 A 
ATOM     14  C26 I31 d          -3.812   6.386   2.609  0.00  0.00     0.083 A 
BRANCH  12  15
ATOM     15  C30 I31 d          -2.272   7.998   5.711  0.00  0.00    -0.024 C 
ATOM     16  C32 I31 d          -2.130   7.092   6.941  0.00  0.00     0.019 C 
ATOM     17  C31 I31 d          -3.467   8.934   5.905  0.00  0.00     0.019 C 
ATOM     18  C33 I31 d          -0.992   8.831   5.551  0.00  0.00     0.019 C 
ENDBRANCH  12  15
BRANCH  14  19
ATOM     19  O27 I31 d          -4.966   6.425   1.832  0.00  0.00    -0.350 OA
BRANCH  19  20
ATOM     20  C28 I31 d          -5.984   7.299   2.298  0.00  0.00     0.171 C 
ATOM     21  C29 I31 d          -7.188   7.240   1.344  0.00  0.00     0.034 C 
ENDBRANCH  19  20
ENDBRANCH  14  19
ENDBRANCH   7   9
BRANCH   2  22
ATOM     22  C51 I31 d          -4.988   3.185  -0.896  0.00  0.00    -0.028 A 
ATOM     23  C56 I31 d          -5.805   3.401   0.215  0.00  0.00     0.011 A 
ATOM     24  C55 I31 d          -6.991   2.689   0.369  0.00  0.00     0.024 A 
ATOM     25  C54 I31 d          -7.362   1.758  -0.597  0.00  0.00     0.034 A 
ATOM     26 CL5  I31 d          -8.808   0.803  -0.371  0.00  0.00    -0.084 Cl
ATOM     27  C53 I31 d          -6.582   1.572  -1.741  0.00  0.00     0.024 A 
ATOM     28  C52 I31 d          -5.394   2.287  -1.889  0.00  0.00     0.011 A 
ENDBRANCH   2  22
BRANCH   4  29
ATOM     29  C41 I31 d          -2.690   1.552  -0.541  0.00  0.00    -0.025 A 
ATOM     30  C42 I31 d          -2.093   0.825  -1.581  0.00  0.00     0.011 A 
ATOM     31  C43 I31 d          -2.274  -0.555  -1.666  0.00  0.00     0.024 A 
ATOM     32  C44 I31 d          -3.061  -1.205  -0.716  0.00  0.00     0.034 A 
ATOM     33 CL4  I31 d          -3.330  -2.932  -0.842  0.00  0.00    -0.084 Cl
ATOM     34  C45 I31 d          -3.647  -0.490   0.328  0.00  0.00     0.024 A 
ATOM     35  C46 I31 d          -3.461   0.886   0.414  0.00  0.00     0.011 A 
ENDBRANCH   4  29
TORSDOF 6
