REMARK  5 active torsions:
REMARK  status: ('A' for Active; 'I' for Inactive)
REMARK    1  A    between atoms: N_1  and  CA_2 
REMARK    2  A    between atoms: CA_2  and  C_3 
REMARK    3  A    between atoms: CA_2  and  CB_5 
REMARK    4  A    between atoms: CB_5  and  CG_6 
REMARK    5  A    between atoms: CG_6  and  CD_7 
ROOT
ATOM      1  CA  GLU d          21.455  21.422  18.335  0.00  0.00     0.283 C 
ENDROOT
BRANCH   1   2
ATOM      2  N   GLU d          20.980  21.213  16.941  0.00  0.00    -0.065 N 
ATOM      3  H1  GLU d          20.193  21.817  16.760  0.00  0.00     0.275 HD
ATOM      4  H2  GLU d          20.701  20.252  16.822  0.00  0.00     0.275 HD
ATOM      5  H3  GLU d          21.724  21.429  16.297  0.00  0.00     0.275 HD
ENDBRANCH   1   2
BRANCH   1   6
ATOM      6  C   GLU d          22.645  20.536  18.669  0.00  0.00     0.204 C 
ATOM      7  O   GLU d          23.206  19.891  17.791  0.00  0.00    -0.646 OA
ATOM      8  OXT GLU d          23.068  20.443  19.822  0.00  0.00    -0.646 OA
ENDBRANCH   1   6
BRANCH   1   9
ATOM      9  CB  GLU d          20.310  21.147  19.308  0.00  0.00     0.054 C 
BRANCH   9  10
ATOM     10  CG  GLU d          19.309  22.297  19.387  0.00  0.00     0.116 C 
BRANCH  10  11
ATOM     11  CD  GLU d          19.873  23.500  20.114  0.00  0.00     0.172 C 
ATOM     12  OE1 GLU d          20.829  23.314  20.896  0.00  0.00    -0.648 OA
ATOM     13  OE2 GLU d          19.355  24.626  19.918  0.00  0.00    -0.648 OA
ENDBRANCH  10  11
ENDBRANCH   9  10
ENDBRANCH   1   9
TORSDOF 5
