REMARK  14 active torsions:
REMARK  status: ('A' for Active; 'I' for Inactive)
REMARK    1  A    between atoms: P_1  and  O5'_4 
REMARK    2  A    between atoms: P_1  and  OBB_24 
REMARK    3  A    between atoms: O5'_4  and  C5'_5 
REMARK    4  A    between atoms: C5'_5  and  C4'_6 
REMARK    5  A    between atoms: C3'_8  and  O3'_9 
REMARK    6  A    between atoms: C2'_10  and  O2'_11 
REMARK    7  A    between atoms: C1'_12  and  N9_13 
REMARK    8  A    between atoms: C6_17  and  N6_18 
REMARK    9  A    between atoms: OBB_24  and  CBB_23 
REMARK   10  A    between atoms: CBB_23  and  CAB_25 
REMARK   11  A    between atoms: CAB_25  and  C9B_26 
REMARK   12  A    between atoms: C9B_26  and  C8B_27 
REMARK   13  A    between atoms: C8B_27  and  C7B_28 
REMARK   14  A    between atoms: C7B_28  and  C2B_29 
ROOT
ATOM      1  C5' BTX d          53.786  20.309  18.906  0.00  0.00     0.216 C 
ENDROOT
BRANCH   1   2
ATOM      2  O5' BTX d          54.019  19.033  18.586  0.00  0.00    -0.287 OA
BRANCH   2   3
ATOM      3  P   BTX d          53.202  18.087  17.613  0.00  0.00     0.408 P 
ATOM      4  O1P BTX d          52.970  18.714  16.310  0.00  0.00    -0.624 OA
ATOM      5  O2P BTX d          54.250  17.015  17.803  0.00  0.00    -0.624 OA
BRANCH   3   6
ATOM      6  OBB BTX d          51.859  17.636  18.394  0.00  0.00    -0.286 OA
BRANCH   6   7
ATOM      7  CBB BTX d          50.405  17.452  18.100  0.00  0.00     0.208 C 
BRANCH   7   8
ATOM      8  CAB BTX d          49.950  17.098  19.233  0.00  0.00    -0.004 C 
BRANCH   8   9
ATOM      9  C9B BTX d          49.527  16.698  20.372  0.00  0.00    -0.028 C 
BRANCH   9  10
ATOM     10  C8B BTX d          48.315  16.936  21.155  0.00  0.00     0.028 C 
BRANCH  10  11
ATOM     11  C7B BTX d          48.656  16.932  22.647  0.00  0.00     0.021 C 
BRANCH  11  12
ATOM     12  C2B BTX d          47.427  16.452  23.390  0.00  0.00     0.072 C 
ATOM     13  S1B BTX d          47.263  17.293  24.923  0.00  0.00    -0.160 SA
ATOM     14  C6B BTX d          46.131  15.991  25.239  0.00  0.00     0.101 C 
ATOM     15  C5B BTX d          46.814  14.683  24.887  0.00  0.00     0.119 C 
ATOM     16  N1B BTX d          47.807  14.241  25.840  0.00  0.00    -0.336 N 
ATOM     17  C4B BTX d          47.663  14.979  23.643  0.00  0.00     0.123 C 
ATOM     18  C3B BTX d          49.063  14.289  25.363  0.00  0.00     0.316 C 
ATOM     19  H25 BTX d          47.582  13.930  26.763  0.00  0.00     0.164 HD
ATOM     20  O3B BTX d          50.107  13.932  26.020  0.00  0.00    -0.247 OA
ATOM     21  N2B BTX d          49.041  14.846  24.111  0.00  0.00    -0.335 N 
ATOM     22  H26 BTX d          49.851  15.121  23.593  0.00  0.00     0.164 HD
ENDBRANCH  11  12
ENDBRANCH  10  11
ENDBRANCH   9  10
ENDBRANCH   8   9
ENDBRANCH   7   8
ENDBRANCH   6   7
ENDBRANCH   3   6
ENDBRANCH   2   3
ENDBRANCH   1   2
BRANCH   1  23
ATOM     23  C4' BTX d          54.974  21.216  18.809  0.00  0.00     0.180 C 
ATOM     24  O4' BTX d          54.246  22.478  19.025  0.00  0.00    -0.353 OA
ATOM     25  C1' BTX d          54.893  23.335  19.946  0.00  0.00     0.262 C 
ATOM     26  C2' BTX d          56.258  22.701  20.069  0.00  0.00     0.198 C 
ATOM     27  C3' BTX d          56.060  21.207  19.824  0.00  0.00     0.182 C 
BRANCH  25  28
ATOM     28  N9  BTX d          54.049  23.301  21.166  0.00  0.00    -0.294 N 
ATOM     29  C8  BTX d          54.228  22.597  22.297  0.00  0.00     0.214 A 
ATOM     30  N7  BTX d          53.213  22.926  23.106  0.00  0.00    -0.236 NA
ATOM     31  C5  BTX d          52.399  23.797  22.495  0.00  0.00     0.149 A 
ATOM     32  C6  BTX d          51.193  24.512  22.861  0.00  0.00     0.155 A 
ATOM     33  C4  BTX d          52.953  24.051  21.273  0.00  0.00     0.167 A 
ATOM     34  N1  BTX d          50.677  25.363  21.987  0.00  0.00    -0.222 NA
ATOM     35  C2  BTX d          51.255  25.668  20.707  0.00  0.00     0.237 A 
ATOM     36  N3  BTX d          52.463  24.963  20.442  0.00  0.00    -0.222 NA
BRANCH  32  37
ATOM     37  N6  BTX d          50.563  24.372  24.041  0.00  0.00    -0.382 N 
ATOM     38  H10 BTX d          49.708  24.913  24.236  0.00  0.00     0.157 HD
ATOM     39  H11 BTX d          50.935  23.724  24.750  0.00  0.00     0.157 HD
ENDBRANCH  32  37
ENDBRANCH  25  28
BRANCH  26  40
ATOM     40  O2' BTX d          56.832  23.309  18.922  0.00  0.00    -0.388 OA
ATOM     41  H7  BTX d          57.673  22.907  18.740  0.00  0.00     0.210 HD
ENDBRANCH  26  40
BRANCH  27  42
ATOM     42  O3' BTX d          57.317  20.797  19.334  0.00  0.00    -0.390 OA
ATOM     43  H5  BTX d          57.592  21.385  18.640  0.00  0.00     0.210 HD
ENDBRANCH  27  42
ENDBRANCH   1  23
TORSDOF 14
