REMARK  5 active torsions:
REMARK  status: ('A' for Active; 'I' for Inactive)
REMARK    1  A    between atoms: C11_1  and  C10_4 
REMARK    2  A    between atoms: C10_4  and  C9_5 
REMARK    3  A    between atoms: C9_5  and  C8_6 
REMARK    4  A    between atoms: C8_6  and  C7_7 
REMARK    5  A    between atoms: C7_7  and  C2_8 
ROOT
ATOM      1  C2  BTN d          11.495  20.479  18.797  0.00  0.00     0.072 C 
ATOM      2  S1  BTN d          11.038  20.558  20.583  0.00  0.00    -0.160 SA
ATOM      3  C6  BTN d          11.472  22.332  20.586  0.00  0.00     0.101 C 
ATOM      4  C5  BTN d          10.939  22.904  19.294  0.00  0.00     0.119 A 
ATOM      5  N1  BTN d           9.541  23.311  19.331  0.00  0.00    -0.336 N 
ATOM      6  C3  BTN d           8.777  22.591  18.506  0.00  0.00     0.316 A 
ATOM      7  O3  BTN d           7.546  22.702  18.298  0.00  0.00    -0.247 OA
ATOM      8  N2  BTN d           9.572  21.711  17.852  0.00  0.00    -0.335 N 
ATOM      9  C4  BTN d          10.955  21.770  18.232  0.00  0.00     0.123 A 
ATOM     10  H13 BTN d           9.192  24.048  19.910  0.00  0.00     0.164 HD
ATOM     11  H14 BTN d           9.225  21.074  17.163  0.00  0.00     0.164 HD
ENDROOT
BRANCH   1  12
ATOM     12  C7  BTN d          11.133  19.159  18.118  0.00  0.00     0.017 C 
BRANCH  12  13
ATOM     13  C8  BTN d          11.876  17.930  18.678  0.00  0.00     0.002 C 
BRANCH  13  14
ATOM     14  C9  BTN d          11.578  16.594  18.018  0.00  0.00     0.010 C 
BRANCH  14  15
ATOM     15  C10 BTN d          12.411  15.494  18.705  0.00  0.00     0.113 C 
BRANCH  15  16
ATOM     16  C11 BTN d          13.823  15.472  18.248  0.00  0.00     0.172 C 
ATOM     17  O12 BTN d          14.754  15.009  18.972  0.00  0.00    -0.648 OA
ATOM     18  O11 BTN d          14.045  15.921  17.092  0.00  0.00    -0.648 OA
ENDBRANCH  15  16
ENDBRANCH  14  15
ENDBRANCH  13  14
ENDBRANCH  12  13
ENDBRANCH   1  12
TORSDOF 5
