REMARK  9 active torsions:
REMARK  status: ('A' for Active; 'I' for Inactive)
REMARK    1  A    between atoms: C4_7  and  S_1 
REMARK    2  A    between atoms: S_1  and  N3S_27 
REMARK       I    between atoms: N'_2  and  C7_10 
REMARK    3  A    between atoms: C1'_22  and  N'_2 
REMARK    4  A    between atoms: C7_10  and  C1_4 
REMARK    5  A    between atoms: C2'_24  and  C1'_22 
REMARK    6  A    between atoms: C3'_26  and  C2'_24 
REMARK    7  A    between atoms: C4'_28  and  C3'_26 
REMARK    8  A    between atoms: C5'_29  and  C4'_28 
REMARK    9  A    between atoms: C5'_29  and  C6'_30 
ROOT
ATOM      1  C1' RZ7 d          18.901   6.843  12.698  0.00  0.00     0.208 C 
ENDROOT
BRANCH   1   2
ATOM      2  N'  RZ7 d          18.370   5.722  13.482  0.00  0.00    -0.351 N 
ATOM      3  C7  RZ7 d          17.093   5.718  13.835  0.00  0.00     0.251 C 
ATOM      4  O'  RZ7 d          16.339   6.684  13.558  0.00  0.00    -0.268 OA
ATOM      5  H1  RZ7 d          18.968   4.966  13.748  0.00  0.00     0.162 HD
BRANCH   3   6
ATOM      6  C1  RZ7 d          16.590   4.564  14.610  0.00  0.00     0.032 A 
ATOM      7  C3  RZ7 d          17.496   3.610  15.065  0.00  0.00     0.018 A 
ATOM      8  C2  RZ7 d          17.048   2.493  15.810  0.00  0.00     0.026 A 
ATOM      9  C4  RZ7 d          15.660   2.275  16.041  0.00  0.00     0.079 A 
ATOM     10  C6  RZ7 d          14.787   3.273  15.566  0.00  0.00     0.026 A 
ATOM     11  C5  RZ7 d          15.203   4.382  14.829  0.00  0.00     0.018 A 
BRANCH   9  12
ATOM     12  S   RZ7 d          15.051   0.948  16.888  0.00  0.00     0.256 S 
ATOM     13  O1S RZ7 d          13.624   0.943  16.779  0.00  0.00    -0.201 OA
ATOM     14  O2S RZ7 d          15.597   1.027  18.247  0.00  0.00    -0.201 OA
BRANCH  12  15
ATOM     15  N3S RZ7 d          15.675  -0.349  16.217  0.00  0.00    -0.324 N 
ATOM     16  H8  RZ7 d          15.443  -1.255  16.570  0.00  0.00     0.169 HD
ATOM     17  H9  RZ7 d          16.300  -0.259  15.442  0.00  0.00     0.169 HD
ENDBRANCH  12  15
ENDBRANCH   9  12
ENDBRANCH   3   6
ENDBRANCH   1   2
BRANCH   1  18
ATOM     18  C2' RZ7 d          19.529   7.847  13.655  0.00  0.00     0.329 C 
ATOM     19  F2' RZ7 d          20.534   7.261  14.299  0.00  0.00    -0.198 F 
ATOM     20  F2' RZ7 d          18.702   8.275  14.563  0.00  0.00    -0.198 F 
BRANCH  18  21
ATOM     21  C3' RZ7 d          19.905   9.107  12.893  0.00  0.00     0.380 C 
ATOM     22  F3' RZ7 d          18.846   9.517  12.136  0.00  0.00    -0.192 F 
ATOM     23  F3' RZ7 d          20.862   8.805  11.973  0.00  0.00    -0.192 F 
BRANCH  21  24
ATOM     24  C4' RZ7 d          20.268  10.176  14.001  0.00  0.00     0.387 C 
ATOM     25  F4' RZ7 d          20.745   9.802  15.258  0.00  0.00    -0.192 F 
ATOM     26  F4' RZ7 d          19.238  11.039  14.017  0.00  0.00    -0.192 F 
BRANCH  24  27
ATOM     27  C5' RZ7 d          21.549  10.762  13.545  0.00  0.00     0.409 C 
ATOM     28  F5' RZ7 d          21.189  11.328  12.368  0.00  0.00    -0.189 F 
ATOM     29  F5' RZ7 d          22.247   9.579  13.624  0.00  0.00    -0.189 F 
BRANCH  27  30
ATOM     30  C6' RZ7 d          22.202  11.790  14.523  0.00  0.00     0.461 C 
ATOM     31  F6' RZ7 d          22.957  11.252  15.526  0.00  0.00    -0.165 F 
ATOM     32  F6' RZ7 d          21.240  12.594  14.999  0.00  0.00    -0.165 F 
ATOM     33  F6' RZ7 d          23.024  12.506  13.778  0.00  0.00    -0.165 F 
ENDBRANCH  27  30
ENDBRANCH  24  27
ENDBRANCH  21  24
ENDBRANCH  18  21
ENDBRANCH   1  18
TORSDOF 9
