REMARK  6 active torsions:
REMARK  status: ('A' for Active; 'I' for Inactive)
REMARK    1  A    between atoms: N3_3  and  C10_10 
REMARK    2  A    between atoms: C6_6  and  C8_8 
REMARK    3  A    between atoms: C10_10  and  C14_14 
REMARK    4  A    between atoms: C16_16  and  C21_21 
REMARK       I    between atoms: C21_21  and  N23_23 
REMARK    5  A    between atoms: N23_23  and  C24_24 
REMARK    6  A    between atoms: C24_24  and  C25_25 
ROOT
ATOM      1  C14 MOL d          36.233  61.467  42.322  0.00  0.00    -0.035 A 
ATOM      2  C15 MOL d          36.374  60.953  43.606  0.00  0.00     0.026 A 
ATOM      3  C16 MOL d          37.626  60.841  44.180  0.00  0.00     0.035 A 
ATOM      4  C17 MOL d          38.737  61.249  43.475  0.00  0.00     0.059 A 
ATOM      5  C18 MOL d          38.598  61.737  42.192  0.00  0.00     0.117 A 
ATOM      6  C19 MOL d          37.354  61.851  41.605  0.00  0.00     0.051 A 
ATOM      7  F20 MOL d          39.714  62.108  41.547  0.00  0.00    -0.206 F 
ENDROOT
BRANCH   1   8
ATOM      8  C10 MOL d          34.891  61.615  41.668  0.00  0.00     0.189 C 
BRANCH   8   9
ATOM      9  N3  MOL d          33.911  60.602  42.015  0.00  0.00    -0.147 N 
ATOM     10  C2  MOL d          34.124  59.316  41.553  0.00  0.00     0.240 C 
ATOM     11  C1  MOL d          33.098  58.278  41.927  0.00  0.00     0.135 C 
ATOM     12  O11 MOL d          35.105  58.982  40.915  0.00  0.00    -0.272 OA
ATOM     13  C6  MOL d          32.370  58.541  43.235  0.00  0.00     0.054 C 
ATOM     14  N5  MOL d          31.958  59.924  43.190  0.00  0.00    -0.217 N 
ATOM     15  C7  MOL d          31.061  57.758  43.223  0.00  0.00     0.040 C 
ATOM     16  C4  MOL d          32.721  60.936  42.657  0.00  0.00     0.677 C 
ATOM     17  H3  MOL d          31.037  60.167  43.581  0.00  0.00     0.178 HD
ATOM     18  N9  MOL d          32.323  62.162  42.709  0.00  0.00    -0.234 N 
ATOM     19  H8  MOL d          32.905  62.910  42.306  0.00  0.00     0.174 HD
ATOM     20  H9  MOL d          31.423  62.393  43.154  0.00  0.00     0.174 HD
BRANCH  13  21
ATOM     21  C8  MOL d          33.243  58.234  44.473  0.00  0.00     0.006 C 
ATOM     22  C12 MOL d          32.704  58.858  45.756  0.00  0.00     0.012 C 
ATOM     23  C13 MOL d          33.464  56.737  44.722  0.00  0.00     0.012 C 
ENDBRANCH  13  21
ENDBRANCH   8   9
ENDBRANCH   1   8
BRANCH   3  24
ATOM     24  C21 MOL d          37.850  60.347  45.559  0.00  0.00     0.252 C 
ATOM     25  O22 MOL d          38.984  60.061  45.936  0.00  0.00    -0.268 OA
ATOM     26  N23 MOL d          36.738  60.290  46.372  0.00  0.00    -0.349 N 
ATOM     27  H21 MOL d          35.851  60.606  46.035  0.00  0.00     0.163 HD
BRANCH  26  28
ATOM     28  C24 MOL d          36.865  59.766  47.727  0.00  0.00     0.114 C 
ATOM     29  C31 MOL d          35.597  60.090  48.492  0.00  0.00     0.037 C 
BRANCH  28  30
ATOM     30  C25 MOL d          37.091  58.279  47.740  0.00  0.00    -0.036 A 
ATOM     31  C26 MOL d          37.845  57.712  48.756  0.00  0.00     0.009 A 
ATOM     32  C27 MOL d          38.055  56.348  48.769  0.00  0.00     0.001 A 
ATOM     33  C28 MOL d          37.528  55.527  47.784  0.00  0.00     0.000 A 
ATOM     34  C29 MOL d          36.791  56.085  46.757  0.00  0.00     0.001 A 
ATOM     35  C30 MOL d          36.579  57.455  46.742  0.00  0.00     0.009 A 
ENDBRANCH  28  30
ENDBRANCH  26  28
ENDBRANCH   3  24
TORSDOF 6
