REMARK  6 active torsions:
REMARK  status: ('A' for Active; 'I' for Inactive)
REMARK    1  A    between atoms: P_2  and  O5'_5 
REMARK    2  A    between atoms: O5'_5  and  C5'_6 
REMARK    3  A    between atoms: C5'_6  and  C4'_7 
REMARK    4  A    between atoms: C3'_9  and  O3'_10 
REMARK    5  A    between atoms: C2'_11  and  O2'_12 
REMARK    6  A    between atoms: C1'_13  and  N1_14 
ROOT
ATOM      1  C4' MOL d          39.058  37.929  37.471  0.00  0.00     0.180 C 
ATOM      2  O4' MOL d          39.990  38.633  38.308  0.00  0.00    -0.353 OA
ATOM      3  C3' MOL d          38.476  38.977  36.546  0.00  0.00     0.182 C 
ATOM      4  C2' MOL d          39.602  40.015  36.475  0.00  0.00     0.198 C 
ATOM      5  C1' MOL d          40.276  39.894  37.822  0.00  0.00     0.263 C 
ENDROOT
BRANCH   5   6
ATOM      6  N1  MOL d          41.705  40.216  37.935  0.00  0.00    -0.280 N 
ATOM      7  C2  MOL d          42.639  39.497  37.192  0.00  0.00     0.331 A 
ATOM      8  O2  MOL d          42.284  38.614  36.453  0.00  0.00    -0.246 OA
ATOM      9  N3  MOL d          43.961  39.869  37.374  0.00  0.00    -0.275 N 
ATOM     10  C4  MOL d          44.440  40.878  38.214  0.00  0.00     0.250 A 
ATOM     11  H9  MOL d          44.645  39.362  36.849  0.00  0.00     0.173 HD
ATOM     12  O4  MOL d          45.638  41.064  38.254  0.00  0.00    -0.268 OA
ATOM     13  C5  MOL d          43.414  41.567  38.941  0.00  0.00     0.092 A 
ATOM     14  C6  MOL d          42.128  41.237  38.791  0.00  0.00     0.104 A 
ENDBRANCH   5   6
BRANCH   4  15
ATOM     15  O2' MOL d          39.166  41.375  36.259  0.00  0.00    -0.388 OA
ATOM     16  H7  MOL d          38.595  41.640  36.971  0.00  0.00     0.210 HD
ENDBRANCH   4  15
BRANCH   1  17
ATOM     17  C5' MOL d          39.746  36.724  36.878  0.00  0.00     0.217 C 
BRANCH  17  18
ATOM     18  O5' MOL d          38.789  36.063  36.030  0.00  0.00    -0.280 OA
BRANCH  18  19
ATOM     19  P   MOL d          39.118  34.704  35.257  0.00  0.00     0.422 P 
ATOM     20  O3P MOL d          39.180  33.533  36.351  0.00  0.00    -0.617 OA
ATOM     21  O1P MOL d          40.393  34.817  34.432  0.00  0.00    -0.617 OA
ATOM     22  O2P MOL d          37.950  34.472  34.379  0.00  0.00    -0.617 OA
ENDBRANCH  18  19
ENDBRANCH  17  18
ENDBRANCH   1  17
BRANCH   3  23
ATOM     23  O3' MOL d          37.305  39.570  37.097  0.00  0.00    -0.390 OA
ATOM     24  H5  MOL d          36.967  40.221  36.493  0.00  0.00     0.210 HD
ENDBRANCH   3  23
TORSDOF 6
