REMARK  28 active torsions:
REMARK  status: ('A' for Active; 'I' for Inactive)
REMARK    1  A    between atoms: O4_20  and  C1_1 
REMARK    2  A    between atoms: C2_2  and  O2_7 
REMARK    3  A    between atoms: C3_3  and  O3_8 
REMARK    4  A    between atoms: C4_4  and  O4_9 
REMARK    5  A    between atoms: C5_5  and  C6_6 
REMARK    6  A    between atoms: C6_6  and  O6_11 
REMARK    7  A    between atoms: O4H_42  and  C1_12 
REMARK    8  A    between atoms: C2_13  and  O2_18 
REMARK    9  A    between atoms: C3_14  and  O3_19 
REMARK   10  A    between atoms: C4_15  and  O4_20 
REMARK   11  A    between atoms: C5_16  and  C6_17 
REMARK   12  A    between atoms: C6_17  and  O6_22 
REMARK   13  A    between atoms: O4_53  and  C1_23 
REMARK   14  A    between atoms: C2_24  and  O2_29 
REMARK   15  A    between atoms: C3_25  and  O3_30 
REMARK   16  A    between atoms: C4_26  and  N4_32 
REMARK   17  A    between atoms: N4_32  and  C1H_33 
REMARK   18  A    between atoms: C2H_34  and  O2H_40 
REMARK   19  A    between atoms: C3H_35  and  O3H_41 
REMARK   20  A    between atoms: C4H_36  and  O4H_42 
REMARK   21  A    between atoms: C5H_37  and  C7H_39 
REMARK   22  A    between atoms: C7H_39  and  O7H_43 
REMARK   23  A    between atoms: C1_44  and  O1_50 
REMARK   24  A    between atoms: C2_45  and  O2_51 
REMARK   25  A    between atoms: C3_46  and  O3_52 
REMARK   26  A    between atoms: O4_53  and  C4_47 
REMARK   27  A    between atoms: C5_48  and  C6_49 
REMARK   28  A    between atoms: C6_49  and  O6_55 
ROOT
ATOM      1  C1H MOL d           1.280  46.178  15.914  0.00  0.00     0.240 C 
ATOM      2  C2H MOL d           1.892  45.370  17.086  0.00  0.00     0.184 C 
ATOM      3  C3H MOL d           0.900  44.299  17.513  0.00  0.00     0.182 C 
ATOM      4  C4H MOL d          -0.344  44.973  18.152  0.00  0.00     0.187 C 
ATOM      5  C5H MOL d          -0.641  46.346  17.539  0.00  0.00    -0.027 C 
ATOM      6  C6H MOL d          -0.008  46.842  16.443  0.00  0.00     0.016 C 
ENDROOT
BRANCH   1   7
ATOM      7  N4  MOL d           1.126  45.330  14.721  0.00  0.00    -0.056 N 
ATOM      8  H32 MOL d           1.905  45.509  14.107  0.00  0.00     0.278 HD
ATOM      9  H33 MOL d           1.146  44.367  15.017  0.00  0.00     0.278 HD
BRANCH   7  10
ATOM     10  C4  MOL d          -0.116  45.548  13.959  0.00  0.00     0.246 C 
ATOM     11  C3  MOL d           0.042  46.607  12.851  0.00  0.00     0.184 C 
ATOM     12  C2  MOL d          -1.285  46.744  12.096  0.00  0.00     0.204 C 
ATOM     13  C1  MOL d          -1.851  45.388  11.629  0.00  0.00     0.292 C 
ATOM     14  O5  MOL d          -1.811  44.405  12.675  0.00  0.00    -0.351 OA
ATOM     15  C5  MOL d          -0.537  44.238  13.300  0.00  0.00     0.154 C 
ATOM     16  C6  MOL d          -0.672  43.151  14.308  0.00  0.00     0.042 C 
BRANCH  11  17
ATOM     17  O3  MOL d           0.380  47.883  13.355  0.00  0.00    -0.391 OA
ATOM     18  H31 MOL d           0.471  48.494  12.633  0.00  0.00     0.210 HD
ENDBRANCH  11  17
BRANCH  12  19
ATOM     19  O2  MOL d          -1.015  47.607  10.984  0.00  0.00    -0.388 OA
ATOM     20  H30 MOL d          -0.379  47.194  10.412  0.00  0.00     0.210 HD
ENDBRANCH  12  19
BRANCH  13  21
ATOM     21  O4  MOL d          -1.102  44.969  10.494  0.00  0.00    -0.348 OA
BRANCH  21  22
ATOM     22  C4  MOL d          -1.885  44.724   9.354  0.00  0.00     0.187 C 
ATOM     23  C3  MOL d          -1.055  45.274   8.245  0.00  0.00     0.183 C 
ATOM     24  C2  MOL d          -1.770  44.948   6.987  0.00  0.00     0.204 C 
ATOM     25  C1  MOL d          -1.855  43.438   6.913  0.00  0.00     0.288 C 
ATOM     26  O5  MOL d          -2.685  42.963   7.942  0.00  0.00    -0.349 OA
ATOM     27  C5  MOL d          -2.129  43.201   9.218  0.00  0.00     0.180 C 
BRANCH  23  28
ATOM     28  O3  MOL d          -0.881  46.676   8.305  0.00  0.00    -0.390 OA
ATOM     29  H53 MOL d          -0.424  46.903   9.106  0.00  0.00     0.210 HD
ENDBRANCH  23  28
BRANCH  24  30
ATOM     30  O2  MOL d          -1.096  45.490   5.863  0.00  0.00    -0.388 OA
ATOM     31  H52 MOL d          -1.061  46.436   5.942  0.00  0.00     0.210 HD
ENDBRANCH  24  30
BRANCH  25  32
ATOM     32  O1  MOL d          -2.384  43.041   5.687  0.00  0.00    -0.369 OA
ATOM     33  H51 MOL d          -1.828  43.359   4.986  0.00  0.00     0.212 HD
ENDBRANCH  25  32
BRANCH  27  34
ATOM     34  C6  MOL d          -3.118  42.678  10.265  0.00  0.00     0.198 C 
BRANCH  34  35
ATOM     35  O6  MOL d          -4.424  43.209  10.043  0.00  0.00    -0.398 OA
ATOM     36  H54 MOL d          -4.727  42.951   9.181  0.00  0.00     0.209 HD
ENDBRANCH  34  35
ENDBRANCH  27  34
ENDBRANCH  21  22
ENDBRANCH  13  21
ENDBRANCH   7  10
ENDBRANCH   1   7
BRANCH   2  37
ATOM     37  O2H MOL d           3.114  44.766  16.779  0.00  0.00    -0.390 OA
ATOM     38  H41 MOL d           3.430  44.290  17.538  0.00  0.00     0.210 HD
ENDBRANCH   2  37
BRANCH   5  39
ATOM     39  C7H MOL d          -1.659  47.233  18.233  0.00  0.00     0.201 C 
BRANCH  39  40
ATOM     40  O7H MOL d          -0.952  47.989  19.221  0.00  0.00    -0.397 OA
ATOM     41  H43 MOL d          -1.560  48.558  19.678  0.00  0.00     0.209 HD
ENDBRANCH  39  40
ENDBRANCH   5  39
BRANCH   3  42
ATOM     42  O3H MOL d           1.542  43.418  18.416  0.00  0.00    -0.390 OA
ATOM     43  H42 MOL d           2.288  43.015  17.987  0.00  0.00     0.210 HD
ENDBRANCH   3  42
BRANCH   4  44
ATOM     44  O4H MOL d          -1.516  44.170  17.986  0.00  0.00    -0.346 OA
BRANCH  44  45
ATOM     45  C1  MOL d          -1.678  43.206  19.006  0.00  0.00     0.292 C 
ATOM     46  O5  MOL d          -2.428  43.714  20.091  0.00  0.00    -0.348 OA
ATOM     47  C5  MOL d          -3.822  43.925  19.794  0.00  0.00     0.180 C 
ATOM     48  C4  MOL d          -4.451  42.574  19.433  0.00  0.00     0.187 C 
ATOM     49  C3  MOL d          -3.825  42.096  18.149  0.00  0.00     0.183 C 
ATOM     50  C2  MOL d          -2.327  41.937  18.413  0.00  0.00     0.204 C 
BRANCH  47  51
ATOM     51  C6  MOL d          -4.450  44.630  20.981  0.00  0.00     0.198 C 
BRANCH  51  52
ATOM     52  O6  MOL d          -4.436  43.818  22.139  0.00  0.00    -0.398 OA
ATOM     53  H21 MOL d          -4.925  43.021  21.971  0.00  0.00     0.209 HD
ENDBRANCH  51  52
ENDBRANCH  47  51
BRANCH  48  54
ATOM     54  O4  MOL d          -5.835  42.637  19.275  0.00  0.00    -0.348 OA
BRANCH  54  55
ATOM     55  C1  MOL d          -6.447  42.017  20.379  0.00  0.00     0.292 C 
ATOM     56  O5  MOL d          -7.186  42.917  21.102  0.00  0.00    -0.348 OA
ATOM     57  C5  MOL d          -8.221  43.523  20.336  0.00  0.00     0.179 C 
ATOM     58  C4  MOL d          -9.173  42.447  19.767  0.00  0.00     0.180 C 
ATOM     59  C3  MOL d          -8.387  41.393  19.000  0.00  0.00     0.183 C 
ATOM     60  C2  MOL d          -7.295  40.883  19.884  0.00  0.00     0.204 C 
BRANCH  57  61
ATOM     61  C6  MOL d          -8.997  44.417  21.284  0.00  0.00     0.198 C 
BRANCH  61  62
ATOM     62  O6  MOL d          -8.698  45.752  20.937  0.00  0.00    -0.398 OA
ATOM     63  H11 MOL d          -9.170  46.341  21.514  0.00  0.00     0.209 HD
ENDBRANCH  61  62
ENDBRANCH  57  61
BRANCH  58  64
ATOM     64  O4  MOL d         -10.091  43.008  18.868  0.00  0.00    -0.390 OA
ATOM     65  H10 MOL d         -10.669  42.328  18.542  0.00  0.00     0.210 HD
ENDBRANCH  58  64
BRANCH  59  66
ATOM     66  O3  MOL d          -9.247  40.337  18.559  0.00  0.00    -0.390 OA
ATOM     67  H9  MOL d          -9.927  40.696  18.001  0.00  0.00     0.210 HD
ENDBRANCH  59  66
BRANCH  60  68
ATOM     68  O2  MOL d          -6.508  39.978  19.137  0.00  0.00    -0.388 OA
ATOM     69  H8  MOL d          -6.127  40.430  18.394  0.00  0.00     0.210 HD
ENDBRANCH  60  68
ENDBRANCH  54  55
ENDBRANCH  48  54
BRANCH  49  70
ATOM     70  O3  MOL d          -4.349  40.845  17.732  0.00  0.00    -0.390 OA
ATOM     71  H20 MOL d          -5.280  40.933  17.565  0.00  0.00     0.210 HD
ENDBRANCH  49  70
BRANCH  50  72
ATOM     72  O2  MOL d          -1.697  41.677  17.177  0.00  0.00    -0.388 OA
ATOM     73  H19 MOL d          -1.824  42.418  16.596  0.00  0.00     0.210 HD
ENDBRANCH  50  72
ENDBRANCH  44  45
ENDBRANCH   4  44
TORSDOF 28
