REMARK  6 active torsions:
REMARK  status: ('A' for Active; 'I' for Inactive)
REMARK    1  A    between atoms: C1_1  and  N3_15 
REMARK    2  A    between atoms: C2_2  and  S2_16 
REMARK       I    between atoms: C3_3  and  N4_18 
REMARK    3  A    between atoms: C5_19  and  C7_4 
REMARK    4  A    between atoms: C7_4  and  C9_6 
REMARK    5  A    between atoms: N4_18  and  C5_19 
REMARK    6  A    between atoms: C5_19  and  C6_20 
REMARK       I    between atoms: C6_20  and  N5_22 
ROOT
ATOM      1  C5  IN9 d          25.946  44.206  48.672  0.00  0.00     0.181 C 
ENDROOT
BRANCH   1   2
ATOM      2  N4  IN9 d          27.377  44.280  48.484  0.00  0.00    -0.341 N 
ATOM      3  C3  IN9 d          28.069  45.491  48.777  0.00  0.00     0.254 C 
ATOM      4  N3  IN9 d          29.361  45.562  48.413  0.00  0.00    -0.297 N 
ATOM      5  O1  IN9 d          27.450  46.595  49.311  0.00  0.00    -0.151 OA
ATOM      6  H6  IN9 d          29.760  44.730  48.028  0.00  0.00     0.171 HD
ATOM      7  H8  IN9 d          27.880  43.483  48.149  0.00  0.00     0.164 HD
BRANCH   4   8
ATOM      8  C1  IN9 d          30.246  46.717  48.517  0.00  0.00     0.197 A 
ATOM      9  N1  IN9 d          31.416  46.613  47.958  0.00  0.00    -0.122 NA
ATOM     10  N2  IN9 d          32.176  47.751  48.238  0.00  0.00    -0.133 NA
ATOM     11  C2  IN9 d          31.545  48.672  48.984  0.00  0.00     0.157 A 
ATOM     12  S1  IN9 d          29.977  48.166  49.384  0.00  0.00    -0.022 SA
BRANCH  11  13
ATOM     13  S2  IN9 d          32.362  50.230  49.409  0.00  0.00    -0.114 SA
ATOM     14  H7  IN9 d          33.294  50.234  49.026  0.00  0.00     0.109 HD
ENDBRANCH  11  13
ENDBRANCH   4   8
ENDBRANCH   1   2
BRANCH   1  15
ATOM     15  C6  IN9 d          25.707  42.895  49.317  0.00  0.00     0.240 C 
ATOM     16  N5  IN9 d          24.562  42.746  50.168  0.00  0.00    -0.364 N 
ATOM     17  C14 IN9 d          24.363  41.364  50.684  0.00  0.00     0.149 C 
ATOM     18  H10 IN9 d          23.951  43.504  50.395  0.00  0.00     0.161 HD
ATOM     19  O2  IN9 d          26.445  41.968  49.047  0.00  0.00    -0.271 OA
ENDBRANCH   1  15
BRANCH   1  20
ATOM     20  C7  IN9 d          25.258  44.228  47.287  0.00  0.00     0.080 C 
BRANCH  20  21
ATOM     21  C9  IN9 d          25.405  45.558  46.603  0.00  0.00     0.028 A 
ATOM     22  C8  IN9 d          24.533  46.563  46.875  0.00  0.00     0.167 A 
ATOM     23  C13 IN9 d          24.697  47.787  46.257  0.00  0.00     0.197 A 
ATOM     24  F8  IN9 d          23.467  46.435  47.738  0.00  0.00    -0.202 F 
ATOM     25  C12 IN9 d          25.682  47.948  45.329  0.00  0.00     0.199 A 
ATOM     26  F13 IN9 d          23.803  48.823  46.492  0.00  0.00    -0.199 F 
ATOM     27  C11 IN9 d          26.522  46.918  45.024  0.00  0.00     0.197 A 
ATOM     28  F12 IN9 d          25.774  49.133  44.654  0.00  0.00    -0.199 F 
ATOM     29  C10 IN9 d          26.378  45.711  45.645  0.00  0.00     0.167 A 
ATOM     30  F11 IN9 d          27.479  47.134  44.066  0.00  0.00    -0.199 F 
ATOM     31  F10 IN9 d          27.258  44.713  45.351  0.00  0.00    -0.202 F 
ENDBRANCH  20  21
ENDBRANCH   1  20
TORSDOF 6
