REMARK  5 active torsions:
REMARK  status: ('A' for Active; 'I' for Inactive)
REMARK    1  A    between atoms: C03_3  and  S11_11 
REMARK    2  A    between atoms: C06_6  and  C07_7 
REMARK       I    between atoms: C07_7  and  N09_9 
REMARK    3  A    between atoms: N09_9  and  C10_10 
REMARK    4  A    between atoms: C10_10  and  C15_15 
REMARK    5  A    between atoms: S11_11  and  NP2_12 
ROOT
ATOM      1  C07 F6B d          -4.277   5.768  13.697  0.00  0.00     0.251 C 
ATOM      2  O08 F6B d          -5.188   6.553  13.444  0.00  0.00    -0.268 OA
ATOM      3  N09 F6B d          -2.971   6.099  13.219  0.00  0.00    -0.352 N 
ATOM      4  H5  F6B d          -2.248   5.421  13.083  0.00  0.00     0.163 HD
ENDROOT
BRANCH   1   5
ATOM      5  C06 F6B d          -4.702   4.537  14.492  0.00  0.00     0.032 A 
ATOM      6  C01 F6B d          -3.794   3.538  14.855  0.00  0.00     0.018 A 
ATOM      7  C02 F6B d          -4.212   2.399  15.580  0.00  0.00     0.026 A 
ATOM      8  C03 F6B d          -5.588   2.254  15.948  0.00  0.00     0.079 A 
ATOM      9  C04 F6B d          -6.467   3.268  15.578  0.00  0.00     0.026 A 
ATOM     10  C05 F6B d          -6.026   4.381  14.868  0.00  0.00     0.018 A 
BRANCH   8  11
ATOM     11  S11 F6B d          -6.093   0.777  16.853  0.00  0.00     0.256 S 
ATOM     12  O14 F6B d          -5.442   0.954  18.154  0.00  0.00    -0.201 OA
ATOM     13  O13 F6B d          -7.534   0.956  16.979  0.00  0.00    -0.201 OA
BRANCH  11  14
ATOM     14  NP2 F6B d          -5.612  -0.601  16.010  0.00  0.00    -0.324 N 
ATOM     15  H8  F6B d          -5.816  -1.508  16.377  0.00  0.00     0.169 HD
ATOM     16  H9  F6B d          -5.123  -0.511  15.143  0.00  0.00     0.169 HD
ENDBRANCH  11  14
ENDBRANCH   8  11
ENDBRANCH   1   5
BRANCH   3  17
ATOM     17  C10 F6B d          -2.794   7.534  12.947  0.00  0.00     0.167 C 
BRANCH  17  18
ATOM     18  C15 F6B d          -1.692   8.262  13.436  0.00  0.00     0.037 A 
ATOM     19  C20 F6B d          -1.863   9.128  14.592  0.00  0.00     0.127 A 
ATOM     20  C19 F6B d          -0.756   9.867  15.090  0.00  0.00     0.043 A 
ATOM     21  F22 F6B d          -3.047   9.252  15.207  0.00  0.00    -0.205 F 
ATOM     22  C18 F6B d           0.528   9.752  14.446  0.00  0.00     0.006 A 
ATOM     23  C17 F6B d           0.697   8.886  13.294  0.00  0.00     0.043 A 
ATOM     24  C16 F6B d          -0.424   8.131  12.778  0.00  0.00     0.127 A 
ATOM     25  F21 F6B d          -0.275   7.330  11.714  0.00  0.00    -0.205 F 
ENDBRANCH  17  18
ENDBRANCH   3  17
TORSDOF 5
