REMARK  10 active torsions:
REMARK  status: ('A' for Active; 'I' for Inactive)
REMARK    1  A    between atoms: N2_1  and  C1_2 
REMARK    2  A    between atoms: C1_2  and  C6_3 
REMARK    3  A    between atoms: C1_2  and  C2_10 
REMARK    4  A    between atoms: C6_3  and  C7_4 
REMARK    5  A    between atoms: C2_10  and  O2_11 
REMARK    6  A    between atoms: C2_10  and  C3_12 
REMARK       I    between atoms: C3_12  and  N1_14 
REMARK    7  A    between atoms: N1_14  and  C4_15 
REMARK    8  A    between atoms: C4_15  and  C13_16 
REMARK    9  A    between atoms: C4_15  and  C5_20 
REMARK   10  A    between atoms: C13_16  and  C14_17 
ROOT
ATOM      1  C2  BES d          13.513  12.194  11.133  0.00  0.00     0.240 C 
ENDROOT
BRANCH   1   2
ATOM      2  C1  BES d          12.596  12.044  12.350  0.00  0.00     0.225 C 
BRANCH   2   3
ATOM      3  N2  BES d          11.306  12.689  12.139  0.00  0.00    -0.072 N 
ATOM      4  H1  BES d          10.732  12.569  12.959  0.00  0.00     0.274 HD
ATOM      5  H2  BES d          10.848  12.271  11.344  0.00  0.00     0.274 HD
ATOM      6  H3  BES d          11.446  13.672  11.968  0.00  0.00     0.274 HD
ENDBRANCH   2   3
BRANCH   2   7
ATOM      7  C6  BES d          13.284  12.649  13.571  0.00  0.00     0.074 C 
BRANCH   7   8
ATOM      8  C7  BES d          12.989  11.941  14.879  0.00  0.00    -0.056 A 
ATOM      9  C8  BES d          12.234  12.602  15.850  0.00  0.00     0.007 A 
ATOM     10  C9  BES d          11.964  11.977  17.070  0.00  0.00     0.001 A 
ATOM     11  C10 BES d          12.451  10.695  17.325  0.00  0.00     0.000 A 
ATOM     12  C11 BES d          13.219  10.033  16.365  0.00  0.00     0.001 A 
ATOM     13  C12 BES d          13.489  10.660  15.141  0.00  0.00     0.007 A 
ENDBRANCH   7   8
ENDBRANCH   2   7
ENDBRANCH   1   2
BRANCH   1  14
ATOM     14  O2  BES d          12.805  12.527   9.936  0.00  0.00    -0.384 OA
ATOM     15  H13 BES d          12.176  11.842   9.741  0.00  0.00     0.210 HD
ENDBRANCH   1  14
BRANCH   1  16
ATOM     16  C3  BES d          14.197  10.889  10.879  0.00  0.00     0.249 C 
ATOM     17  O3  BES d          13.553   9.926  10.499  0.00  0.00    -0.271 OA
ATOM     18  N1  BES d          15.504  10.890  11.081  0.00  0.00    -0.344 N 
ATOM     19  H14 BES d          15.933  11.748  11.363  0.00  0.00     0.163 HD
BRANCH  18  20
ATOM     20  C4  BES d          16.358   9.722  10.919  0.00  0.00     0.185 C 
BRANCH  20  21
ATOM     21  C13 BES d          17.128   9.922   9.613  0.00  0.00     0.040 C 
BRANCH  21  22
ATOM     22  C14 BES d          17.191   8.681   8.715  0.00  0.00    -0.020 C 
ATOM     23  C15 BES d          15.930   7.819   8.724  0.00  0.00     0.009 C 
ATOM     24  C16 BES d          17.519   9.063   7.279  0.00  0.00     0.009 C 
ENDBRANCH  21  22
ENDBRANCH  20  21
BRANCH  20  25
ATOM     25  C5  BES d          17.276   9.720  12.100  0.00  0.00     0.196 C 
ATOM     26  O1  BES d          17.843   8.668  12.474  0.00  0.00    -0.646 OA
ATOM     27  O4  BES d          17.409  10.810  12.684  0.00  0.00    -0.646 OA
ENDBRANCH  20  25
ENDBRANCH  18  20
ENDBRANCH   1  16
TORSDOF 10
