REMARK  6 active torsions:
REMARK  status: ('A' for Active; 'I' for Inactive)
REMARK    1  A    between atoms: N19_3  and  C23_4 
REMARK    2  A    between atoms: C23_4  and  C24_5 
REMARK    3  A    between atoms: C17_12  and  C18_30 
REMARK    4  A    between atoms: C10_19  and  C7_20 
REMARK    5  A    between atoms: C4_23  and  C3_26 
REMARK    6  A    between atoms: C3_26  and  N1_27 
ROOT
ATOM      1  O21 F25 d          16.864 -12.817  22.565  0.00  0.00    -0.273 OA
ATOM      2  C20 F25 d          17.504 -12.527  21.609  0.00  0.00     0.227 C 
ATOM      3  N19 F25 d          18.548 -13.281  21.236  0.00  0.00    -0.337 N 
ATOM      4  C17 F25 d          19.115 -12.873  19.957  0.00  0.00     0.159 C 
ATOM      5  C16 F25 d          18.101 -11.830  19.441  0.00  0.00     0.060 C 
ATOM      6  C15 F25 d          17.126 -12.382  18.415  0.00  0.00     0.196 C 
ATOM      7  N11 F25 d          15.805 -12.324  19.069  0.00  0.00    -0.057 N 
ATOM      8  C12 F25 d          14.758 -12.093  18.053  0.00  0.00     0.236 C 
ATOM      9  C13 F25 d          15.507 -11.904  16.745  0.00  0.00     0.030 C 
ATOM     10  C14 F25 d          16.962 -11.631  17.105  0.00  0.00     0.035 C 
ATOM     11  C10 F25 d          15.898 -11.223  20.056  0.00  0.00     0.235 C 
ATOM     12  C22 F25 d          17.284 -11.392  20.653  0.00  0.00     0.121 C 
ATOM     13  H10 F25 d          15.612 -13.191  19.545  0.00  0.00     0.281 HD
ENDROOT
BRANCH  11  14
ATOM     14  C7  F25 d          14.755 -11.193  21.013  0.00  0.00    -0.027 A 
ATOM     15  C8  F25 d          13.999 -12.307  21.323  0.00  0.00     0.010 A 
ATOM     16  C9  F25 d          12.954 -12.212  22.237  0.00  0.00     0.016 A 
ATOM     17  C4  F25 d          12.625 -10.995  22.823  0.00  0.00     0.007 A 
ATOM     18  C5  F25 d          13.374  -9.890  22.515  0.00  0.00     0.016 A 
ATOM     19  C6  F25 d          14.429  -9.988  21.612  0.00  0.00     0.010 A 
BRANCH  17  20
ATOM     20  C3  F25 d          11.479 -10.930  23.782  0.00  0.00     0.102 C 
ATOM     21  N2  F25 d          11.197  -9.819  24.440  0.00  0.00    -0.385 N 
ATOM     22  H24 F25 d          11.759  -8.970  24.282  0.00  0.00     0.157 HD
ATOM     23  H25 F25 d          10.415  -9.802  25.110  0.00  0.00     0.157 HD
BRANCH  20  24
ATOM     24  N1  F25 d          10.700 -11.988  24.045  0.00  0.00    -0.385 N 
ATOM     25  H22 F25 d           9.921 -11.900  24.713  0.00  0.00     0.157 HD
ATOM     26  H23 F25 d          10.881 -12.889  23.580  0.00  0.00     0.157 HD
ENDBRANCH  20  24
ENDBRANCH  17  20
ENDBRANCH  11  14
BRANCH   3  27
ATOM     27  C23 F25 d          18.959 -14.528  21.874  0.00  0.00     0.165 C 
BRANCH  27  28
ATOM     28  C24 F25 d          19.866 -14.279  23.046  0.00  0.00    -0.040 A 
ATOM     29  C32 F25 d          21.252 -14.356  22.899  0.00  0.00     0.012 A 
ATOM     30  C31 F25 d          22.104 -14.121  23.965  0.00  0.00     0.043 A 
ATOM     31  C30 F25 d          21.567 -13.799  25.198  0.00  0.00     0.116 A 
ATOM     32  F29 F25 d          22.366 -13.566  26.257  0.00  0.00    -0.206 F 
ATOM     33  C26 F25 d          20.191 -13.740  25.373  0.00  0.00     0.043 A 
ATOM     34  C25 F25 d          19.353 -13.974  24.304  0.00  0.00     0.012 A 
ENDBRANCH  27  28
ENDBRANCH   3  27
BRANCH   4  35
ATOM     35  C18 F25 d          20.481 -12.237  20.126  0.00  0.00     0.376 C 
ATOM     36  F33 F25 d          20.958 -11.879  18.894  0.00  0.00    -0.212 F 
ATOM     37  F32 F25 d          20.445 -11.085  20.857  0.00  0.00    -0.212 F 
ENDBRANCH   4  35
TORSDOF 6
