REMARK  4 active torsions:
REMARK  status: ('A' for Active; 'I' for Inactive)
REMARK    1  A    between atoms: C12_17  and  C13_1 
REMARK       I    between atoms: C13_1  and  N14_18 
REMARK    2  A    between atoms: N14_18  and  C15_2 
REMARK    3  A    between atoms: N11_16  and  C07_12 
REMARK    4  A    between atoms: C08_13  and  N10_15 
REMARK       I    between atoms: N11_16  and  C12_17 
ROOT
ATOM      1  N11 MOL d          27.518 -14.701  36.472  0.00  0.00    -0.342 N 
ATOM      2  C12 MOL d          28.034 -15.065  37.702  0.00  0.00     0.310 C 
ATOM      3  O17 MOL d          29.162 -15.564  37.822  0.00  0.00    -0.262 OA
ATOM      4  H13 MOL d          26.588 -14.334  36.461  0.00  0.00     0.163 HD
ENDROOT
BRANCH   1   5
ATOM      5  C07 MOL d          28.211 -14.803  35.175  0.00  0.00     0.149 C 
ATOM      6  C03 MOL d          27.457 -14.321  33.932  0.00  0.00    -0.027 A 
ATOM      7  C02 MOL d          26.489 -14.960  33.172  0.00  0.00     0.010 A 
ATOM      8  C04 MOL d          27.840 -13.014  33.557  0.00  0.00    -0.048 A 
ATOM      9  C01 MOL d          25.912 -14.333  32.059  0.00  0.00     0.001 A 
ATOM     10  C06 MOL d          26.297 -13.046  31.692  0.00  0.00     0.001 A 
ATOM     11  C05 MOL d          27.272 -12.380  32.450  0.00  0.00     0.008 A 
ATOM     12  C09 MOL d          28.888 -12.510  34.498  0.00  0.00     0.074 C 
ATOM     13  C08 MOL d          29.417 -13.781  35.231  0.00  0.00     0.214 C 
BRANCH  13  14
ATOM     14  N10 MOL d          30.598 -14.352  34.574  0.00  0.00    -0.072 N 
ATOM     15  H10 MOL d          30.903 -15.168  35.081  0.00  0.00     0.274 HD
ATOM     16  H11 MOL d          31.339 -13.668  34.561  0.00  0.00     0.274 HD
ATOM     17  H12 MOL d          30.364 -14.612  33.629  0.00  0.00     0.274 HD
ENDBRANCH  13  14
ENDBRANCH   1   5
BRANCH   2  18
ATOM     18  C13 MOL d          27.183 -14.866  38.999  0.00  0.00     0.313 C 
ATOM     19  N14 MOL d          27.597 -15.222  40.303  0.00  0.00    -0.319 N 
ATOM     20  H14 MOL d          28.493 -15.658  40.385  0.00  0.00     0.169 HD
ATOM     21  O16 MOL d          26.067 -14.370  38.806  0.00  0.00    -0.262 OA
BRANCH  19  22
ATOM     22  C15 MOL d          26.859 -15.022  41.533  0.00  0.00     0.038 A 
ATOM     23  C22 MOL d          25.470 -14.804  41.534  0.00  0.00     0.073 A 
ATOM     24  C21 MOL d          24.785 -14.585  42.736  0.00  0.00     0.140 A 
ATOM     25  C20 MOL d          25.443 -14.553  43.953  0.00  0.00     0.072 A 
ATOM     26  F24 MOL d          23.471 -14.404  42.710  0.00  0.00    -0.204 F 
ATOM     27  C19 MOL d          26.814 -14.747  43.972  0.00  0.00     0.029 A 
ATOM     28 CL   MOL d          24.555 -14.266  45.371  0.00  0.00    -0.081 Cl
ATOM     29  C18 MOL d          27.516 -14.970  42.793  0.00  0.00     0.031 A 
ENDBRANCH  19  22
ENDBRANCH   2  18
TORSDOF 4
