REMARK  4 active torsions:
REMARK  status: ('A' for Active; 'I' for Inactive)
REMARK    1  A    between atoms: C1_1  and  C2_2 
REMARK       I    between atoms: C1_1  and  N2_3 
REMARK    2  A    between atoms: C2_2  and  O1P_6 
REMARK    3  A    between atoms: N2_3  and  O2_4 
REMARK    4  A    between atoms: O1P_6  and  P_10 
ROOT
ATOM      1  C1  PGH d         -24.805  15.214  57.134  0.00  0.00     0.265 C 
ATOM      2  N2  PGH d         -24.369  14.071  57.579  0.00  0.00    -0.236 N 
ATOM      3  O1  PGH d         -24.311  16.316  57.108  0.00  0.00    -0.269 OA
ATOM      4  H3  PGH d         -24.868  13.205  57.548  0.00  0.00     0.197 HD
ENDROOT
BRANCH   1   5
ATOM      5  C2  PGH d         -26.338  14.926  56.497  0.00  0.00     0.287 C 
BRANCH   5   6
ATOM      6  O1P PGH d         -27.234  15.610  57.530  0.00  0.00    -0.273 OA
BRANCH   6   7
ATOM      7  P   PGH d         -28.803  15.522  57.266  0.00  0.00     0.422 P 
ATOM      8  O2P PGH d         -29.469  15.860  58.526  0.00  0.00    -0.617 OA
ATOM      9  O3P PGH d         -29.109  14.104  56.915  0.00  0.00    -0.617 OA
ATOM     10  O4P PGH d         -29.115  16.500  56.080  0.00  0.00    -0.617 OA
ENDBRANCH   6   7
ENDBRANCH   5   6
ENDBRANCH   1   5
BRANCH   2  11
ATOM     11  O2  PGH d         -23.036  14.263  58.128  0.00  0.00    -0.287 OA
ATOM     12  H4  PGH d         -22.458  14.587  57.447  0.00  0.00     0.244 HD
ENDBRANCH   2  11
TORSDOF 4
