REMARK  5 active torsions:
REMARK  status: ('A' for Active; 'I' for Inactive)
REMARK    1  A    between atoms: S_1  and  C1_2 
REMARK    2  A    between atoms: C1_2  and  C2_3 
REMARK    3  A    between atoms: C2_3  and  C3_4 
REMARK       I    between atoms: C3_4  and  N4_6 
REMARK    4  A    between atoms: N4_6  and  C5_7 
REMARK    5  A    between atoms: C5_7  and  C6_9 
ROOT
ATOM      1  C3  I38 d          12.423  28.464  31.465  0.00  0.00     0.219 C 
ATOM      2  O3  I38 d          12.971  27.401  31.411  0.00  0.00    -0.274 OA
ATOM      3  N4  I38 d          11.741  28.891  32.540  0.00  0.00    -0.347 N 
ATOM      4  H6  I38 d          11.372  29.820  32.499  0.00  0.00     0.163 HD
ENDROOT
BRANCH   3   5
ATOM      5  C5  I38 d          11.484  28.132  33.766  0.00  0.00     0.181 C 
ATOM      6  C51 I38 d           9.969  28.044  33.945  0.00  0.00     0.043 C 
BRANCH   5   7
ATOM      7  C6  I38 d          12.134  28.730  35.006  0.00  0.00     0.196 C 
ATOM      8  O62 I38 d          12.523  29.938  34.939  0.00  0.00    -0.646 OA
ATOM      9  O61 I38 d          12.267  28.022  36.060  0.00  0.00    -0.646 OA
ENDBRANCH   5   7
ENDBRANCH   3   5
BRANCH   1  10
ATOM     10  C2  I38 d          12.545  29.345  30.237  0.00  0.00     0.112 C 
BRANCH  10  11
ATOM     11  C1  I38 d          13.523  30.494  30.448  0.00  0.00     0.080 C 
BRANCH  11  12
ATOM     12  S   I38 d          12.982  31.508  31.664  0.00  0.00    -0.182 SA
ATOM     13  H1  I38 d          13.640  32.261  31.790  0.00  0.00     0.101 HD
ENDBRANCH  11  12
ENDBRANCH  10  11
ENDBRANCH   1  10
TORSDOF 5
