REMARK  12 active torsions:
REMARK  status: ('A' for Active; 'I' for Inactive)
REMARK    1  A    between atoms: O12_1  and  C12_2 
REMARK    2  A    between atoms: C13_3  and  O13_4 
REMARK    3  A    between atoms: C14_5  and  O14_6 
REMARK    4  A    between atoms: C15_7  and  C16_8 
REMARK    5  A    between atoms: C16_8  and  O16_9 
REMARK    6  A    between atoms: C11_11  and  S22_12 
REMARK    7  A    between atoms: S22_12  and  C22_13 
REMARK    8  A    between atoms: C21_14  and  O21_15 
REMARK    9  A    between atoms: C23_18  and  O23_19 
REMARK   10  A    between atoms: C24_20  and  O24_21 
REMARK   11  A    between atoms: C25_22  and  C26_23 
REMARK   12  A    between atoms: C26_23  and  O26_24 
ROOT
ATOM      1  S22 SMD d         -28.702 -12.906 -11.482  0.00  0.00    -0.122 SA
ENDROOT
BRANCH   1   2
ATOM      2  C11 SMD d         -29.020 -13.411 -13.205  0.00  0.00     0.215 C 
ATOM      3  C12 SMD d         -27.643 -13.511 -13.912  0.00  0.00     0.188 C 
ATOM      4  C13 SMD d         -27.558 -12.620 -15.135  0.00  0.00     0.181 C 
ATOM      5  C14 SMD d         -28.089 -11.229 -14.810  0.00  0.00     0.180 C 
ATOM      6  C15 SMD d         -29.551 -11.292 -14.345  0.00  0.00     0.178 C 
ATOM      7  O15 SMD d         -29.966 -12.603 -13.910  0.00  0.00    -0.363 OA
BRANCH   3   8
ATOM      8  O12 SMD d         -27.373 -14.844 -14.344  0.00  0.00    -0.389 OA
ATOM      9  H1  SMD d         -28.017 -15.102 -14.992  0.00  0.00     0.210 HD
ENDBRANCH   3   8
BRANCH   4  10
ATOM     10  O13 SMD d         -28.301 -13.216 -16.205  0.00  0.00    -0.390 OA
ATOM     11  H4  SMD d         -27.936 -14.070 -16.406  0.00  0.00     0.210 HD
ENDBRANCH   4  10
BRANCH   5  12
ATOM     12  O14 SMD d         -27.298 -10.622 -13.786  0.00  0.00    -0.390 OA
ATOM     13  H6  SMD d         -27.640  -9.757 -13.594  0.00  0.00     0.210 HD
ENDBRANCH   5  12
BRANCH   6  14
ATOM     14  C16 SMD d         -30.472 -10.943 -15.513  0.00  0.00     0.198 C 
BRANCH  14  15
ATOM     15  O16 SMD d         -31.853 -11.080 -15.203  0.00  0.00    -0.398 OA
ATOM     16  H10 SMD d         -32.033 -11.979 -14.956  0.00  0.00     0.209 HD
ENDBRANCH  14  15
ENDBRANCH   6  14
ENDBRANCH   1   2
BRANCH   1  17
ATOM     17  C22 SMD d         -30.259 -13.322 -10.656  0.00  0.00     0.136 C 
ATOM     18  C21 SMD d         -30.331 -12.508  -9.364  0.00  0.00     0.276 C 
ATOM     19  O25 SMD d         -29.374 -12.978  -8.415  0.00  0.00    -0.350 OA
ATOM     20  C25 SMD d         -29.559 -14.343  -8.015  0.00  0.00     0.179 C 
ATOM     21  C24 SMD d         -29.439 -15.259  -9.228  0.00  0.00     0.179 C 
ATOM     22  C23 SMD d         -30.414 -14.812 -10.312  0.00  0.00     0.168 C 
BRANCH  18  23
ATOM     23  O21 SMD d         -31.646 -12.603  -8.851  0.00  0.00    -0.365 OA
ATOM     24  C27 SMD d         -31.804 -11.893  -7.614  0.00  0.00     0.204 C 
ENDBRANCH  18  23
BRANCH  20  25
ATOM     25  C26 SMD d         -28.519 -14.621  -6.955  0.00  0.00     0.198 C 
BRANCH  25  26
ATOM     26  O26 SMD d         -28.758 -13.734  -5.860  0.00  0.00    -0.398 OA
ATOM     27  H24 SMD d         -28.689 -12.836  -6.161  0.00  0.00     0.209 HD
ENDBRANCH  25  26
ENDBRANCH  20  25
BRANCH  21  28
ATOM     28  O24 SMD d         -29.736 -16.590  -8.810  0.00  0.00    -0.390 OA
ATOM     29  H20 SMD d         -29.664 -17.178  -9.553  0.00  0.00     0.210 HD
ENDBRANCH  21  28
BRANCH  22  30
ATOM     30  O23 SMD d         -30.234 -15.600 -11.488  0.00  0.00    -0.392 OA
ATOM     31  H18 SMD d         -30.331 -16.520 -11.270  0.00  0.00     0.210 HD
ENDBRANCH  22  30
ENDBRANCH   1  17
TORSDOF 12
