REMARK  9 active torsions:
REMARK  status: ('A' for Active; 'I' for Inactive)
REMARK    1  A    between atoms: CAR_18  and  SAC_3 
REMARK    2  A    between atoms: CAK_11  and  CAJ_10 
REMARK    3  A    between atoms: CAJ_10  and  CAL_12 
REMARK    4  A    between atoms: NAN_14  and  CAK_11 
REMARK    5  A    between atoms: CAL_12  and  NAV_22 
REMARK    6  A    between atoms: NAO_15  and  CAR_18 
REMARK    7  A    between atoms: CAS_19  and  NAO_15 
REMARK    8  A    between atoms: CAT_20  and  OAP_16 
REMARK    9  A    between atoms: OAQ_17  and  CAU_21 
ROOT
ATOM      1  NAO PBD d         -54.496  22.773 -35.992  0.00  0.00    -0.336 N 
ATOM      2  H20 PBD d         -54.931  23.076 -36.875  0.00  0.00     0.168 HD
ENDROOT
BRANCH   1   3
ATOM      3  CAR PBD d         -53.707  23.675 -35.354  0.00  0.00     0.159 C 
ATOM      4  NAN PBD d         -53.200  23.481 -34.121  0.00  0.00    -0.267 NA
BRANCH   3   5
ATOM      5  SAC PBD d         -53.490  25.212 -36.213  0.00  0.00    -0.105 SA
ATOM      6  H7  PBD d         -53.940  25.159 -37.114  0.00  0.00     0.110 HD
ENDBRANCH   3   5
BRANCH   4   7
ATOM      7  CAK PBD d         -52.319  24.432 -33.385  0.00  0.00     0.153 C 
BRANCH   7   8
ATOM      8  CAJ PBD d         -51.332  23.575 -32.571  0.00  0.00     0.042 C 
BRANCH   8   9
ATOM      9  CAL PBD d         -50.367  24.366 -31.669  0.00  0.00     0.131 C 
BRANCH   9  10
ATOM     10  NAV PBD d         -49.530  23.444 -30.874  0.00  0.00    -0.350 N 
ATOM     11  CAG PBD d         -48.461  22.762 -31.298  0.00  0.00     0.111 A 
ATOM     12  CAD PBD d         -48.007  22.053 -30.242  0.00  0.00     0.135 A 
ATOM     13  NAM PBD d         -48.817  22.317 -29.220  0.00  0.00    -0.255 NA
ATOM     14  CAH PBD d         -49.769  23.148 -29.601  0.00  0.00     0.209 A 
ENDBRANCH   9  10
ENDBRANCH   8   9
ENDBRANCH   7   8
ENDBRANCH   4   7
ENDBRANCH   1   3
BRANCH   1  15
ATOM     15  CAS PBD d         -54.761  21.529 -35.582  0.00  0.00     0.036 A 
ATOM     16  CAE PBD d         -55.337  21.247 -34.341  0.00  0.00     0.032 A 
ATOM     17  CAF PBD d         -55.580  19.917 -33.990  0.00  0.00     0.042 A 
ATOM     18  CAT PBD d         -55.259  18.860 -34.867  0.00  0.00     0.101 A 
ATOM     19  CAU PBD d         -54.684  19.141 -36.125  0.00  0.00     0.103 A 
ATOM     20  CAI PBD d         -54.444  20.482 -36.459  0.00  0.00     0.069 A 
BRANCH  18  21
ATOM     21  OAP PBD d         -55.498  17.548 -34.518  0.00  0.00    -0.353 OA
ATOM     22  CAA PBD d         -56.111  17.355 -33.213  0.00  0.00     0.210 C 
ENDBRANCH  18  21
BRANCH  19  23
ATOM     23  OAQ PBD d         -54.374  18.100 -36.983  0.00  0.00    -0.353 OA
ATOM     24  CAB PBD d         -53.700  18.427 -38.218  0.00  0.00     0.210 C 
ENDBRANCH  19  23
ENDBRANCH   1  15
TORSDOF 9
