REMARK  12 active torsions:
REMARK  status: ('A' for Active; 'I' for Inactive)
REMARK    1  A    between atoms: O5_2  and  C31_3 
REMARK    2  A    between atoms: C30_5  and  C33_6 
REMARK    3  A    between atoms: C27_11  and  N2_12 
REMARK       I    between atoms: N2_12  and  C20_13 
REMARK    4  A    between atoms: C20_13  and  C19_15 
REMARK    5  A    between atoms: C19_15  and  C18_16 
REMARK    6  A    between atoms: N1_21  and  C11_22 
REMARK    7  A    between atoms: C11_22  and  C12_23 
REMARK    8  A    between atoms: C11_22  and  C13_26 
REMARK    9  A    between atoms: C13_26  and  S1_27 
REMARK   10  A    between atoms: S1_27  and  C14_30 
REMARK   11  A    between atoms: C2_34  and  C1_35 
REMARK   12  A    between atoms: C3_43  and  C4_44 
ROOT
ATOM      1  C18 MOL d           8.335 -25.893  -2.327  0.00  0.00     0.046 C 
ATOM      2  C5  MOL d           9.403 -25.192  -1.477  0.00  0.00     0.031 C 
ATOM      3  C26 MOL d           7.289 -26.513  -1.386  0.00  0.00     0.026 C 
ATOM      4  C17 MOL d           7.581 -24.880  -3.202  0.00  0.00     0.229 C 
ATOM      5  O1  MOL d           6.510 -25.226  -3.696  0.00  0.00    -0.272 OA
ATOM      6  N1  MOL d           8.097 -23.609  -3.490  0.00  0.00    -0.336 N 
ATOM      7  C2  MOL d           9.359 -23.112  -2.916  0.00  0.00     0.129 C 
ATOM      8  C3  MOL d          10.248 -24.249  -2.335  0.00  0.00     0.047 C 
ENDROOT
BRANCH   1   9
ATOM      9  C19 MOL d           8.948 -26.957  -3.222  0.00  0.00     0.122 C 
BRANCH   9  10
ATOM     10  C20 MOL d           9.423 -28.230  -2.498  0.00  0.00     0.223 C 
ATOM     11  N2  MOL d           8.653 -29.306  -2.721  0.00  0.00    -0.327 N 
ATOM     12  H   MOL d           7.838 -29.163  -3.283  0.00  0.00     0.169 HD
ATOM     13  O2  MOL d          10.428 -28.189  -1.795  0.00  0.00    -0.273 OA
BRANCH  11  14
ATOM     14  C27 MOL d           8.860 -30.565  -2.267  0.00  0.00     0.037 A 
ATOM     15  C32 MOL d          10.068 -31.034  -1.728  0.00  0.00     0.067 A 
ATOM     16  C31 MOL d          10.188 -32.363  -1.294  0.00  0.00     0.087 A 
ATOM     17  C30 MOL d           9.095 -33.224  -1.402  0.00  0.00     0.074 A 
ATOM     18  C29 MOL d           7.897 -32.767  -1.938  0.00  0.00     0.023 A 
ATOM     19  C28 MOL d           7.785 -31.446  -2.368  0.00  0.00     0.031 A 
BRANCH  16  20
ATOM     20  O5  MOL d          11.349 -32.858  -0.762  0.00  0.00    -0.355 OA
ATOM     21  C34 MOL d          12.427 -31.944  -0.623  0.00  0.00     0.210 C 
ENDBRANCH  16  20
BRANCH  17  22
ATOM     22  C33 MOL d           9.202 -34.675  -0.936  0.00  0.00     0.212 C 
ATOM     23  O7  MOL d           8.569 -35.003   0.088  0.00  0.00    -0.644 OA
ATOM     24  O6  MOL d           9.916 -35.447  -1.609  0.00  0.00    -0.644 OA
ENDBRANCH  17  22
ENDBRANCH  11  14
ENDBRANCH   9  10
ENDBRANCH   1   9
BRANCH   8  25
ATOM     25  C4  MOL d          11.411 -23.582  -1.546  0.00  0.00    -0.050 A 
ATOM     26  C10 MOL d          12.702 -23.555  -2.088  0.00  0.00     0.031 A 
ATOM     27  C9  MOL d          13.738 -22.948  -1.399  0.00  0.00     0.034 A 
ATOM     28 CL1  MOL d          15.322 -22.930  -2.098  0.00  0.00    -0.084 Cl
ATOM     29  C8  MOL d          13.515 -22.348  -0.171  0.00  0.00     0.024 A 
ATOM     30  C7  MOL d          12.241 -22.373   0.378  0.00  0.00     0.002 A 
ATOM     31  C6  MOL d          11.188 -22.984  -0.306  0.00  0.00     0.007 A 
ENDBRANCH   8  25
BRANCH   6  32
ATOM     32  C11 MOL d           7.269 -22.616  -4.205  0.00  0.00     0.106 C 
BRANCH  32  33
ATOM     33  C12 MOL d           6.944 -23.010  -5.643  0.00  0.00     0.009 A 
ATOM     34  C35 MOL d           6.465 -21.836  -6.503  0.00  0.00     0.007 A 
ATOM     35  C36 MOL d           7.856 -22.427  -6.721  0.00  0.00     0.007 A 
ENDBRANCH  32  33
BRANCH  32  36
ATOM     36  C13 MOL d           5.982 -22.393  -3.384  0.00  0.00     0.166 C 
BRANCH  36  37
ATOM     37  S1  MOL d           6.251 -21.773  -1.687  0.00  0.00     0.153 S 
ATOM     38  O3  MOL d           6.983 -20.483  -1.770  0.00  0.00    -0.227 OA
ATOM     39  O4  MOL d           6.978 -22.787  -0.857  0.00  0.00    -0.227 OA
BRANCH  37  40
ATOM     40  C14 MOL d           4.629 -21.523  -0.897  0.00  0.00     0.053 C 
ATOM     41  C16 MOL d           3.829 -20.544  -1.756  0.00  0.00     0.031 C 
ATOM     42  C37 MOL d           3.947 -22.895  -0.818  0.00  0.00     0.031 C 
ATOM     43  C15 MOL d           4.865 -20.938   0.502  0.00  0.00     0.031 C 
ENDBRANCH  37  40
ENDBRANCH  36  37
ENDBRANCH  32  36
ENDBRANCH   6  32
BRANCH   7  44
ATOM     44  C1  MOL d          10.207 -22.323  -3.946  0.00  0.00    -0.032 A 
ATOM     45  C25 MOL d          10.722 -22.940  -5.083  0.00  0.00     0.053 A 
ATOM     46  C24 MOL d          11.490 -22.191  -5.959  0.00  0.00     0.138 A 
ATOM     47  F1  MOL d          11.952 -22.815  -7.052  0.00  0.00    -0.204 F 
ATOM     48  C23 MOL d          11.761 -20.849  -5.707  0.00  0.00     0.072 A 
ATOM     49 CL2  MOL d          12.763 -19.921  -6.779  0.00  0.00    -0.081 Cl
ATOM     50  C22 MOL d          11.260 -20.232  -4.576  0.00  0.00     0.028 A 
ATOM     51  C21 MOL d          10.481 -20.984  -3.697  0.00  0.00     0.011 A 
ENDBRANCH   7  44
TORSDOF 12
