REMARK  8 active torsions:
REMARK  status: ('A' for Active; 'I' for Inactive)
REMARK    1  A    between atoms: C21_2  and  C14_3 
REMARK       I    between atoms: C21_2  and  N23_9 
REMARK    2  A    between atoms: N23_9  and  C31_10 
REMARK    3  A    between atoms: C37_16  and  N41_17 
REMARK       I    between atoms: N41_17  and  C42_18 
REMARK    4  A    between atoms: C42_18  and  C51_20 
REMARK    5  A    between atoms: C54_25  and  C61_26 
REMARK    6  A    between atoms: C61_26  and  C71_28 
REMARK    7  A    between atoms: C72_29  and  O92_30 
REMARK    8  A    between atoms: C75_34  and  N95_35 
ROOT
ATOM      1  N41 R69 d          10.959  40.177  13.316  0.00  0.00    -0.350 N 
ATOM      2  C42 R69 d          12.122  40.106  14.060  0.00  0.00     0.252 C 
ATOM      3  O43 R69 d          12.856  41.085  14.106  0.00  0.00    -0.268 OA
ATOM      4  H18 R69 d          10.451  39.336  13.131  0.00  0.00     0.163 HD
ENDROOT
BRANCH   1   5
ATOM      5  C37 R69 d          10.441  41.457  12.784  0.00  0.00     0.109 C 
ATOM      6  C31 R69 d           9.399  41.127  11.670  0.00  0.00     0.133 C 
ATOM      7  C32 R69 d           7.957  41.644  11.814  0.00  0.00     0.259 C 
ATOM      8  N33 R69 d           7.314  41.061  13.044  0.00  0.00    -0.073 N 
ATOM      9  C34 R69 d           7.517  41.913  14.299  0.00  0.00     0.232 C 
ATOM     10  H9  R69 d           7.710  40.149  13.210  0.00  0.00     0.277 HD
ATOM     11  H10 R69 d           6.324  40.972  12.875  0.00  0.00     0.277 HD
ATOM     12  C35 R69 d           8.934  41.820  14.867  0.00  0.00     0.029 C 
ATOM     13  C36 R69 d           9.980  42.412  13.909  0.00  0.00     0.029 C 
BRANCH   6  14
ATOM     14  N23 R69 d           9.937  41.651  10.407  0.00  0.00    -0.349 N 
ATOM     15  C21 R69 d          10.102  40.851   9.284  0.00  0.00     0.252 C 
ATOM     16  O22 R69 d          10.072  39.613   9.425  0.00  0.00    -0.268 OA
ATOM     17  H5  R69 d          10.193  42.616  10.354  0.00  0.00     0.163 HD
BRANCH  15  18
ATOM     18  C14 R69 d          10.249  41.488   7.968  0.00  0.00     0.034 A 
ATOM     19  C13 R69 d          10.096  40.738   6.800  0.00  0.00     0.036 A 
ATOM     20  C12 R69 d          10.209  41.317   5.539  0.00  0.00     0.117 A 
ATOM     21  N11 R69 d          10.474  42.611   5.403  0.00  0.00    -0.273 NA
ATOM     22  C16 R69 d          10.638  43.355   6.506  0.00  0.00     0.117 A 
ATOM     23  C15 R69 d          10.530  42.848   7.799  0.00  0.00     0.036 A 
ENDBRANCH  15  18
ENDBRANCH   6  14
ENDBRANCH   1   5
BRANCH   2  24
ATOM     24  C51 R69 d          12.433  38.897  14.849  0.00  0.00     0.032 A 
ATOM     25  C52 R69 d          13.747  38.667  15.318  0.00  0.00     0.018 A 
ATOM     26  C53 R69 d          14.036  37.556  16.097  0.00  0.00     0.016 A 
ATOM     27  C54 R69 d          13.019  36.643  16.429  0.00  0.00     0.015 A 
ATOM     28  C55 R69 d          11.731  36.884  15.967  0.00  0.00     0.016 A 
ATOM     29  C56 R69 d          11.433  37.993  15.192  0.00  0.00     0.018 A 
BRANCH  27  30
ATOM     30  C61 R69 d          13.310  35.504  17.295  0.00  0.00     0.195 C 
ATOM     31  O62 R69 d          14.269  35.638  18.090  0.00  0.00    -0.287 OA
BRANCH  30  32
ATOM     32  C71 R69 d          12.568  34.279  17.366  0.00  0.00     0.050 A 
ATOM     33  C72 R69 d          12.415  33.445  16.224  0.00  0.00     0.080 A 
ATOM     34  C73 R69 d          11.688  32.234  16.382  0.00  0.00     0.040 A 
ATOM     35  C74 R69 d          11.152  31.895  17.605  0.00  0.00     0.032 A 
ATOM     36  C75 R69 d          11.317  32.730  18.738  0.00  0.00     0.030 A 
ATOM     37  C76 R69 d          12.021  33.922  18.616  0.00  0.00     0.047 A 
BRANCH  33  38
ATOM     38  O92 R69 d          12.903  33.767  15.067  0.00  0.00    -0.360 OA
ATOM     39  H23 R69 d          12.697  33.086  14.437  0.00  0.00     0.217 HD
ENDBRANCH  33  38
BRANCH  36  40
ATOM     40  N95 R69 d          10.736  32.364  19.981  0.00  0.00    -0.390 N 
ATOM     41  C98 R69 d          10.601  30.926  20.282  0.00  0.00     0.149 C 
ATOM     42  C99 R69 d           9.565  33.173  20.369  0.00  0.00     0.149 C 
ENDBRANCH  36  40
ENDBRANCH  30  32
ENDBRANCH  27  30
ENDBRANCH   2  24
TORSDOF 8
