REMARK  7 active torsions:
REMARK  status: ('A' for Active; 'I' for Inactive)
REMARK    1  A    between atoms: N1_1  and  C1_2 
REMARK    2  A    between atoms: C1_2  and  C2_4 
REMARK    3  A    between atoms: C6_8  and  C12_14 
REMARK    4  A    between atoms: C12_14  and  N21_15 
REMARK    5  A    between atoms: C27_22  and  O_28 
REMARK    6  A    between atoms: O_28  and  C41_29 
REMARK    7  A    between atoms: N41_32  and  C46_35 
ROOT
ATOM      1  N21 MOL d          28.123   3.190  56.587  0.00  0.00    -0.341 N 
ATOM      2  C21 MOL d          28.877   3.527  57.688  0.00  0.00     0.046 A 
ATOM      3  C22 MOL d          29.934   2.634  57.840  0.00  0.00     0.003 A 
ATOM      4  C23 MOL d          29.817   1.730  56.804  0.00  0.00     0.003 A 
ATOM      5  C24 MOL d          28.686   2.089  56.041  0.00  0.00     0.049 A 
ATOM      6  C25 MOL d          30.651   0.632  56.536  0.00  0.00     0.017 A 
ATOM      7  C26 MOL d          30.318  -0.142  55.417  0.00  0.00     0.038 A 
ATOM      8  C27 MOL d          29.171   0.187  54.621  0.00  0.00     0.071 A 
ATOM      9  C28 MOL d          28.362   1.281  54.917  0.00  0.00     0.067 A 
ATOM     10  C29 MOL d          30.897   2.696  58.864  0.00  0.00     0.014 A 
ATOM     11  C30 MOL d          30.777   3.748  59.792  0.00  0.00     0.001 A 
ATOM     12  C31 MOL d          29.708   4.671  59.670  0.00  0.00     0.002 A 
ATOM     13  C32 MOL d          28.753   4.575  58.632  0.00  0.00     0.030 A 
ENDROOT
BRANCH   1  14
ATOM     14  C12 MOL d          26.901   3.902  56.175  0.00  0.00     0.168 C 
BRANCH  14  15
ATOM     15  C6  MOL d          25.670   3.141  56.619  0.00  0.00    -0.039 A 
ATOM     16  C5  MOL d          24.502   3.122  55.800  0.00  0.00     0.021 A 
ATOM     17  C4  MOL d          23.365   2.373  56.207  0.00  0.00    -0.025 A 
ATOM     18  C3  MOL d          22.216   2.327  55.370  0.00  0.00     0.027 A 
ATOM     19  C9  MOL d          23.376   1.666  57.441  0.00  0.00    -0.026 A 
ATOM     20  C2  MOL d          21.075   1.603  55.763  0.00  0.00     0.008 A 
ATOM     21  C11 MOL d          21.121   0.908  57.020  0.00  0.00     0.016 A 
ATOM     22  C10 MOL d          22.257   0.926  57.863  0.00  0.00     0.013 A 
ATOM     23  C8  MOL d          24.535   1.716  58.262  0.00  0.00     0.013 A 
ATOM     24  C7  MOL d          25.661   2.428  57.838  0.00  0.00     0.010 A 
BRANCH  20  25
ATOM     25  C1  MOL d          19.909   1.521  54.954  0.00  0.00     0.102 C 
ATOM     26  N2  MOL d          18.869   0.786  55.364  0.00  0.00    -0.385 N 
ATOM     27  H3  MOL d          18.931   0.251  56.242  0.00  0.00     0.157 HD
ATOM     28  H4  MOL d          18.007   0.755  54.801  0.00  0.00     0.157 HD
BRANCH  25  29
ATOM     29  N1  MOL d          19.680   2.150  53.810  0.00  0.00    -0.385 N 
ATOM     30  H1  MOL d          18.789   2.008  53.313  0.00  0.00     0.157 HD
ATOM     31  H2  MOL d          20.393   2.781  53.418  0.00  0.00     0.157 HD
ENDBRANCH  25  29
ENDBRANCH  20  25
ENDBRANCH  14  15
ENDBRANCH   1  14
BRANCH   8  32
ATOM     32  O   MOL d          28.938  -0.666  53.551  0.00  0.00    -0.346 OA
BRANCH  32  33
ATOM     33  C41 MOL d          29.857  -1.820  53.393  0.00  0.00     0.132 C 
ATOM     34  C45 MOL d          29.377  -2.687  52.225  0.00  0.00     0.052 C 
ATOM     35  C44 MOL d          30.479  -3.477  51.512  0.00  0.00     0.126 C 
ATOM     36  N41 MOL d          31.710  -2.751  51.238  0.00  0.00    -0.370 N 
ATOM     37  C43 MOL d          31.691  -1.361  51.659  0.00  0.00     0.126 C 
ATOM     38  C42 MOL d          31.318  -1.335  53.188  0.00  0.00     0.052 C 
BRANCH  36  39
ATOM     39  C46 MOL d          32.794  -3.346  50.628  0.00  0.00     0.089 C 
ATOM     40  C47 MOL d          34.080  -2.672  50.331  0.00  0.00     0.090 C 
ATOM     41  N42 MOL d          32.768  -4.650  50.236  0.00  0.00    -0.288 NA
ATOM     42  H29 MOL d          33.575  -5.059  49.792  0.00  0.00     0.188 HD
ENDBRANCH  36  39
ENDBRANCH  32  33
ENDBRANCH   8  32
TORSDOF 7
