REMARK  4 active torsions:
REMARK  status: ('A' for Active; 'I' for Inactive)
REMARK    1  A    between atoms: O5'_1  and  C5'_2 
REMARK    2  A    between atoms: C5'_2  and  C4'_3 
REMARK    3  A    between atoms: C3'_5  and  N3'_6 
REMARK    4  A    between atoms: C1'_10  and  N1_11 
ROOT
ATOM      1  N3' AZZ d          30.478  -9.360  -5.125  0.00  0.00    -0.107 NA
ATOM      2  N4' AZZ d          30.268  -8.511  -4.231  0.00  0.00    -0.167 NA
ATOM      3  N5' AZZ d          30.044  -7.633  -3.309  0.00  0.00     0.068 N 
ENDROOT
BRANCH   1   4
ATOM      4  C3' AZZ d          31.660 -10.199  -5.114  0.00  0.00     0.180 C 
ATOM      5  C4' AZZ d          31.809 -10.803  -6.510  0.00  0.00     0.175 C 
ATOM      6  O4' AZZ d          31.963 -12.202  -6.300  0.00  0.00    -0.356 OA
ATOM      7  C1' AZZ d          31.207 -12.539  -5.141  0.00  0.00     0.234 C 
ATOM      8  C2' AZZ d          31.352 -11.359  -4.189  0.00  0.00     0.087 C 
BRANCH   5   9
ATOM      9  C5' AZZ d          32.966 -10.252  -7.331  0.00  0.00     0.198 C 
BRANCH   9  10
ATOM     10  O5' AZZ d          32.990 -10.864  -8.632  0.00  0.00    -0.398 OA
ATOM     11  H   AZZ d          33.096 -11.803  -8.537  0.00  0.00     0.209 HD
ENDBRANCH   9  10
ENDBRANCH   5   9
BRANCH   7  12
ATOM     12  N1  AZZ d          31.739 -13.746  -4.521  0.00  0.00    -0.282 N 
ATOM     13  C2  AZZ d          30.850 -14.740  -4.050  0.00  0.00     0.331 A 
ATOM     14  O2  AZZ d          29.591 -14.629  -4.175  0.00  0.00    -0.246 OA
ATOM     15  N3  AZZ d          31.362 -15.832  -3.470  0.00  0.00    -0.275 N 
ATOM     16  C4  AZZ d          32.683 -16.023  -3.331  0.00  0.00     0.256 A 
ATOM     17  H   AZZ d          30.736 -16.532  -3.127  0.00  0.00     0.173 HD
ATOM     18  O4  AZZ d          33.099 -17.059  -2.781  0.00  0.00    -0.267 OA
ATOM     19  C5  AZZ d          33.633 -14.992  -3.805  0.00  0.00     0.022 A 
ATOM     20  C5A AZZ d          35.122 -15.158  -3.667  0.00  0.00     0.056 C 
ATOM     21  C6  AZZ d          33.083 -13.869  -4.399  0.00  0.00     0.110 A 
ENDBRANCH   7  12
ENDBRANCH   1   4
TORSDOF 4
