REMARK  13 active torsions:
REMARK  status: ('A' for Active; 'I' for Inactive)
REMARK    1  A    between atoms: S8_10  and  C5_7 
REMARK    2  A    between atoms: N11_13  and  S8_10 
REMARK    3  A    between atoms: N11_13  and  C12_14 
REMARK    4  A    between atoms: C16_18  and  N11_13 
REMARK    5  A    between atoms: C12_14  and  C13_15 
REMARK    6  A    between atoms: C17_19  and  C16_18 
REMARK    7  A    between atoms: C17_19  and  O18_20 
REMARK    8  A    between atoms: C19_21  and  C17_19 
REMARK    9  A    between atoms: C19_21  and  N20_22 
REMARK   10  A    between atoms: C32_34  and  C19_21 
REMARK       I    between atoms: N20_22  and  C21_23 
REMARK   11  A    between atoms: C21_23  and  O23_25 
REMARK   12  A    between atoms: O23_25  and  C24_26 
REMARK   13  A    between atoms: C38_40  and  C32_34 
ROOT
ATOM      1  C17 MOL d          15.376  24.091  17.956  0.00  0.00     0.160 C 
ENDROOT
BRANCH   1   2
ATOM      2  C16 MOL d          16.528  24.964  17.454  0.00  0.00     0.169 C 
BRANCH   2   3
ATOM      3  N11 MOL d          17.778  24.225  17.393  0.00  0.00    -0.304 N 
BRANCH   3   4
ATOM      4  S8  MOL d          18.410  23.991  15.894  0.00  0.00     0.261 S 
ATOM      5  O9  MOL d          17.292  23.810  14.969  0.00  0.00    -0.200 OA
ATOM      6  O10 MOL d          19.353  22.850  16.030  0.00  0.00    -0.200 OA
BRANCH   4   7
ATOM      7  C5  MOL d          19.335  25.400  15.405  0.00  0.00     0.082 A 
ATOM      8  C4  MOL d          20.683  25.448  15.698  0.00  0.00     0.065 A 
ATOM      9  C3  MOL d          21.365  26.628  15.421  0.00  0.00     0.106 A 
ATOM     10  C2  MOL d          20.709  27.716  14.854  0.00  0.00     0.105 A 
ATOM     11  O41 MOL d          22.687  26.958  15.585  0.00  0.00    -0.323 OA
ATOM     12  O39 MOL d          21.586  28.749  14.720  0.00  0.00    -0.323 OA
ATOM     13  C7  MOL d          19.376  27.640  14.518  0.00  0.00     0.041 A 
ATOM     14  C40 MOL d          22.819  28.258  15.143  0.00  0.00     0.352 A 
ATOM     15  C6  MOL d          18.695  26.465  14.796  0.00  0.00     0.028 A 
ENDBRANCH   4   7
ENDBRANCH   3   4
BRANCH   3  16
ATOM     16  C12 MOL d          18.733  24.462  18.453  0.00  0.00     0.139 C 
BRANCH  16  17
ATOM     17  C13 MOL d          18.329  23.885  19.823  0.00  0.00    -0.004 C 
ATOM     18  C14 MOL d          18.206  22.375  19.759  0.00  0.00     0.011 C 
ATOM     19  C15 MOL d          19.401  24.283  20.846  0.00  0.00     0.011 C 
ENDBRANCH  16  17
ENDBRANCH   3  16
ENDBRANCH   2   3
ENDBRANCH   1   2
BRANCH   1  20
ATOM     20  O18 MOL d          14.220  24.862  18.254  0.00  0.00    -0.392 OA
ATOM     21  H18 MOL d          13.528  24.288  18.562  0.00  0.00     0.210 HD
ENDBRANCH   1  20
BRANCH   1  22
ATOM     22  C19 MOL d          14.992  22.951  17.020  0.00  0.00     0.121 C 
BRANCH  22  23
ATOM     23  N20 MOL d          14.133  22.047  17.764  0.00  0.00    -0.329 N 
ATOM     24  C21 MOL d          14.421  20.793  18.096  0.00  0.00     0.361 C 
ATOM     25  O22 MOL d          15.484  20.219  17.823  0.00  0.00    -0.238 OA
ATOM     26  H20 MOL d          13.243  22.401  18.053  0.00  0.00     0.165 HD
BRANCH  24  27
ATOM     27  O23 MOL d          13.416  20.181  18.756  0.00  0.00    -0.296 OA
BRANCH  27  28
ATOM     28  C24 MOL d          13.608  18.793  19.035  0.00  0.00     0.166 C 
ATOM     29  C25 MOL d          13.013  18.584  20.433  0.00  0.00     0.204 C 
ATOM     30  O26 MOL d          11.579  18.583  20.255  0.00  0.00    -0.358 OA
ATOM     31  C27 MOL d          11.323  18.001  18.989  0.00  0.00     0.266 C 
ATOM     32  O28 MOL d          10.389  18.840  18.299  0.00  0.00    -0.361 OA
ATOM     33  C31 MOL d          12.622  17.972  18.195  0.00  0.00     0.075 C 
ATOM     34  C29 MOL d          11.050  19.449  17.212  0.00  0.00     0.171 C 
ATOM     35  C30 MOL d          12.228  18.537  16.829  0.00  0.00     0.038 C 
ENDBRANCH  27  28
ENDBRANCH  24  27
ENDBRANCH  22  23
BRANCH  22  36
ATOM     36  C32 MOL d          14.223  23.403  15.776  0.00  0.00     0.066 C 
BRANCH  36  37
ATOM     37  C38 MOL d          13.876  22.215  14.892  0.00  0.00    -0.056 A 
ATOM     38  C33 MOL d          12.582  21.753  14.741  0.00  0.00     0.007 A 
ATOM     39  C34 MOL d          12.264  20.645  13.960  0.00  0.00     0.001 A 
ATOM     40  C35 MOL d          13.256  19.965  13.304  0.00  0.00     0.000 A 
ATOM     41  C36 MOL d          14.552  20.417  13.444  0.00  0.00     0.001 A 
ATOM     42  C37 MOL d          14.877  21.528  14.214  0.00  0.00     0.007 A 
ENDBRANCH  36  37
ENDBRANCH  22  36
ENDBRANCH   1  22
TORSDOF 13
