REMARK  1 active torsions:
REMARK  status: ('A' for Active; 'I' for Inactive)
REMARK    1  A    between atoms: C6_6  and  C7_7 
ROOT
ATOM      1  C1  IDZ d          12.969  -1.058  10.527  0.00  0.00     0.032 A 
ATOM      2  C2  IDZ d          12.921  -2.289  11.198  0.00  0.00     0.002 A 
ATOM      3  C3  IDZ d          14.070  -3.083  11.298  0.00  0.00     0.001 A 
ATOM      4  C4  IDZ d          15.276  -2.651  10.747  0.00  0.00     0.016 A 
ATOM      5  C5  IDZ d          15.322  -1.425  10.121  0.00  0.00     0.026 A 
ATOM      6  C6  IDZ d          16.302  -0.697   9.441  0.00  0.00     0.135 A 
ATOM      7  N16 IDZ d          14.555   0.458   9.304  0.00  0.00    -0.277 N 
ATOM      8  C17 IDZ d          14.183  -0.643   9.989  0.00  0.00     0.062 A 
ATOM      9  NAI IDZ d          15.771   0.445   8.983  0.00  0.00    -0.170 NA
ATOM     10  H9  IDZ d          13.912   1.227   9.069  0.00  0.00     0.189 HD
ENDROOT
BRANCH   6  11
ATOM     11  C7  IDZ d          17.624  -1.092   9.281  0.00  0.00     0.160 A 
ATOM     12  N8  IDZ d          18.549  -0.331   8.663  0.00  0.00    -0.227 NA
ATOM     13  C9  IDZ d          19.685  -0.991   8.694  0.00  0.00     0.086 A 
ATOM     14  C10 IDZ d          20.949  -0.695   8.182  0.00  0.00     0.034 A 
ATOM     15  C14 IDZ d          19.441  -2.187   9.385  0.00  0.00     0.062 A 
ATOM     16  C11 IDZ d          21.999  -1.614   8.368  0.00  0.00     0.002 A 
ATOM     17  C12 IDZ d          21.750  -2.821   9.031  0.00  0.00     0.002 A 
ATOM     18  C13 IDZ d          20.475  -3.115   9.549  0.00  0.00     0.032 A 
ATOM     19  NAL IDZ d          18.149  -2.224   9.720  0.00  0.00    -0.337 N 
ATOM     20  H10 IDZ d          17.660  -2.981  10.219  0.00  0.00     0.167 HD
ENDBRANCH   6  11
TORSDOF 1
