REMARK  1 active torsions:
REMARK  status: ('A' for Active; 'I' for Inactive)
REMARK    1  A    between atoms: C6_6  and  C8_8 
ROOT
ATOM      1 CL1  L5V d          25.927  21.135   7.341  0.00  0.00    -0.061 Cl
ATOM      2  C2  L5V d          26.751  20.187   8.541  0.00  0.00     0.144 A 
ATOM      3  C3  L5V d          26.906  18.833   8.337  0.00  0.00     0.160 A 
ATOM      4  N4  L5V d          27.531  18.065   9.231  0.00  0.00    -0.267 NA
ATOM      5  C5  L5V d          27.982  18.707  10.311  0.00  0.00     0.151 A 
ATOM      6  C6  L5V d          27.818  20.075  10.500  0.00  0.00     0.123 A 
ATOM      7  N7  L5V d          27.186  20.849   9.599  0.00  0.00    -0.230 NA
ENDROOT
BRANCH   6   8
ATOM      8  C8  L5V d          28.319  20.755  11.692  0.00  0.00     0.181 A 
ATOM      9  N9  L5V d          28.297  22.062  11.893  0.00  0.00    -0.128 NA
ATOM     10  N10 L5V d          28.859  22.292  13.133  0.00  0.00    -0.143 NA
ATOM     11  C11 L5V d          29.195  21.130  13.628  0.00  0.00     0.233 A 
ATOM     12  N12 L5V d          28.875  20.170  12.766  0.00  0.00    -0.331 N 
ATOM     13  H   L5V d          29.026  19.160  12.898  0.00  0.00     0.168 HD
ENDBRANCH   6   8
TORSDOF 1
