REMARK  1 active torsions:
REMARK  status: ('A' for Active; 'I' for Inactive)
REMARK    1  A    between atoms: CAI_24  and  OAJ_25 
ROOT
ATOM      1  CAV SY9 d         -42.944   7.457 -16.929  0.00  0.00     0.204 C 
ATOM      2  CAU SY9 d         -41.990   7.199 -18.101  0.00  0.00     0.044 C 
ATOM      3  CAT SY9 d         -40.714   6.544 -17.594  0.00  0.00     0.026 C 
ATOM      4  CAN SY9 d         -41.062   5.165 -17.030  0.00  0.00     0.047 C 
ATOM      5  CAK SY9 d         -42.057   5.240 -15.877  0.00  0.00     0.109 C 
ATOM      6  NAH SY9 d         -42.700   3.917 -15.841  0.00  0.00    -0.347 N 
ATOM      7  CAA SY9 d         -44.065   3.993 -16.104  0.00  0.00     0.040 A 
ATOM      8  CAF SY9 d         -44.977   2.956 -16.308  0.00  0.00     0.030 A 
ATOM      9  CAE SY9 d         -46.292   3.231 -16.646  0.00  0.00     0.002 A 
ATOM     10  CAD SY9 d         -46.678   4.554 -16.820  0.00  0.00     0.001 A 
ATOM     11  CAC SY9 d         -45.762   5.590 -16.650  0.00  0.00     0.010 A 
ATOM     12  CAB SY9 d         -44.439   5.316 -16.336  0.00  0.00    -0.019 A 
ATOM     13  CAG SY9 d         -43.232   6.225 -16.028  0.00  0.00     0.040 C 
ATOM     14  CAW SY9 d         -43.547   6.879 -14.684  0.00  0.00     0.046 C 
ATOM     15  CAX SY9 d         -42.418   7.898 -14.616  0.00  0.00     0.237 C 
ATOM     16  NAY SY9 d         -42.347   8.464 -15.991  0.00  0.00    -0.062 N 
ATOM     17  CAS SY9 d         -40.924   8.759 -16.242  0.00  0.00     0.270 C 
ATOM     18  CAR SY9 d         -40.191   7.452 -16.521  0.00  0.00    -0.051 C 
ATOM     19  CAQ SY9 d         -39.095   7.217 -15.709  0.00  0.00     0.004 C 
ATOM     20  CAP SY9 d         -38.345   6.051 -15.831  0.00  0.00     0.196 C 
ATOM     21  OAO SY9 d         -38.996   4.782 -15.580  0.00  0.00    -0.382 OA
ATOM     22  CAM SY9 d         -39.869   4.282 -16.590  0.00  0.00     0.132 C 
ATOM     23  CAL SY9 d         -40.349   2.987 -15.844  0.00  0.00     0.086 C 
ATOM     24  CAI SY9 d         -41.868   2.807 -15.908  0.00  0.00     0.223 C 
ATOM     25  H15 SY9 d         -42.878   9.319 -16.049  0.00  0.00     0.280 HD
ENDROOT
BRANCH  24  26
ATOM     26  OAJ SY9 d         -42.432   1.568 -15.921  0.00  0.00    -0.377 OA
ATOM     27  H25 SY9 d         -41.748   0.910 -15.969  0.00  0.00     0.212 HD
ENDBRANCH  24  26
TORSDOF 1
