REMARK  3 active torsions:
REMARK  status: ('A' for Active; 'I' for Inactive)
REMARK    1  A    between atoms: C1_1  and  C2_4 
REMARK    2  A    between atoms: C2_4  and  O2_6 
REMARK    3  A    between atoms: O2_6  and  P_7 
ROOT
ATOM      1  C2  MOL d          45.214 -23.594  -4.455  0.00  0.00     0.232 C 
ATOM      2  C3  MOL d          43.903 -23.208  -5.149  0.00  0.00     0.052 C 
ENDROOT
BRANCH   1   3
ATOM      3  C1  MOL d          45.251 -22.769  -3.184  0.00  0.00     0.203 C 
ATOM      4  O1  MOL d          44.503 -23.180  -2.272  0.00  0.00    -0.646 OA
ATOM      5  O2' MOL d          45.983 -21.757  -3.141  0.00  0.00    -0.646 OA
ENDBRANCH   1   3
BRANCH   1   6
ATOM      6  O2  MOL d          46.331 -23.301  -5.312  0.00  0.00    -0.267 OA
BRANCH   6   7
ATOM      7  P   MOL d          46.682 -24.307  -6.545  0.00  0.00     0.423 P 
ATOM      8  O1P MOL d          46.184 -23.484  -7.814  0.00  0.00    -0.617 OA
ATOM      9  O2P MOL d          48.282 -24.326  -6.682  0.00  0.00    -0.617 OA
ATOM     10  O3P MOL d          45.944 -25.616  -6.471  0.00  0.00    -0.617 OA
ENDBRANCH   6   7
ENDBRANCH   1   6
TORSDOF 3
