REMARK  7 active torsions:
REMARK  status: ('A' for Active; 'I' for Inactive)
REMARK    1  A    between atoms: CBE_7  and  CBF_8 
REMARK    2  A    between atoms: NBG_9  and  CBC_10 
REMARK    3  A    between atoms: CAZ_13  and  CAT_14 
REMARK    4  A    between atoms: CAT_14  and  CAU_15 
REMARK    5  A    between atoms: CAW_22  and  OAE_23 
REMARK    6  A    between atoms: CAY_24  and  CAV_25 
REMARK    7  A    between atoms: CAV_25  and  CBD_27 
ROOT
ATOM      1  CBF MOL d           3.074  21.231   1.425  0.00  0.00     0.167 A 
ATOM      2  NBG MOL d           2.449  20.391   0.587  0.00  0.00    -0.309 N 
ATOM      3  CAX MOL d           3.073  19.206   0.547  0.00  0.00     0.216 A 
ATOM      4  OAC MOL d           2.684  18.113  -0.192  0.00  0.00    -0.169 OA
ATOM      5  CAW MOL d           4.187  19.272   1.371  0.00  0.00     0.133 A 
ATOM      6  CAY MOL d           4.199  20.561   1.903  0.00  0.00     0.058 A 
ENDROOT
BRANCH   2   7
ATOM      7  CBC MOL d           1.335  20.742  -0.242  0.00  0.00     0.037 A 
ATOM      8  CAR MOL d           0.082  20.228   0.049  0.00  0.00     0.030 A 
ATOM      9  CAP MOL d          -1.001  20.562  -0.751  0.00  0.00     0.010 A 
ATOM     10  CAZ MOL d          -0.829  21.411  -1.834  0.00  0.00    -0.048 A 
ATOM     11  CAQ MOL d           0.426  21.924  -2.129  0.00  0.00     0.010 A 
ATOM     12  CAS MOL d           1.511  21.588  -1.328  0.00  0.00     0.030 A 
BRANCH  10  13
ATOM     13  CAT MOL d          -2.004  21.752  -2.687  0.00  0.00     0.151 C 
BRANCH  13  14
ATOM     14  CAU MOL d          -2.544  20.621  -3.501  0.00  0.00     0.176 C 
ATOM     15  OAD MOL d          -1.815  20.066  -4.372  0.00  0.00    -0.648 OA
ATOM     16  OAA MOL d          -3.721  20.213  -3.309  0.00  0.00    -0.648 OA
ENDBRANCH  13  14
ENDBRANCH  10  13
ENDBRANCH   2   7
BRANCH   1  17
ATOM     17  CBE MOL d           2.285  22.076   2.373  0.00  0.00    -0.009 A 
ATOM     18  CBB MOL d           2.225  23.468   2.301  0.00  0.00     0.042 A 
ATOM     19 CLA  MOL d           3.062  24.368   1.087  0.00  0.00    -0.084 Cl
ATOM     20  CAM MOL d           1.475  24.180   3.228  0.00  0.00     0.024 A 
ATOM     21  CAI MOL d           0.789  23.513   4.227  0.00  0.00     0.002 A 
ATOM     22  CAK MOL d           0.848  22.130   4.302  0.00  0.00     0.001 A 
ATOM     23  CAO MOL d           1.598  21.413   3.383  0.00  0.00     0.011 A 
ENDBRANCH   1  17
BRANCH   6  24
ATOM     24  CAV MOL d           5.324  21.237   2.616  0.00  0.00     0.195 C 
ATOM     25  OAB MOL d           5.339  22.451   2.659  0.00  0.00    -0.287 OA
BRANCH  24  26
ATOM     26  CBD MOL d           6.436  20.510   3.289  0.00  0.00     0.036 A 
ATOM     27  CBA MOL d           6.175  19.561   4.273  0.00  0.00     0.048 A 
ATOM     28 CL2  MOL d           4.547  19.170   4.723  0.00  0.00    -0.083 Cl
ATOM     29  CAL MOL d           7.232  18.911   4.894  0.00  0.00     0.025 A 
ATOM     30  CAH MOL d           8.535  19.221   4.536  0.00  0.00     0.002 A 
ATOM     31  CAJ MOL d           8.794  20.179   3.563  0.00  0.00     0.001 A 
ATOM     32  CAN MOL d           7.745  20.828   2.939  0.00  0.00     0.017 A 
ENDBRANCH  24  26
ENDBRANCH   6  24
BRANCH   5  33
ATOM     33  OAE MOL d           5.100  18.270   1.598  0.00  0.00    -0.356 OA
ATOM     34  H12 MOL d           5.764  18.579   2.203  0.00  0.00     0.218 HD
ENDBRANCH   5  33
TORSDOF 7
