REMARK  8 active torsions:
REMARK  status: ('A' for Active; 'I' for Inactive)
REMARK    1  A    between atoms: C11_7  and  C2_2 
REMARK    2  A    between atoms: C1_8  and  C11_7 
REMARK    3  A    between atoms: N18_9  and  C1_8 
REMARK    4  A    between atoms: C21_10  and  N18_9 
REMARK    5  A    between atoms: C33_18  and  N23_12 
REMARK    6  A    between atoms: C34_19  and  C33_18 
REMARK       I    between atoms: N37_20  and  C34_19 
REMARK    7  A    between atoms: C39_22  and  N37_20 
REMARK    8  A    between atoms: C40_23  and  C39_22 
ROOT
ATOM      1  C21 MOL d          17.943 -15.375  22.884  0.00  0.00     0.193 A 
ATOM      2  C22 MOL d          17.422 -14.138  22.276  0.00  0.00     0.295 A 
ATOM      3  N23 MOL d          18.145 -13.509  21.290  0.00  0.00    -0.291 N 
ATOM      4  C24 MOL d          19.445 -13.924  20.814  0.00  0.00     0.126 A 
ATOM      5  C25 MOL d          19.952 -15.078  21.446  0.00  0.00     0.161 A 
ATOM      6  N3  MOL d          19.219 -15.785  22.393  0.00  0.00    -0.235 NA
ATOM      7  O28 MOL d          16.347 -13.676  22.647  0.00  0.00    -0.264 OA
ATOM      8 CL2  MOL d          20.294 -13.068  19.627  0.00  0.00    -0.063 Cl
ENDROOT
BRANCH   3   9
ATOM      9  C33 MOL d          17.612 -12.270  20.689  0.00  0.00     0.236 C 
BRANCH   9  10
ATOM     10  C34 MOL d          16.136 -12.412  20.352  0.00  0.00     0.236 C 
ATOM     11  N37 MOL d          15.399 -11.312  20.555  0.00  0.00    -0.355 N 
ATOM     12  H11 MOL d          15.820 -10.477  20.910  0.00  0.00     0.162 HD
ATOM     13  O38 MOL d          15.696 -13.463  19.897  0.00  0.00    -0.272 OA
BRANCH  11  14
ATOM     14  C39 MOL d          13.962 -11.352  20.248  0.00  0.00     0.163 C 
BRANCH  14  15
ATOM     15  C40 MOL d          13.105 -11.355  21.507  0.00  0.00    -0.010 A 
ATOM     16  C43 MOL d          13.096 -10.161  22.309  0.00  0.00     0.035 A 
ATOM     17  C44 MOL d          12.284 -10.195  23.495  0.00  0.00     0.034 A 
ATOM     18  C45 MOL d          11.504 -11.337  23.899  0.00  0.00     0.026 A 
ATOM     19 CL1  MOL d          12.238  -8.757  24.485  0.00  0.00    -0.084 Cl
ATOM     20  C47 MOL d          11.510 -12.522  23.098  0.00  0.00     0.034 A 
ATOM     21  C50 MOL d          12.334 -12.497  21.900  0.00  0.00     0.069 A 
ATOM     22  N11 MOL d          12.475 -13.668  21.215  0.00  0.00    -0.206 N 
ATOM     23  N12 MOL d          11.967 -14.102  20.201  0.00  0.00    -0.040 NA
ATOM     24  C46 MOL d          13.351 -14.726  21.584  0.00  0.00     0.262 A 
ATOM     25  N13 MOL d          12.384 -15.232  19.803  0.00  0.00    -0.023 NA
ATOM     26  N14 MOL d          13.235 -15.703  20.545  0.00  0.00    -0.122 NA
ENDBRANCH  14  15
ENDBRANCH  11  14
ENDBRANCH   9  10
ENDBRANCH   3   9
BRANCH   1  27
ATOM     27  N18 MOL d          17.239 -16.049  23.918  0.00  0.00    -0.364 N 
ATOM     28  H7  MOL d          16.281 -15.773  24.178  0.00  0.00     0.161 HD
BRANCH  27  29
ATOM     29  C1  MOL d          17.927 -17.156  24.605  0.00  0.00     0.207 C 
BRANCH  29  30
ATOM     30  C11 MOL d          18.542 -16.722  25.922  0.00  0.00     0.303 C 
ATOM     31  F1  MOL d          18.832 -17.878  26.542  0.00  0.00    -0.197 F 
ATOM     32  F2  MOL d          17.618 -16.078  26.655  0.00  0.00    -0.197 F 
BRANCH  30  33
ATOM     33  C2  MOL d          19.809 -15.892  25.716  0.00  0.00     0.115 A 
ATOM     34  C8  MOL d          19.885 -14.493  26.092  0.00  0.00     0.034 A 
ATOM     35  C6  MOL d          21.099 -13.817  25.744  0.00  0.00     0.004 A 
ATOM     36  C5  MOL d          22.184 -14.477  25.045  0.00  0.00     0.020 A 
ATOM     37  C4  MOL d          22.063 -15.864  24.698  0.00  0.00     0.126 A 
ATOM     38  N1  MOL d          20.884 -16.499  25.055  0.00  0.00    -0.198 N 
ATOM     39  O1  MOL d          20.772 -17.803  24.723  0.00  0.00    -0.081 OA
ENDBRANCH  30  33
ENDBRANCH  29  30
ENDBRANCH  27  29
ENDBRANCH   1  27
TORSDOF 8
