REMARK  2 active torsions:
REMARK  status: ('A' for Active; 'I' for Inactive)
REMARK    1  A    between atoms: N13_12  and  C14_13 
REMARK       I    between atoms: N19_17  and  C21_19 
REMARK    2  A    between atoms: C21_19  and  C23_21 
ROOT
ATOM      1  C23 C5I d          16.185   9.572   1.295  0.00  0.00     0.226 C 
ATOM      2  C24 C5I d          17.276  10.305   0.632  0.00  0.00     0.068 C 
ATOM      3  N25 C5I d          18.118  10.868   0.125  0.00  0.00    -0.197 NA
ENDROOT
BRANCH   1   4
ATOM      4  C21 C5I d          15.532   8.562   0.373  0.00  0.00     0.232 C 
ATOM      5  N19 C5I d          14.663   7.637   0.880  0.00  0.00    -0.349 N 
ATOM      6  C18 C5I d          14.401   7.516   2.337  0.00  0.00     0.126 C 
ATOM      7  C20 C5I d          14.051   6.622   0.006  0.00  0.00     0.153 C 
ATOM      8  C17 C5I d          15.009   6.180   2.815  0.00  0.00     0.022 C 
ATOM      9  C16 C5I d          14.393   5.055   1.989  0.00  0.00     0.030 C 
ATOM     10  C14 C5I d          14.635   5.273   0.465  0.00  0.00     0.130 C 
ATOM     11  O22 C5I d          15.755   8.608  -0.837  0.00  0.00    -0.272 OA
BRANCH  10  12
ATOM     12  N13 C5I d          14.005   4.142  -0.228  0.00  0.00    -0.242 N 
ATOM     13  C7  C5I d          14.530   2.875  -0.297  0.00  0.00     0.101 A 
ATOM     14  C6  C5I d          15.731   2.250   0.133  0.00  0.00     0.042 A 
ATOM     15  C8  C5I d          13.541   2.094  -0.917  0.00  0.00     0.127 A 
ATOM     16  C1  C5I d          16.934   2.700   0.826  0.00  0.00     0.035 A 
ATOM     17  C5  C5I d          15.897   0.854  -0.083  0.00  0.00     0.139 A 
ATOM     18  C2  C5I d          17.723   1.612   0.992  0.00  0.00     0.091 A 
ATOM     19  N3  C5I d          17.123   0.500   0.452  0.00  0.00    -0.350 N 
ATOM     20  H3  C5I d          17.523  -0.449   0.446  0.00  0.00     0.166 HD
ATOM     21  N10 C5I d          14.929   0.156  -0.694  0.00  0.00    -0.240 NA
ATOM     22  C9  C5I d          13.795   0.715  -1.102  0.00  0.00     0.155 A 
ATOM     23  N11 C5I d          12.491   2.912  -1.191  0.00  0.00    -0.128 NA
ATOM     24  N12 C5I d          12.708   4.108  -0.756  0.00  0.00    -0.065 NA
ENDBRANCH  10  12
ENDBRANCH   1   4
TORSDOF 2
