REMARK  1 active torsions:
REMARK  status: ('A' for Active; 'I' for Inactive)
REMARK    1  A    between atoms: C7_7  and  N1_12 
ROOT
ATOM      1  O   2GQ d         -23.991 -28.527   4.664  0.00  0.00    -0.267 OA
ATOM      2  C8  2GQ d         -25.184 -28.602   4.978  0.00  0.00     0.257 A 
ATOM      3  C3  2GQ d         -25.672 -28.874   6.346  0.00  0.00     0.039 A 
ATOM      4  C2  2GQ d         -24.765 -29.123   7.385  0.00  0.00     0.017 A 
ATOM      5  C1  2GQ d         -25.213 -29.318   8.684  0.00  0.00     0.001 A 
ATOM      6  N   2GQ d         -26.164 -28.378   4.037  0.00  0.00    -0.312 N 
ATOM      7  C7  2GQ d         -27.489 -28.394   4.353  0.00  0.00     0.086 A 
ATOM      8  C6  2GQ d         -27.991 -28.621   5.579  0.00  0.00     0.116 A 
ATOM      9  C4  2GQ d         -27.060 -28.860   6.639  0.00  0.00    -0.035 A 
ATOM     10  C5  2GQ d         -27.487 -29.060   7.963  0.00  0.00     0.008 A 
ATOM     11  C   2GQ d         -26.567 -29.284   8.970  0.00  0.00     0.001 A 
ATOM     12  H3  2GQ d         -25.894 -28.198   3.091  0.00  0.00     0.170 HD
ENDROOT
BRANCH   7  13
ATOM     13  N1  2GQ d         -28.308 -28.187   3.386  0.00  0.00    -0.370 N 
ATOM     14  C12 2GQ d         -29.758 -28.195   3.503  0.00  0.00     0.124 C 
ATOM     15  C11 2GQ d         -30.224 -28.064   2.083  0.00  0.00     0.021 C 
ATOM     16  C10 2GQ d         -29.113 -28.560   1.349  0.00  0.00     0.021 C 
ATOM     17  C9  2GQ d         -27.921 -28.015   2.026  0.00  0.00     0.124 C 
ENDBRANCH   7  13
TORSDOF 1
