REMARK  10 active torsions:
REMARK  status: ('A' for Active; 'I' for Inactive)
REMARK    1  A    between atoms: N_1  and  CA_2 
REMARK    2  A    between atoms: CA_2  and  C_3 
REMARK       I    between atoms: C_3  and  N_6 
REMARK    3  A    between atoms: N_6  and  CA_7 
REMARK    4  A    between atoms: CA_7  and  C_8 
REMARK    5  A    between atoms: CA_7  and  CB_10 
REMARK       I    between atoms: C_8  and  N_13 
REMARK    6  A    between atoms: CB_10  and  OG1_11 
REMARK    7  A    between atoms: N_13  and  CA_14 
REMARK    8  A    between atoms: CA_14  and  C_15 
REMARK       I    between atoms: C_15  and  N_18 
REMARK    9  A    between atoms: N_18  and  CA_19 
REMARK   10  A    between atoms: CA_19  and  C_20 
ROOT
ATOM      1  CA  ALA d          28.456  35.683   9.922  0.00  0.00     0.205 C 
ENDROOT
BRANCH   1   2
ATOM      2  N   ALA d          27.439  36.694   9.636  0.00  0.00    -0.344 N 
ATOM      3  C   ALA d          26.707  36.708   8.543  0.00  0.00     0.248 C 
ATOM      4  O   ALA d          26.727  35.877   7.636  0.00  0.00    -0.271 OA
ATOM      5  H8  ALA d          27.291  37.417  10.311  0.00  0.00     0.163 HD
BRANCH   3   6
ATOM      6  CA  ALA d          25.650  37.821   8.554  0.00  0.00     0.270 C 
ATOM      7  CB  ALA d          24.512  37.465   9.557  0.00  0.00     0.050 C 
BRANCH   6   8
ATOM      8  N   ALA d          25.109  37.924   7.204  0.00  0.00    -0.067 N 
ATOM      9  H1  ALA d          24.409  38.649   7.177  0.00  0.00     0.275 HD
ATOM     10  H2  ALA d          24.692  37.045   6.941  0.00  0.00     0.275 HD
ATOM     11  H3  ALA d          25.852  38.150   6.561  0.00  0.00     0.275 HD
ENDBRANCH   6   8
ENDBRANCH   3   6
ENDBRANCH   1   2
BRANCH   1  12
ATOM     12  C   ALA d          28.079  34.798  11.132  0.00  0.00     0.243 C 
ATOM     13  O   ALA d          27.573  35.298  12.154  0.00  0.00    -0.271 OA
ATOM     14  N   ALA d          28.444  33.508  11.045  0.00  0.00    -0.346 N 
ATOM     15  H15 ALA d          28.913  33.181  10.224  0.00  0.00     0.163 HD
BRANCH  14  16
ATOM     16  CA  ALA d          28.161  32.569  12.146  0.00  0.00     0.172 C 
ATOM     17  CB  ALA d          28.240  31.128  11.677  0.00  0.00     0.042 C 
BRANCH  16  18
ATOM     18  C   ALA d          29.206  32.830  13.179  0.00  0.00     0.240 C 
ATOM     19  O   ALA d          30.388  32.823  12.875  0.00  0.00    -0.271 OA
ATOM     20  N   ALA d          28.767  33.070  14.402  0.00  0.00    -0.345 N 
ATOM     21  H20 ALA d          27.819  32.837  14.618  0.00  0.00     0.163 HD
BRANCH  20  22
ATOM     22  CA  ALA d          29.588  33.655  15.451  0.00  0.00     0.181 C 
ATOM     23  CB  ALA d          28.836  34.792  16.122  0.00  0.00     0.043 C 
BRANCH  22  24
ATOM     24  C   ALA d          29.923  32.574  16.458  0.00  0.00     0.196 C 
ATOM     25  O   ALA d          29.537  31.400  16.293  0.00  0.00    -0.646 OA
ATOM     26  OXT ALA d          30.585  32.884  17.454  0.00  0.00    -0.646 OA
ENDBRANCH  22  24
ENDBRANCH  20  22
ENDBRANCH  16  18
ENDBRANCH  14  16
ENDBRANCH   1  12
BRANCH   1  27
ATOM     27  CB  ALA d          29.843  36.321  10.161  0.00  0.00     0.146 C 
ATOM     28  CG2 ALA d          30.134  37.267   9.061  0.00  0.00     0.042 C 
BRANCH  27  29
ATOM     29  OG1 ALA d          29.873  37.050  11.392  0.00  0.00    -0.393 OA
ATOM     30  H11 ALA d          29.682  36.461  12.112  0.00  0.00     0.210 HD
ENDBRANCH  27  29
ENDBRANCH   1  27
TORSDOF 10
