REMARK  11 active torsions:
REMARK  status: ('A' for Active; 'I' for Inactive)
REMARK    1  A    between atoms: O4_23  and  C1_1 
REMARK    2  A    between atoms: C2_2  and  O2_7 
REMARK    3  A    between atoms: C3_3  and  O3_8 
REMARK    4  A    between atoms: C4_4  and  O4_9 
REMARK    5  A    between atoms: C5_5  and  C6_6 
REMARK    6  A    between atoms: C6_6  and  O6_11 
REMARK    7  A    between atoms: C3_14  and  O3_21 
REMARK    8  A    between atoms: C4_15  and  O4_23 
REMARK    9  A    between atoms: C5_16  and  C6_17 
REMARK   10  A    between atoms: C6_17  and  O6_25 
REMARK   11  A    between atoms: C2_24  and  O2_22 
ROOT
ATOM      1  C1  BMA d         -10.677 -20.445  10.336  0.00  0.00     0.138 A 
ATOM      2  N10 BMA d         -11.649 -19.566  10.546  0.00  0.00    -0.332 N 
ATOM      3  C3  BMA d         -10.615 -21.102  12.708  0.00  0.00     0.185 C 
ATOM      4  C4  BMA d         -11.688 -20.010  12.879  0.00  0.00     0.181 C 
ATOM      5  C5  BMA d         -12.596 -19.783  11.656  0.00  0.00     0.146 C 
ATOM      6  C7  BMA d         -10.505 -18.842   8.837  0.00  0.00     0.136 A 
ATOM      7  C8  BMA d         -11.591 -18.563   9.634  0.00  0.00     0.112 A 
ATOM      8  N1  BMA d          -9.979 -20.021   9.271  0.00  0.00    -0.243 NA
ATOM      9  C2  BMA d         -10.559 -21.621  11.287  0.00  0.00     0.219 C 
ENDROOT
BRANCH   4  10
ATOM     10  O4  BMA d         -12.565 -20.269  13.970  0.00  0.00    -0.348 OA
BRANCH  10  11
ATOM     11  C1  BMA d         -12.088 -20.313  15.234  0.00  0.00     0.292 C 
ATOM     12  C2  BMA d         -13.204 -19.912  16.185  0.00  0.00     0.204 C 
ATOM     13  C3  BMA d         -12.714 -20.038  17.625  0.00  0.00     0.183 C 
ATOM     14  C4  BMA d         -12.247 -21.456  17.896  0.00  0.00     0.180 C 
ATOM     15  C5  BMA d         -11.238 -21.891  16.830  0.00  0.00     0.179 C 
ATOM     16  O5  BMA d         -11.744 -21.675  15.507  0.00  0.00    -0.348 OA
BRANCH  12  17
ATOM     17  O2  BMA d         -14.359 -20.718  15.987  0.00  0.00    -0.388 OA
ATOM     18  H   BMA d         -15.047 -20.433  16.576  0.00  0.00     0.210 HD
ENDBRANCH  12  17
BRANCH  13  19
ATOM     19  O3  BMA d         -13.785 -19.667  18.506  0.00  0.00    -0.390 OA
ATOM     20  H   BMA d         -13.486 -19.721  19.406  0.00  0.00     0.210 HD
ENDBRANCH  13  19
BRANCH  14  21
ATOM     21  O4  BMA d         -11.681 -21.559  19.203  0.00  0.00    -0.390 OA
ATOM     22  H   BMA d         -10.915 -21.000  19.260  0.00  0.00     0.210 HD
ENDBRANCH  14  21
BRANCH  15  23
ATOM     23  C6  BMA d         -10.872 -23.369  16.947  0.00  0.00     0.198 C 
BRANCH  23  24
ATOM     24  O6  BMA d         -12.015 -24.202  16.785  0.00  0.00    -0.398 OA
ATOM     25  H   BMA d         -12.654 -23.995  17.457  0.00  0.00     0.209 HD
ENDBRANCH  23  24
ENDBRANCH  15  23
ENDBRANCH  10  11
ENDBRANCH   4  10
BRANCH   3  26
ATOM     26  O3  BMA d          -9.342 -20.554  13.110  0.00  0.00    -0.390 OA
ATOM     27  H   BMA d          -8.668 -21.216  13.011  0.00  0.00     0.210 HD
ENDBRANCH   3  26
BRANCH   5  28
ATOM     28  C6  BMA d         -13.573 -18.633  11.804  0.00  0.00     0.192 C 
BRANCH  28  29
ATOM     29  O6  BMA d         -12.958 -17.387  12.177  0.00  0.00    -0.399 OA
ATOM     30  H   BMA d         -12.517 -17.490  13.012  0.00  0.00     0.209 HD
ENDBRANCH  28  29
ENDBRANCH   5  28
BRANCH   9  31
ATOM     31  O2  BMA d          -9.366 -22.365  11.021  0.00  0.00    -0.385 OA
ATOM     32  H   BMA d          -9.377 -22.668  10.121  0.00  0.00     0.210 HD
ENDBRANCH   9  31
TORSDOF 11
