REMARK  11 active torsions:
REMARK  status: ('A' for Active; 'I' for Inactive)
REMARK    1  A    between atoms: C2_2  and  NA2_3 
REMARK    2  A    between atoms: C10_12  and  C9_11 
REMARK    3  A    between atoms: C9_11  and  C6_15 
REMARK    4  A    between atoms: C10_12  and  CA1_13 
REMARK    5  A    between atoms: C14_23  and  C10_12 
REMARK    6  A    between atoms: C11_18  and  C17_19 
REMARK       I    between atoms: C17_19  and  N_25 
REMARK    7  A    between atoms: N_25  and  CA_26 
REMARK    8  A    between atoms: CA_26  and  C_27 
REMARK    9  A    between atoms: CA_26  and  CB_29 
REMARK   10  A    between atoms: CB_29  and  CG_30 
REMARK   11  A    between atoms: CG_30  and  CD_31 
ROOT
ATOM      1  C10 NHR d          17.389   5.715  22.972  0.00  0.00     0.124 C 
ENDROOT
BRANCH   1   2
ATOM      2  C9  NHR d          17.245   4.162  22.549  0.00  0.00     0.058 C 
BRANCH   2   3
ATOM      3  C6  NHR d          18.561   3.400  22.557  0.00  0.00    -0.056 A 
ATOM      4  C7  NHR d          18.744   2.320  23.457  0.00  0.00     0.009 A 
ATOM      5  C8  NHR d          19.977   1.648  23.532  0.00  0.00     0.034 A 
ATOM      6  C8A NHR d          21.048   2.052  22.709  0.00  0.00     0.091 A 
ATOM      7  N1  NHR d          22.342   1.378  22.785  0.00  0.00    -0.064 NA
ATOM      8  C4A NHR d          20.852   3.152  21.767  0.00  0.00     0.062 A 
ATOM      9  C2  NHR d          23.344   1.736  22.022  0.00  0.00     0.701 A 
ATOM     10  N3  NHR d          23.217   2.823  21.053  0.00  0.00    -0.154 N 
ATOM     11  C4  NHR d          22.050   3.534  20.893  0.00  0.00     0.272 A 
ATOM     12  H3  NHR d          24.006   3.058  20.486  0.00  0.00     0.187 HD
ATOM     13  O4  NHR d          22.017   4.439  20.061  0.00  0.00    -0.267 OA
ATOM     14  C5  NHR d          19.613   3.811  21.711  0.00  0.00     0.026 A 
BRANCH   9  15
ATOM     15  NA2 NHR d          24.530   1.080  22.124  0.00  0.00    -0.233 N 
ATOM     16  H1  NHR d          24.637   0.312  22.802  0.00  0.00     0.174 HD
ATOM     17  H2  NHR d          25.322   1.351  21.524  0.00  0.00     0.174 HD
ENDBRANCH   9  15
ENDBRANCH   2   3
ENDBRANCH   1   2
BRANCH   1  18
ATOM     18  CA1 NHR d          16.241   6.609  22.532  0.00  0.00     0.181 C 
ATOM     19  OA1 NHR d          16.287   6.938  21.341  0.00  0.00    -0.647 OA
ATOM     20  OA2 NHR d          15.819   7.485  23.271  0.00  0.00    -0.647 OA
ENDBRANCH   1  18
BRANCH   1  21
ATOM     21  C14 NHR d          17.922   5.932  24.480  0.00  0.00    -0.043 A 
ATOM     22  C13 NHR d          18.480   7.192  24.916  0.00  0.00     0.009 A 
ATOM     23  C12 NHR d          18.991   7.327  26.242  0.00  0.00     0.017 A 
ATOM     24  C11 NHR d          18.938   6.232  27.174  0.00  0.00     0.032 A 
ATOM     25  C16 NHR d          18.375   5.017  26.723  0.00  0.00     0.017 A 
ATOM     26  C15 NHR d          17.867   4.871  25.428  0.00  0.00     0.009 A 
BRANCH  24  27
ATOM     27  C17 NHR d          19.510   6.310  28.605  0.00  0.00     0.252 C 
ATOM     28  O17 NHR d          20.175   7.294  28.981  0.00  0.00    -0.268 OA
ATOM     29  N   NHR d          19.286   5.261  29.467  0.00  0.00    -0.342 N 
ATOM     30  H14 NHR d          18.753   4.505  29.088  0.00  0.00     0.163 HD
BRANCH  29  31
ATOM     31  CA  NHR d          19.722   5.084  30.887  0.00  0.00     0.186 C 
BRANCH  31  32
ATOM     32  C   NHR d          18.989   5.860  32.065  0.00  0.00     0.196 C 
ATOM     33  O   NHR d          18.491   5.283  33.068  0.00  0.00    -0.646 OA
ATOM     34  OT  NHR d          18.931   7.215  31.911  0.00  0.00    -0.646 OA
ENDBRANCH  31  32
BRANCH  31  35
ATOM     35  CB  NHR d          21.275   5.252  31.000  0.00  0.00     0.046 C 
BRANCH  35  36
ATOM     36  CG  NHR d          22.195   4.012  31.331  0.00  0.00     0.116 C 
BRANCH  36  37
ATOM     37  CD  NHR d          21.457   2.675  31.350  0.00  0.00     0.172 C 
ATOM     38  OE1 NHR d          20.913   2.176  30.366  0.00  0.00    -0.648 OA
ATOM     39  OE2 NHR d          21.506   2.064  32.579  0.00  0.00    -0.648 OA
ENDBRANCH  36  37
ENDBRANCH  35  36
ENDBRANCH  31  35
ENDBRANCH  29  31
ENDBRANCH  24  27
ENDBRANCH   1  21
TORSDOF 11
