REMARK  9 active torsions:
REMARK  status: ('A' for Active; 'I' for Inactive)
REMARK    1  A    between atoms: C2_2  and  C1_1 
REMARK    2  A    between atoms: C4_4  and  O4_15 
REMARK    3  A    between atoms: N5_12  and  C5_5 
REMARK    4  A    between atoms: C6_6  and  C7_7 
REMARK    5  A    between atoms: C7_7  and  C8_8 
REMARK    6  A    between atoms: C7_7  and  O7_17 
REMARK    7  A    between atoms: C8_8  and  C9_9 
REMARK    8  A    between atoms: C8_8  and  O8_18 
REMARK    9  A    between atoms: C9_9  and  O9_19 
REMARK       I    between atoms: C10_10  and  N5_12 
ROOT
ATOM      1  C2  DAN d          14.880 -19.365  43.656  0.00  0.00     0.144 C 
ATOM      2  C3  DAN d          13.773 -18.995  42.887  0.00  0.00     0.050 C 
ATOM      3  C4  DAN d          13.991 -18.319  41.505  0.00  0.00     0.169 C 
ATOM      4  C5  DAN d          15.344 -18.719  40.914  0.00  0.00     0.149 C 
ATOM      5  C6  DAN d          16.447 -18.474  41.972  0.00  0.00     0.186 C 
ATOM      6  O6  DAN d          16.163 -19.191  43.217  0.00  0.00    -0.335 OA
ENDROOT
BRANCH   5   7
ATOM      7  C7  DAN d          17.873 -18.858  41.540  0.00  0.00     0.180 C 
BRANCH   7   8
ATOM      8  C8  DAN d          18.918 -18.743  42.654  0.00  0.00     0.173 C 
BRANCH   8   9
ATOM      9  C9  DAN d          20.295 -19.165  42.123  0.00  0.00     0.198 C 
BRANCH   9  10
ATOM     10  O9  DAN d          21.282 -19.041  43.147  0.00  0.00    -0.398 OA
ATOM     11  H16 DAN d          21.325 -18.137  43.436  0.00  0.00     0.209 HD
ENDBRANCH   9  10
ENDBRANCH   8   9
BRANCH   8  12
ATOM     12  O8  DAN d          18.964 -17.394  43.128  0.00  0.00    -0.391 OA
ATOM     13  H15 DAN d          19.602 -17.327  43.829  0.00  0.00     0.210 HD
ENDBRANCH   8  12
ENDBRANCH   7   8
BRANCH   7  14
ATOM     14  O7  DAN d          17.874 -20.185  41.054  0.00  0.00    -0.390 OA
ATOM     15  H14 DAN d          17.229 -20.268  40.362  0.00  0.00     0.210 HD
ENDBRANCH   7  14
ENDBRANCH   5   7
BRANCH   4  16
ATOM     16  N5  DAN d          15.583 -17.921  39.687  0.00  0.00    -0.351 N 
ATOM     17  C10 DAN d          16.205 -18.427  38.637  0.00  0.00     0.214 C 
ATOM     18  C11 DAN d          16.349 -17.466  37.438  0.00  0.00     0.117 C 
ATOM     19  O10 DAN d          16.683 -19.570  38.605  0.00  0.00    -0.274 OA
ATOM     20  H12 DAN d          15.264 -16.974  39.654  0.00  0.00     0.163 HD
ENDBRANCH   4  16
BRANCH   3  21
ATOM     21  O4  DAN d          12.886 -18.543  40.618  0.00  0.00    -0.389 OA
ATOM     22  H13 DAN d          12.080 -18.275  41.044  0.00  0.00     0.210 HD
ENDBRANCH   3  21
BRANCH   1  23
ATOM     23  C1  DAN d          14.730 -20.015  45.051  0.00  0.00     0.233 C 
ATOM     24  O1A DAN d          13.597 -20.251  45.523  0.00  0.00    -0.642 OA
ATOM     25  O1B DAN d          15.790 -20.248  45.644  0.00  0.00    -0.642 OA
ENDBRANCH   1  23
TORSDOF 9
