REMARK  5 active torsions:
REMARK  status: ('A' for Active; 'I' for Inactive)
REMARK    1  A    between atoms: C1_1  and  C2_4 
REMARK    2  A    between atoms: C2_4  and  O3_5 
REMARK    3  A    between atoms: C2_4  and  C3_6 
REMARK    4  A    between atoms: C3_6  and  O1P_7 
REMARK    5  A    between atoms: O1P_7  and  P_8 
ROOT
ATOM      1  C2  3PG d           6.364   7.874  21.560  0.00  0.00     0.243 C 
ENDROOT
BRANCH   1   2
ATOM      2  C1  3PG d           7.099   6.961  22.532  0.00  0.00     0.205 C 
ATOM      3  O1  3PG d           6.558   5.884  22.802  0.00  0.00    -0.646 OA
ATOM      4  O2  3PG d           8.234   7.252  22.932  0.00  0.00    -0.646 OA
ENDBRANCH   1   2
BRANCH   1   5
ATOM      5  O3  3PG d           7.239   8.883  21.069  0.00  0.00    -0.383 OA
ATOM      6  H2  3PG d           7.563   9.401  21.796  0.00  0.00     0.210 HD
ENDBRANCH   1   5
BRANCH   1   7
ATOM      7  C3  3PG d           5.091   8.448  22.183  0.00  0.00     0.225 C 
BRANCH   7   8
ATOM      8  O1P 3PG d           5.388   9.418  23.199  0.00  0.00    -0.280 OA
BRANCH   8   9
ATOM      9  P   3PG d           4.341   9.676  24.414  0.00  0.00     0.422 P 
ATOM     10  O2P 3PG d           4.305   8.415  25.182  0.00  0.00    -0.617 OA
ATOM     11  O3P 3PG d           3.023   9.959  23.707  0.00  0.00    -0.617 OA
ATOM     12  O4P 3PG d           5.057  10.763  25.173  0.00  0.00    -0.617 OA
ENDBRANCH   8   9
ENDBRANCH   7   8
ENDBRANCH   1   7
TORSDOF 5
