REMARK  9 active torsions:
REMARK  status: ('A' for Active; 'I' for Inactive)
REMARK    1  A    between atoms: C1_1  and  O1_7 
REMARK    2  A    between atoms: C2_2  and  O2_8 
REMARK    3  A    between atoms: C3_3  and  O3_9 
REMARK    4  A    between atoms: C4_4  and  O4_10 
REMARK    5  A    between atoms: C5_5  and  O5_11 
REMARK    6  A    between atoms: C6_6  and  O6_12 
REMARK    7  A    between atoms: O1_7  and  P1_13 
REMARK    8  A    between atoms: O4_10  and  P4_17 
REMARK    9  A    between atoms: O5_11  and  P5_21 
ROOT
ATOM      1  C1  I3P d          14.452   1.612  38.969  0.00  0.00     0.198 C 
ATOM      2  C2  I3P d          13.447   1.001  37.996  0.00  0.00     0.181 C 
ATOM      3  C3  I3P d          12.128   0.636  38.661  0.00  0.00     0.181 C 
ATOM      4  C4  I3P d          11.570   1.732  39.580  0.00  0.00     0.199 C 
ATOM      5  C5  I3P d          12.661   2.276  40.472  0.00  0.00     0.199 C 
ATOM      6  C6  I3P d          13.818   2.801  39.674  0.00  0.00     0.182 C 
ENDROOT
BRANCH   1   7
ATOM      7  O1  I3P d          15.665   2.011  38.327  0.00  0.00    -0.272 OA
BRANCH   7   8
ATOM      8  P1  I3P d          17.027   1.785  39.147  0.00  0.00     0.422 P 
ATOM      9  O11 I3P d          17.395   0.327  39.144  0.00  0.00    -0.617 OA
ATOM     10  O12 I3P d          16.812   2.237  40.587  0.00  0.00    -0.617 OA
ATOM     11  O13 I3P d          18.146   2.599  38.529  0.00  0.00    -0.617 OA
ENDBRANCH   7   8
ENDBRANCH   1   7
BRANCH   2  12
ATOM     12  O2  I3P d          13.187   1.935  36.933  0.00  0.00    -0.390 OA
ATOM     13  H7  I3P d          12.605   1.536  36.297  0.00  0.00     0.210 HD
ENDBRANCH   2  12
BRANCH   6  14
ATOM     14  O6  I3P d          14.722   3.438  40.571  0.00  0.00    -0.390 OA
ATOM     15  H9  I3P d          14.278   4.152  41.013  0.00  0.00     0.210 HD
ENDBRANCH   6  14
BRANCH   3  16
ATOM     16  O3  I3P d          11.162   0.352  37.666  0.00  0.00    -0.390 OA
ATOM     17  H8  I3P d          10.985   1.139  37.164  0.00  0.00     0.210 HD
ENDBRANCH   3  16
BRANCH   5  18
ATOM     18  O5  I3P d          12.161   3.315  41.326  0.00  0.00    -0.272 OA
BRANCH  18  19
ATOM     19  P5  I3P d          12.723   3.379  42.810  0.00  0.00     0.422 P 
ATOM     20  O51 I3P d          13.735   4.504  42.892  0.00  0.00    -0.617 OA
ATOM     21  O52 I3P d          13.397   2.087  43.190  0.00  0.00    -0.617 OA
ATOM     22  O53 I3P d          11.585   3.645  43.775  0.00  0.00    -0.617 OA
ENDBRANCH  18  19
ENDBRANCH   5  18
BRANCH   4  23
ATOM     23  O4  I3P d          10.553   1.217  40.418  0.00  0.00    -0.272 OA
BRANCH  23  24
ATOM     24  P4  I3P d           9.244   2.120  40.785  0.00  0.00     0.422 P 
ATOM     25  O41 I3P d           8.572   2.579  39.511  0.00  0.00    -0.617 OA
ATOM     26  O42 I3P d           9.601   3.334  41.609  0.00  0.00    -0.617 OA
ATOM     27  O43 I3P d           8.273   1.281  41.585  0.00  0.00    -0.617 OA
ENDBRANCH  23  24
ENDBRANCH   4  23
TORSDOF 9
