REMARK  3 active torsions:
REMARK  status: ('A' for Active; 'I' for Inactive)
REMARK    1  A    between atoms: C1_1  and  S1_12 
REMARK    2  A    between atoms: N4_8  and  C2_2 
REMARK       I    between atoms: C3_3  and  N4_8 
REMARK    3  A    between atoms: S1_12  and  N1_5 
ROOT
ATOM      1  C1  AZM d          33.819  59.364  18.156  0.00  0.00     0.237 A 
ATOM      2  C2  AZM d          35.408  60.050  19.733  0.00  0.00     0.197 A 
ATOM      3  N2  AZM d          35.636  58.837  19.290  0.00  0.00    -0.122 NA
ATOM      4  N3  AZM d          34.698  58.440  18.363  0.00  0.00    -0.126 NA
ATOM      5  S2  AZM d          34.017  60.812  19.053  0.00  0.00    -0.015 SA
ENDROOT
BRANCH   1   6
ATOM      6  S1  AZM d          32.474  59.156  17.009  0.00  0.00     0.282 S 
ATOM      7  O1  AZM d          31.945  57.873  17.326  0.00  0.00    -0.199 OA
ATOM      8  O2  AZM d          31.664  60.325  17.142  0.00  0.00    -0.199 OA
BRANCH   6   9
ATOM      9  N1  AZM d          33.063  59.114  15.556  0.00  0.00    -0.323 N 
ATOM     10  H4  AZM d          32.452  59.002  14.772  0.00  0.00     0.169 HD
ATOM     11  H5  AZM d          34.049  59.200  15.414  0.00  0.00     0.169 HD
ENDBRANCH   6   9
ENDBRANCH   1   6
BRANCH   2  12
ATOM     12  N4  AZM d          36.240  60.635  20.668  0.00  0.00    -0.305 N 
ATOM     13  C3  AZM d          36.094  61.915  21.199  0.00  0.00     0.219 C 
ATOM     14  C4  AZM d          37.307  62.447  21.894  0.00  0.00     0.117 C 
ATOM     15  O3  AZM d          35.041  62.532  21.095  0.00  0.00    -0.274 OA
ATOM     16  H6  AZM d          37.015  60.092  20.992  0.00  0.00     0.171 HD
ENDBRANCH   2  12
TORSDOF 3
