REMARK  6 active torsions:
REMARK  status: ('A' for Active; 'I' for Inactive)
REMARK    1  A    between atoms: C1_1  and  O1_6 
REMARK    2  A    between atoms: C2_2  and  C3_3 
REMARK    3  A    between atoms: C2_2  and  O2_7 
REMARK    4  A    between atoms: C4_4  and  O4_9 
REMARK    5  A    between atoms: C5_5  and  O5_11 
REMARK    6  A    between atoms: C6_10  and  O6_12 
ROOT
ATOM      1  C3  GZL d          33.040  27.639  12.676  0.00  0.00     0.242 C 
ATOM      2  C4  GZL d          33.100  29.118  12.943  0.00  0.00     0.113 C 
ATOM      3  C5  GZL d          33.294  29.779  11.810  0.00  0.00     0.130 C 
ATOM      4  O3  GZL d          33.468  27.539  11.311  0.00  0.00    -0.337 OA
ATOM      5  C6  GZL d          33.514  28.828  10.689  0.00  0.00     0.318 C 
ENDROOT
BRANCH   1   6
ATOM      6  C2  GZL d          33.801  26.648  13.537  0.00  0.00     0.100 C 
ATOM      7  C1  GZL d          34.322  26.945  14.744  0.00  0.00     0.166 C 
BRANCH   7   8
ATOM      8  O1  GZL d          34.966  26.027  15.471  0.00  0.00    -0.370 OA
ATOM      9  H3  GZL d          35.260  26.419  16.285  0.00  0.00     0.216 HD
ENDBRANCH   7   8
BRANCH   6  10
ATOM     10  O2  GZL d          33.869  25.389  13.090  0.00  0.00    -0.360 OA
ATOM     11  H4  GZL d          34.365  24.862  13.705  0.00  0.00     0.217 HD
ENDBRANCH   6  10
ENDBRANCH   1   6
BRANCH   2  12
ATOM     12  O4  GZL d          32.891  29.646  14.144  0.00  0.00    -0.359 OA
ATOM     13  H5  GZL d          32.783  28.949  14.781  0.00  0.00     0.217 HD
ENDBRANCH   2  12
BRANCH   3  14
ATOM     14  O5  GZL d          33.335  31.098  11.613  0.00  0.00    -0.358 OA
ATOM     15  H7  GZL d          33.173  31.545  12.435  0.00  0.00     0.217 HD
ENDBRANCH   3  14
BRANCH   5  16
ATOM     16  O6  GZL d          32.495  28.930   9.700  0.00  0.00    -0.365 OA
ATOM     17  H8  GZL d          32.628  28.260   9.040  0.00  0.00     0.213 HD
ENDBRANCH   5  16
TORSDOF 6
