REMARK  11 active torsions:
REMARK  status: ('A' for Active; 'I' for Inactive)
REMARK    1  A    between atoms: P1_2  and  C1_5 
REMARK    2  A    between atoms: C1_5  and  P2_6 
REMARK    3  A    between atoms: C1_5  and  C2_10 
REMARK    4  A    between atoms: C2_10  and  N1_11 
REMARK    5  A    between atoms: C6_13  and  O7_17 
REMARK    6  A    between atoms: O7_17  and  C8_18 
REMARK    7  A    between atoms: C8_18  and  C9_19 
REMARK    8  A    between atoms: C9_19  and  C10_20 
REMARK    9  A    between atoms: C10_20  and  C11_21 
REMARK   10  A    between atoms: C11_21  and  C12_22 
REMARK   11  A    between atoms: C12_22  and  C13_23 
ROOT
ATOM      1  N1  MOL d          28.327 -15.648  11.223  0.00  0.00    -0.362 N 
ATOM      2  C7  MOL d          28.279 -16.910  11.654  0.00  0.00     0.127 A 
ATOM      3  C6  MOL d          28.830 -17.283  12.867  0.00  0.00     0.084 A 
ATOM      4  C5  MOL d          29.476 -16.319  13.651  0.00  0.00     0.039 A 
ATOM      5  C4  MOL d          29.533 -15.009  13.185  0.00  0.00     0.020 A 
ATOM      6  C3  MOL d          28.954 -14.703  11.944  0.00  0.00     0.090 A 
ENDROOT
BRANCH   1   7
ATOM      7  C2  MOL d          27.706 -15.415   9.914  0.00  0.00     0.160 C 
BRANCH   7   8
ATOM      8  C1  MOL d          26.990 -14.085   9.760  0.00  0.00     0.263 C 
BRANCH   8   9
ATOM      9  P1  MOL d          26.316 -14.117   8.063  0.00  0.00     0.279 P 
ATOM     10  O1  MOL d          25.467 -12.596   7.898  0.00  0.00    -0.639 OA
ATOM     11  O3  MOL d          25.169 -15.453   8.076  0.00  0.00    -0.639 OA
ATOM     12  O2  MOL d          27.755 -14.261   7.048  0.00  0.00    -0.639 OA
ENDBRANCH   8   9
BRANCH   8  13
ATOM     13  P2  MOL d          25.635 -13.907  10.957  0.00  0.00     0.279 P 
ATOM     14  O4  MOL d          24.594 -12.547  10.445  0.00  0.00    -0.639 OA
ATOM     15  O5  MOL d          26.178 -13.701  12.622  0.00  0.00    -0.639 OA
ATOM     16  O6  MOL d          24.633 -15.348  11.035  0.00  0.00    -0.639 OA
ENDBRANCH   8  13
ENDBRANCH   7   8
ENDBRANCH   1   7
BRANCH   3  17
ATOM     17  O7  MOL d          28.726 -18.597  13.227  0.00  0.00    -0.350 OA
BRANCH  17  18
ATOM     18  C8  MOL d          29.309 -19.057  14.448  0.00  0.00     0.175 C 
BRANCH  18  19
ATOM     19  C9  MOL d          28.990 -20.518  14.693  0.00  0.00     0.027 C 
BRANCH  19  20
ATOM     20  C10 MOL d          29.809 -20.936  15.930  0.00  0.00     0.002 C 
BRANCH  20  21
ATOM     21  C11 MOL d          29.334 -22.257  16.504  0.00  0.00     0.000 C 
BRANCH  21  22
ATOM     22  C12 MOL d          29.157 -23.324  15.445  0.00  0.00    -0.000 C 
BRANCH  22  23
ATOM     23  C13 MOL d          27.801 -23.982  15.610  0.00  0.00    -0.005 C 
ATOM     24  C14 MOL d          27.876 -25.491  15.573  0.00  0.00     0.005 C 
ENDBRANCH  22  23
ENDBRANCH  21  22
ENDBRANCH  20  21
ENDBRANCH  19  20
ENDBRANCH  18  19
ENDBRANCH  17  18
ENDBRANCH   3  17
TORSDOF 11
