REMARK  6 active torsions:
REMARK  status: ('A' for Active; 'I' for Inactive)
REMARK    1  A    between atoms: C1_1  and  C7_8 
REMARK    2  A    between atoms: C7_8  and  N1_9 
REMARK    3  A    between atoms: C8_13  and  C1'_14 
REMARK    4  A    between atoms: C5'_18  and  O5'_19 
REMARK    5  A    between atoms: O5'_19  and  C2''_23 
REMARK    6  A    between atoms: C6'_20  and  O6'_21 
ROOT
ATOM      1  C1  MOL d          43.964  -3.075  25.529  0.00  0.00     0.030 A 
ATOM      2  C2  MOL d          43.800  -1.663  25.431  0.00  0.00     0.050 A 
ATOM      3 CL2  MOL d          43.768  -0.659  23.952  0.00  0.00    -0.083 Cl
ATOM      4  C3  MOL d          43.586  -0.895  26.591  0.00  0.00     0.055 A 
ATOM      5  C4  MOL d          43.519  -1.540  27.805  0.00  0.00     0.044 A 
ATOM      6  C5  MOL d          43.703  -2.879  27.900  0.00  0.00    -0.006 A 
ATOM      7  C6  MOL d          43.914  -3.688  26.789  0.00  0.00     0.030 A 
ATOM      8  N3  MOL d          43.354  -1.044  29.003  0.00  0.00    -0.355 N 
ATOM      9  CN4 MOL d          43.597  -3.206  29.218  0.00  0.00     0.044 A 
ATOM     10  C8  MOL d          43.379  -2.017  29.892  0.00  0.00     0.046 A 
ATOM     11  H7  MOL d          43.224  -0.045  29.219  0.00  0.00     0.166 HD
ENDROOT
BRANCH  10  12
ATOM     12  C1' MOL d          43.193  -1.876  31.281  0.00  0.00     0.027 A 
ATOM     13  C2' MOL d          43.012  -3.013  32.098  0.00  0.00     0.017 A 
ATOM     14  C3' MOL d          42.835  -2.862  33.484  0.00  0.00     0.004 A 
ATOM     15  C4' MOL d          42.839  -1.602  34.065  0.00  0.00     0.040 A 
ATOM     16  C5' MOL d          43.017  -0.461  33.280  0.00  0.00     0.103 A 
ATOM     17  C6' MOL d          43.192  -0.589  31.884  0.00  0.00     0.111 A 
BRANCH  16  18
ATOM     18  O5' MOL d          43.055   0.811  33.823  0.00  0.00    -0.343 OA
BRANCH  18  19
ATOM     19  C2' MOL d          43.128   1.088  35.221  0.00  0.00     0.129 C 
ATOM     20  C3' MOL d          44.585   1.181  35.684  0.00  0.00     0.032 C 
ATOM     21  C4' MOL d          44.864   2.623  35.992  0.00  0.00     0.002 C 
ATOM     22  C5' MOL d          43.538   3.319  36.027  0.00  0.00     0.002 C 
ATOM     23  C1' MOL d          42.523   2.450  35.340  0.00  0.00     0.032 C 
ENDBRANCH  18  19
ENDBRANCH  16  18
BRANCH  17  24
ATOM     24  O6' MOL d          43.353   0.556  31.118  0.00  0.00    -0.357 OA
ATOM     25  H12 MOL d          43.459   0.313  30.206  0.00  0.00     0.217 HD
ENDBRANCH  17  24
ENDBRANCH  10  12
BRANCH   1  26
ATOM     26  C7  MOL d          44.215  -3.847  24.376  0.00  0.00     0.104 C 
ATOM     27  N2  MOL d          44.963  -3.272  23.465  0.00  0.00    -0.385 N 
ATOM     28  H5  MOL d          45.318  -2.317  23.618  0.00  0.00     0.157 HD
ATOM     29  H6  MOL d          45.196  -3.775  22.597  0.00  0.00     0.157 HD
BRANCH  26  30
ATOM     30  N1  MOL d          43.733  -5.068  24.234  0.00  0.00    -0.385 N 
ATOM     31  H3  MOL d          43.935  -5.605  23.379  0.00  0.00     0.157 HD
ATOM     32  H4  MOL d          43.155  -5.483  24.978  0.00  0.00     0.157 HD
ENDBRANCH  26  30
ENDBRANCH   1  26
TORSDOF 6
