REMARK  8 active torsions:
REMARK  status: ('A' for Active; 'I' for Inactive)
REMARK    1  A    between atoms: O3A_8  and  PB_1 
REMARK    2  A    between atoms: PA_5  and  O3A_8 
REMARK    3  A    between atoms: PA_5  and  O5'_9 
REMARK    4  A    between atoms: O5'_9  and  C5'_10 
REMARK    5  A    between atoms: C5'_10  and  C4'_11 
REMARK    6  A    between atoms: C3'_13  and  O3'_14 
REMARK    7  A    between atoms: C2'_15  and  O2'_16 
REMARK    8  A    between atoms: C1'_17  and  N9_18 
ROOT
ATOM      1  C4' ADP d         -35.910 -63.973 -10.392  0.00  0.00     0.180 C 
ATOM      2  O4' ADP d         -36.274 -63.578  -9.065  0.00  0.00    -0.353 OA
ATOM      3  C3' ADP d         -36.434 -62.751 -11.167  0.00  0.00     0.182 C 
ATOM      4  C2' ADP d         -37.859 -62.644 -10.593  0.00  0.00     0.198 C 
ATOM      5  C1' ADP d         -37.536 -62.760  -9.114  0.00  0.00     0.262 C 
ENDROOT
BRANCH   5   6
ATOM      6  N9  ADP d         -36.901 -61.737  -8.152  0.00  0.00    -0.294 N 
ATOM      7  C8  ADP d         -35.764 -61.489  -7.448  0.00  0.00     0.214 A 
ATOM      8  N7  ADP d         -35.822 -60.375  -6.749  0.00  0.00    -0.236 NA
ATOM      9  C5  ADP d         -37.080 -59.838  -7.009  0.00  0.00     0.149 A 
ATOM     10  C6  ADP d         -37.791 -58.633  -6.565  0.00  0.00     0.155 A 
ATOM     11  C4  ADP d         -37.748 -60.668  -7.884  0.00  0.00     0.167 A 
ATOM     12  N6  ADP d         -37.278 -57.734  -5.693  0.00  0.00    -0.382 N 
ATOM     13  N1  ADP d         -39.072 -58.424  -7.062  0.00  0.00    -0.222 NA
ATOM     14  H10 ADP d         -37.829 -56.907  -5.421  0.00  0.00     0.157 HD
ATOM     15  H11 ADP d         -36.336 -57.876  -5.301  0.00  0.00     0.157 HD
ATOM     16  C2  ADP d         -39.596 -59.319  -7.905  0.00  0.00     0.237 A 
ATOM     17  N3  ADP d         -39.023 -60.470  -8.368  0.00  0.00    -0.222 NA
ENDBRANCH   5   6
BRANCH   4  18
ATOM     18  O2' ADP d         -38.604 -63.721 -10.986  0.00  0.00    -0.388 OA
ATOM     19  H7  ADP d         -39.480 -63.646 -10.627  0.00  0.00     0.210 HD
ENDBRANCH   4  18
BRANCH   1  20
ATOM     20  C5' ADP d         -34.447 -64.086 -10.267  0.00  0.00     0.216 C 
BRANCH  20  21
ATOM     21  O5' ADP d         -33.752 -62.856 -10.030  0.00  0.00    -0.287 OA
BRANCH  21  22
ATOM     22  PA  ADP d         -32.376 -62.310 -10.643  0.00  0.00     0.418 P 
ATOM     23  O1A ADP d         -32.610 -60.986 -11.235  0.00  0.00    -0.624 OA
ATOM     24  O2A ADP d         -31.849 -63.314 -11.532  0.00  0.00    -0.624 OA
BRANCH  22  25
ATOM     25  O3A ADP d         -31.332 -62.174  -9.411  0.00  0.00    -0.173 OA
BRANCH  25  26
ATOM     26  PB  ADP d         -29.787 -61.788  -9.307  0.00  0.00     0.431 P 
ATOM     27  O1B ADP d         -29.619 -60.849  -8.183  0.00  0.00    -0.616 OA
ATOM     28  O2B ADP d         -29.426 -61.220 -10.623  0.00  0.00    -0.616 OA
ATOM     29  O3B ADP d         -29.201 -63.114  -9.063  0.00  0.00    -0.616 OA
ENDBRANCH  25  26
ENDBRANCH  22  25
ENDBRANCH  21  22
ENDBRANCH  20  21
ENDBRANCH   1  20
BRANCH   3  30
ATOM     30  O3' ADP d         -36.248 -62.920 -12.563  0.00  0.00    -0.390 OA
ATOM     31  H5  ADP d         -36.578 -62.155 -13.020  0.00  0.00     0.210 HD
ENDBRANCH   3  30
TORSDOF 8
