REMARK  3 active torsions:
REMARK  status: ('A' for Active; 'I' for Inactive)
REMARK    1  A    between atoms: C09_9  and  N10_10 
REMARK    2  A    between atoms: N10_10  and  C11_11 
REMARK    3  A    between atoms: N17_17  and  C18_18 
ROOT
ATOM      1  N01 P19 d          19.613  10.424  19.149  0.00  0.00    -0.163 NA
ATOM      2  C02 P19 d          19.753  10.789  17.855  0.00  0.00     0.143 A 
ATOM      3  C03 P19 d          20.741   9.976  17.287  0.00  0.00     0.074 A 
ATOM      4  C04 P19 d          21.184   9.093  18.346  0.00  0.00     0.189 A 
ATOM      5  N05 P19 d          20.467   9.404  19.466  0.00  0.00    -0.042 N 
ATOM      6  N06 P19 d          22.112   8.123  18.391  0.00  0.00    -0.042 NA
ATOM      7  C07 P19 d          22.292   7.501  19.551  0.00  0.00     0.744 A 
ATOM      8  N08 P19 d          21.602   7.791  20.652  0.00  0.00     0.131 NA
ATOM      9  C09 P19 d          20.682   8.752  20.600  0.00  0.00     0.745 A 
ATOM     10  N17 P19 d          23.247   6.533  19.593  0.00  0.00    -0.188 N 
ATOM     11  H9  P19 d          24.098   6.691  19.034  0.00  0.00     0.184 HD
ENDROOT
BRANCH  10  12
ATOM     12  C18 P19 d          23.183   5.376  20.304  0.00  0.00     0.049 A 
ATOM     13  C19 P19 d          22.507   5.257  21.520  0.00  0.00     0.030 A 
ATOM     14  C20 P19 d          22.458   4.056  22.226  0.00  0.00     0.002 A 
ATOM     15  C21 P19 d          23.104   2.941  21.699  0.00  0.00     0.000 A 
ATOM     16  C22 P19 d          23.795   3.046  20.492  0.00  0.00     0.002 A 
ATOM     17  C23 P19 d          23.835   4.254  19.796  0.00  0.00     0.030 A 
ENDBRANCH  10  12
BRANCH   9  18
ATOM     18  N10 P19 d          19.968   9.061  21.714  0.00  0.00    -0.188 N 
ATOM     19  H3  P19 d          19.273   9.817  21.633  0.00  0.00     0.184 HD
BRANCH  18  20
ATOM     20  C11 P19 d          20.091   8.459  22.927  0.00  0.00     0.049 A 
ATOM     21  C12 P19 d          20.264   7.081  23.073  0.00  0.00     0.030 A 
ATOM     22  C13 P19 d          20.334   6.479  24.329  0.00  0.00     0.002 A 
ATOM     23  C14 P19 d          20.225   7.275  25.467  0.00  0.00     0.000 A 
ATOM     24  C15 P19 d          20.071   8.655  25.334  0.00  0.00     0.002 A 
ATOM     25  C16 P19 d          20.007   9.248  24.073  0.00  0.00     0.030 A 
ENDBRANCH  18  20
ENDBRANCH   9  18
TORSDOF 3
