REMARK  8 active torsions:
REMARK  status: ('A' for Active; 'I' for Inactive)
REMARK    1  A    between atoms: O5'_14  and  PA_1 
REMARK    2  A    between atoms: C1'_22  and  N1_5 
REMARK    3  A    between atoms: C5_6  and  N5_10 
REMARK    4  A    between atoms: C4_7  and  C6_11 
REMARK    5  A    between atoms: C5'_19  and  O5'_14 
REMARK    6  A    between atoms: C2'_15  and  O2'_16 
REMARK    7  A    between atoms: C3'_17  and  O3'_18 
REMARK    8  A    between atoms: C5'_19  and  C4'_20 
ROOT
ATOM      1  C2' C2R d          13.175 -14.294 -13.102  0.00  0.00     0.198 C 
ATOM      2  C3' C2R d          12.556 -13.189 -12.244  0.00  0.00     0.182 C 
ATOM      3  C4' C2R d          13.395 -11.963 -12.622  0.00  0.00     0.180 C 
ATOM      4  O4' C2R d          14.428 -12.454 -13.493  0.00  0.00    -0.353 OA
ATOM      5  C1' C2R d          13.739 -13.457 -14.248  0.00  0.00     0.262 C 
ENDROOT
BRANCH   5   6
ATOM      6  N1  C2R d          14.640 -14.311 -15.052  0.00  0.00    -0.295 N 
ATOM      7  C5  C2R d          14.568 -14.510 -16.364  0.00  0.00     0.140 A 
ATOM      8  C4  C2R d          15.491 -15.497 -16.680  0.00  0.00     0.178 A 
ATOM      9  N3  C2R d          16.115 -15.845 -15.559  0.00  0.00    -0.233 NA
ATOM     10  C2  C2R d          15.590 -15.115 -14.576  0.00  0.00     0.214 A 
BRANCH   7  11
ATOM     11  N5  C2R d          13.835 -13.808 -17.222  0.00  0.00    -0.383 N 
ATOM     12  H2  C2R d          13.849 -14.044 -18.225  0.00  0.00     0.157 HD
ATOM     13  H3  C2R d          13.253 -13.028 -16.884  0.00  0.00     0.157 HD
ENDBRANCH   7  11
BRANCH   8  14
ATOM     14  C6  C2R d          15.685 -16.139 -18.054  0.00  0.00     0.232 C 
ATOM     15  O7  C2R d          14.958 -15.740 -18.989  0.00  0.00    -0.643 OA
ATOM     16  O8  C2R d          16.545 -17.040 -18.163  0.00  0.00    -0.643 OA
ENDBRANCH   8  14
ENDBRANCH   5   6
BRANCH   1  17
ATOM     17  O2' C2R d          12.166 -15.168 -13.614  0.00  0.00    -0.388 OA
ATOM     18  H5  C2R d          11.559 -14.670 -14.148  0.00  0.00     0.210 HD
ENDBRANCH   1  17
BRANCH   2  19
ATOM     19  O3' C2R d          11.195 -12.975 -12.626  0.00  0.00    -0.390 OA
ATOM     20  H7  C2R d          10.703 -13.778 -12.504  0.00  0.00     0.210 HD
ENDBRANCH   2  19
BRANCH   3  21
ATOM     21  C5' C2R d          14.004 -11.323 -11.374  0.00  0.00     0.217 C 
BRANCH  21  22
ATOM     22  O5' C2R d          14.844 -12.266 -10.706  0.00  0.00    -0.280 OA
BRANCH  22  23
ATOM     23  PA  C2R d          15.564 -11.881  -9.319  0.00  0.00     0.422 P 
ATOM     24  O1A C2R d          14.397 -11.672  -8.232  0.00  0.00    -0.617 OA
ATOM     25  O2A C2R d          16.540 -12.908  -8.891  0.00  0.00    -0.617 OA
ATOM     26  O3A C2R d          16.246 -10.442  -9.546  0.00  0.00    -0.617 OA
ENDBRANCH  22  23
ENDBRANCH  21  22
ENDBRANCH   3  21
TORSDOF 8
