REMARK  23 active torsions:
REMARK  status: ('A' for Active; 'I' for Inactive)
REMARK    1  A    between atoms: C1_1  and  C2_3 
REMARK       I    between atoms: C1_1  and  N_11 
REMARK    2  A    between atoms: C2_3  and  C3_4 
REMARK    3  A    between atoms: C3_4  and  C1'_5 
REMARK    4  A    between atoms: CA_12  and  C_13 
REMARK       I    between atoms: C_13  and  N_18 
REMARK    5  A    between atoms: N_18  and  CA_19 
REMARK    6  A    between atoms: CA_19  and  C_20 
REMARK    7  A    between atoms: CA_19  and  CB_22 
REMARK       I    between atoms: C_20  and  N_26 
REMARK    8  A    between atoms: CB_22  and  CG_23 
REMARK    9  A    between atoms: N_26  and  CA_27 
REMARK   10  A    between atoms: CA_27  and  C_28 
REMARK   11  A    between atoms: CA_27  and  CB_30 
REMARK       I    between atoms: C_28  and  N_36 
REMARK   12  A    between atoms: CB_30  and  CG_31 
REMARK   13  A    between atoms: N_36  and  CA_37 
REMARK   14  A    between atoms: CA_37  and  C_38 
REMARK   15  A    between atoms: CA_37  and  CB_40 
REMARK       I    between atoms: C_38  and  N_42 
REMARK   16  A    between atoms: CB_40  and  OG_41 
REMARK   17  A    between atoms: N_42  and  CA_43 
REMARK   18  A    between atoms: CA_43  and  CB_44 
REMARK   19  A    between atoms: CA_43  and  C_51 
REMARK   20  A    between atoms: CB_44  and  OG1_46 
REMARK   21  A    between atoms: OG1_46  and  P_47 
REMARK       I    between atoms: C_51  and  N_53 
REMARK   22  A    between atoms: N_53  and  CA_54 
REMARK   23  A    between atoms: CA_54  and  C_55 
REMARK       I    between atoms: C_55  and  N_58 
ROOT
ATOM      1  CA  HCI d         -10.425  23.101 -11.815  0.00  0.00     0.182 C 
ENDROOT
BRANCH   1   2
ATOM      2  N   HCI d          -9.558  24.254 -11.624  0.00  0.00    -0.346 N 
ATOM      3  C   HCI d          -9.001  24.562 -10.459  0.00  0.00     0.241 C 
ATOM      4  O   HCI d          -8.992  23.806  -9.489  0.00  0.00    -0.271 OA
ATOM      5  H28 HCI d          -9.373  24.844 -12.410  0.00  0.00     0.163 HD
BRANCH   3   6
ATOM      6  CA  HCI d          -8.369  25.951 -10.386  0.00  0.00     0.177 C 
BRANCH   6   7
ATOM      7  N   HCI d          -8.272  26.468  -9.020  0.00  0.00    -0.346 N 
ATOM      8  C   HCI d          -8.315  27.775  -8.764  0.00  0.00     0.241 C 
ATOM      9  O   HCI d          -8.112  28.637  -9.620  0.00  0.00    -0.271 OA
ATOM     10  H17 HCI d          -8.171  25.825  -8.261  0.00  0.00     0.163 HD
BRANCH   8  11
ATOM     11  CA  HCI d          -8.621  28.192  -7.323  0.00  0.00     0.179 C 
ATOM     12  N   HCI d          -9.485  27.237  -6.610  0.00  0.00    -0.339 N 
ATOM     13  C1  HCI d         -10.641  26.751  -7.108  0.00  0.00     0.220 C 
ATOM     14  CD  HCI d          -8.972  26.947  -5.256  0.00  0.00     0.127 C 
ATOM     15  O1  HCI d         -11.056  27.037  -8.233  0.00  0.00    -0.273 OA
ATOM     16  CG  HCI d          -7.855  27.955  -5.081  0.00  0.00     0.022 C 
ATOM     17  CB  HCI d          -7.350  28.218  -6.468  0.00  0.00     0.037 C 
BRANCH  13  18
ATOM     18  C2  HCI d         -11.439  25.807  -6.209  0.00  0.00     0.107 C 
BRANCH  18  19
ATOM     19  C3  HCI d         -12.556  25.106  -6.990  0.00  0.00     0.047 C 
BRANCH  19  20
ATOM     20  C1' HCI d         -13.577  24.432  -6.112  0.00  0.00    -0.058 A 
ATOM     21  C2' HCI d         -14.859  24.953  -5.990  0.00  0.00     0.007 A 
ATOM     22  C3' HCI d         -15.804  24.336  -5.179  0.00  0.00     0.001 A 
ATOM     23  C4' HCI d         -15.473  23.175  -4.484  0.00  0.00     0.000 A 
ATOM     24  C5' HCI d         -14.194  22.642  -4.598  0.00  0.00     0.001 A 
ATOM     25  C6' HCI d         -13.254  23.272  -5.409  0.00  0.00     0.007 A 
ENDBRANCH  19  20
ENDBRANCH  18  19
ENDBRANCH  13  18
ENDBRANCH   8  11
ENDBRANCH   6   7
BRANCH   6  26
ATOM     26  CB  HCI d          -7.040  26.019 -11.147  0.00  0.00     0.038 C 
BRANCH  26  27
ATOM     27  CG  HCI d          -5.803  25.240 -10.725  0.00  0.00    -0.020 C 
ATOM     28  CD1 HCI d          -5.021  24.962 -11.988  0.00  0.00     0.009 C 
ATOM     29  CD2 HCI d          -4.956  26.046  -9.748  0.00  0.00     0.009 C 
ENDBRANCH  26  27
ENDBRANCH   6  26
ENDBRANCH   3   6
ENDBRANCH   1   2
BRANCH   1  30
ATOM     30  C   HCI d         -10.376  22.682 -13.279  0.00  0.00     0.241 C 
ATOM     31  O   HCI d          -9.824  23.392 -14.116  0.00  0.00    -0.271 OA
ATOM     32  N   HCI d         -10.950  21.521 -13.579  0.00  0.00    -0.344 N 
ATOM     33  H35 HCI d         -11.320  20.956 -12.841  0.00  0.00     0.163 HD
BRANCH  32  34
ATOM     34  CA  HCI d         -11.055  21.049 -14.953  0.00  0.00     0.200 C 
BRANCH  34  35
ATOM     35  C   HCI d         -12.061  21.907 -15.734  0.00  0.00     0.243 C 
ATOM     36  O   HCI d         -12.675  22.821 -15.177  0.00  0.00    -0.271 OA
ATOM     37  N   HCI d         -12.218  21.607 -17.019  0.00  0.00    -0.344 N 
ATOM     38  H40 HCI d         -11.724  20.820 -17.389  0.00  0.00     0.163 HD
BRANCH  37  39
ATOM     39  CA  HCI d         -13.082  22.376 -17.918  0.00  0.00     0.205 C 
BRANCH  39  40
ATOM     40  CB  HCI d         -13.011  21.759 -19.317  0.00  0.00     0.163 C 
ATOM     41  CG2 HCI d         -13.811  22.562 -20.342  0.00  0.00     0.043 C 
BRANCH  40  42
ATOM     42  OG1 HCI d         -11.644  21.738 -19.727  0.00  0.00    -0.275 OA
BRANCH  42  43
ATOM     43  P   HCI d         -10.775  20.389 -19.885  0.00  0.00     0.422 P 
ATOM     44  O1P HCI d         -11.500  19.602 -20.946  0.00  0.00    -0.617 OA
ATOM     45  O2P HCI d         -10.769  19.754 -18.508  0.00  0.00    -0.617 OA
ATOM     46  O3P HCI d          -9.425  20.889 -20.335  0.00  0.00    -0.617 OA
ENDBRANCH  42  43
ENDBRANCH  40  42
ENDBRANCH  39  40
BRANCH  39  47
ATOM     47  C   HCI d         -14.504  22.486 -17.424  0.00  0.00     0.243 C 
ATOM     48  O   HCI d         -15.131  21.481 -17.067  0.00  0.00    -0.271 OA
ATOM     49  N   HCI d         -15.014  23.717 -17.399  0.00  0.00    -0.346 N 
ATOM     50  H46 HCI d         -14.443  24.477 -17.709  0.00  0.00     0.163 HD
BRANCH  49  51
ATOM     51  CA  HCI d         -16.376  24.005 -16.937  0.00  0.00     0.172 C 
ATOM     52  CB  HCI d         -16.565  25.511 -16.715  0.00  0.00     0.042 C 
BRANCH  51  53
ATOM     53  C   HCI d         -17.411  23.485 -17.921  0.00  0.00     0.237 C 
ATOM     54  O   HCI d         -17.112  23.297 -19.095  0.00  0.00    -0.271 OA
ATOM     55  N   HCI d         -18.574  23.127 -17.583  0.00  0.00    -0.368 N 
ATOM     56  H51 HCI d         -19.215  22.792 -18.274  0.00  0.00     0.159 HD
ATOM     57  H52 HCI d         -18.854  23.178 -16.624  0.00  0.00     0.159 HD
ENDBRANCH  51  53
ENDBRANCH  49  51
ENDBRANCH  39  47
ENDBRANCH  37  39
ENDBRANCH  34  35
BRANCH  34  58
ATOM     58  CB  HCI d         -11.454  19.573 -14.971  0.00  0.00     0.199 C 
BRANCH  58  59
ATOM     59  OG  HCI d         -12.657  19.369 -14.243  0.00  0.00    -0.398 OA
ATOM     60  H39 HCI d         -12.887  18.448 -14.266  0.00  0.00     0.209 HD
ENDBRANCH  58  59
ENDBRANCH  34  58
ENDBRANCH  32  34
ENDBRANCH   1  30
BRANCH   1  61
ATOM     61  CB  HCI d         -11.867  23.448 -11.407  0.00  0.00     0.095 C 
BRANCH  61  62
ATOM     62  CG  HCI d         -12.373  24.724 -12.009  0.00  0.00     0.053 A 
ATOM     63  ND1 HCI d         -12.832  24.804 -13.308  0.00  0.00    -0.247 NA
ATOM     64  CE1 HCI d         -13.197  26.046 -13.569  0.00  0.00     0.207 A 
ATOM     65  NE2 HCI d         -12.998  26.775 -12.485  0.00  0.00    -0.359 N 
ATOM     66  CD2 HCI d         -12.482  25.972 -11.496  0.00  0.00     0.116 A 
ATOM     67  H34 HCI d         -13.197  27.782 -12.396  0.00  0.00     0.166 HD
ENDBRANCH  61  62
ENDBRANCH   1  61
TORSDOF 23
