REMARK  6 active torsions:
REMARK  status: ('A' for Active; 'I' for Inactive)
REMARK    1  A    between atoms: N1_1  and  C1'_9 
REMARK    2  A    between atoms: C2'_10  and  O2'_11 
REMARK    3  A    between atoms: C3'_12  and  O3'_14 
REMARK    4  A    between atoms: C4'_13  and  C5'_16 
REMARK    5  A    between atoms: C5'_16  and  O5'_17 
REMARK    6  A    between atoms: O5'_17  and  P_18 
ROOT
ATOM      1  C1' U5P d          18.024  39.899  35.971  0.00  0.00     0.263 C 
ATOM      2  C2' U5P d          18.614  39.902  37.370  0.00  0.00     0.198 C 
ATOM      3  C3' U5P d          19.743  38.895  37.221  0.00  0.00     0.182 C 
ATOM      4  C4' U5P d          19.156  37.886  36.272  0.00  0.00     0.180 C 
ATOM      5  O4' U5P d          18.260  38.616  35.418  0.00  0.00    -0.353 OA
ENDROOT
BRANCH   1   6
ATOM      6  N1  U5P d          16.613  40.220  35.865  0.00  0.00    -0.280 N 
ATOM      7  C2  U5P d          15.660  39.466  36.532  0.00  0.00     0.331 C 
ATOM      8  N3  U5P d          14.364  39.810  36.348  0.00  0.00    -0.275 N 
ATOM      9  O2  U5P d          15.970  38.516  37.228  0.00  0.00    -0.246 OA
ATOM     10  C4  U5P d          13.908  40.837  35.542  0.00  0.00     0.250 C 
ATOM     11  H1  U5P d          13.676  39.275  36.838  0.00  0.00     0.173 HD
ATOM     12  C5  U5P d          14.901  41.590  34.897  0.00  0.00     0.092 C 
ATOM     13  O4  U5P d          12.673  41.002  35.475  0.00  0.00    -0.268 OA
ATOM     14  C6  U5P d          16.218  41.237  34.962  0.00  0.00     0.104 C 
ENDBRANCH   1   6
BRANCH   2  15
ATOM     15  O2' U5P d          19.103  41.159  37.737  0.00  0.00    -0.388 OA
ATOM     16  H6  U5P d          19.784  41.422  37.129  0.00  0.00     0.210 HD
ENDBRANCH   2  15
BRANCH   3  17
ATOM     17  O3' U5P d          20.841  39.553  36.594  0.00  0.00    -0.390 OA
ATOM     18  H9  U5P d          21.211  40.190  37.194  0.00  0.00     0.210 HD
ENDBRANCH   3  17
BRANCH   4  19
ATOM     19  C5' U5P d          18.440  36.736  36.958  0.00  0.00     0.217 C 
BRANCH  19  20
ATOM     20  O5' U5P d          19.460  35.943  37.515  0.00  0.00    -0.280 OA
BRANCH  20  21
ATOM     21  P   U5P d          19.129  34.601  38.352  0.00  0.00     0.422 P 
ATOM     22  O1P U5P d          17.818  34.810  39.086  0.00  0.00    -0.617 OA
ATOM     23  O2P U5P d          20.327  34.495  39.257  0.00  0.00    -0.617 OA
ATOM     24  O3P U5P d          19.040  33.470  37.367  0.00  0.00    -0.617 OA
ENDBRANCH  20  21
ENDBRANCH  19  20
ENDBRANCH   4  19
TORSDOF 6
