REMARK  15 active torsions:
REMARK  status: ('A' for Active; 'I' for Inactive)
REMARK    1  A    between atoms: C21_2  and  C22_3 
REMARK       I    between atoms: C21_2  and  N20_8 
REMARK    2  A    between atoms: C22_3  and  C24_4 
REMARK    3  A    between atoms: C22_3  and  O23_7 
REMARK    4  A    between atoms: N20_8  and  C19_9 
REMARK    5  A    between atoms: C19_9  and  C32_10 
REMARK    6  A    between atoms: C19_9  and  C17_17 
REMARK    7  A    between atoms: C32_10  and  C38_11 
REMARK    8  A    between atoms: C17_17  and  O18_18 
REMARK    9  A    between atoms: C17_17  and  C16_19 
REMARK   10  A    between atoms: C16_19  and  N11_20 
REMARK   11  A    between atoms: N11_20  and  C12_21 
REMARK   12  A    between atoms: N11_20  and  S8_26 
REMARK   13  A    between atoms: C12_21  and  C13_22 
REMARK   14  A    between atoms: C13_22  and  C15_24 
REMARK   15  A    between atoms: S8_26  and  C5_29 
ROOT
ATOM      1  C17 MZ5 d          20.068  29.447  15.287  0.00  0.00     0.155 C 
ENDROOT
BRANCH   1   2
ATOM      2  C19 MZ5 d          19.660  29.097  13.851  0.00  0.00     0.118 C 
BRANCH   2   3
ATOM      3  N20 MZ5 d          20.745  28.347  13.201  0.00  0.00    -0.351 N 
ATOM      4  C21 MZ5 d          21.539  28.918  12.279  0.00  0.00     0.247 C 
ATOM      5  O22 MZ5 d          21.433  30.084  11.956  0.00  0.00    -0.271 OA
ATOM      6  H10 MZ5 d          20.895  27.390  13.451  0.00  0.00     0.163 HD
BRANCH   4   7
ATOM      7  C22 MZ5 d          22.603  28.108  11.580  0.00  0.00     0.213 C 
BRANCH   7   8
ATOM      8  C24 MZ5 d          22.253  28.062  10.082  0.00  0.00     0.015 C 
ATOM      9  C26 MZ5 d          20.868  27.465   9.850  0.00  0.00     0.012 C 
ATOM     10  C25 MZ5 d          23.309  27.300   9.275  0.00  0.00     0.012 C 
ENDBRANCH   7   8
BRANCH   7  11
ATOM     11  O23 MZ5 d          22.679  26.754  12.037  0.00  0.00    -0.386 OA
ATOM     12  H9  MZ5 d          22.894  26.745  12.962  0.00  0.00     0.210 HD
ENDBRANCH   7  11
ENDBRANCH   4   7
ENDBRANCH   2   3
BRANCH   2  13
ATOM     13  C32 MZ5 d          18.403  28.219  13.783  0.00  0.00     0.066 C 
BRANCH  13  14
ATOM     14  C38 MZ5 d          17.997  27.921  12.359  0.00  0.00    -0.056 A 
ATOM     15  C37 MZ5 d          17.536  28.942  11.534  0.00  0.00     0.007 A 
ATOM     16  C36 MZ5 d          17.165  28.649  10.220  0.00  0.00     0.001 A 
ATOM     17  C35 MZ5 d          17.231  27.350   9.711  0.00  0.00     0.000 A 
ATOM     18  C34 MZ5 d          17.700  26.337  10.542  0.00  0.00     0.001 A 
ATOM     19  C33 MZ5 d          18.076  26.612  11.861  0.00  0.00     0.007 A 
ENDBRANCH  13  14
ENDBRANCH   2  13
ENDBRANCH   1   2
BRANCH   1  20
ATOM     20  O18 MZ5 d          19.975  28.322  16.161  0.00  0.00    -0.392 OA
ATOM     21  H20 MZ5 d          20.235  28.581  17.037  0.00  0.00     0.210 HD
ENDBRANCH   1  20
BRANCH   1  22
ATOM     22  C16 MZ5 d          19.191  30.548  15.879  0.00  0.00     0.141 C 
BRANCH  22  23
ATOM     23  N11 MZ5 d          19.424  31.801  15.137  0.00  0.00    -0.204 NA
BRANCH  23  24
ATOM     24  C12 MZ5 d          20.150  32.795  15.952  0.00  0.00     0.112 C 
BRANCH  24  25
ATOM     25  C13 MZ5 d          21.652  32.486  15.948  0.00  0.00    -0.005 C 
ATOM     26  C14 MZ5 d          22.228  32.612  14.531  0.00  0.00     0.011 C 
BRANCH  25  27
ATOM     27  C15 MZ5 d          22.408  33.344  16.967  0.00  0.00     0.001 C 
ATOM     28  C18 MZ5 d          22.040  34.811  16.925  0.00  0.00     0.005 C 
ENDBRANCH  25  27
ENDBRANCH  24  25
ENDBRANCH  23  24
BRANCH  23  29
ATOM     29  S8  MZ5 d          18.079  32.391  14.433  0.00  0.00     0.243 S 
ATOM     30  O10 MZ5 d          17.317  31.287  13.940  0.00  0.00    -0.206 OA
ATOM     31  O9  MZ5 d          18.548  33.251  13.375  0.00  0.00    -0.206 OA
BRANCH  29  32
ATOM     32  C5  MZ5 d          17.176  33.242  15.501  0.00  0.00     0.076 A 
ATOM     33  C4  MZ5 d          17.321  34.636  15.750  0.00  0.00     0.046 A 
ATOM     34  C3  MZ5 d          16.511  35.298  16.714  0.00  0.00     0.036 A 
ATOM     35  S1  MZ5 d          16.602  36.969  17.094  0.00  0.00    -0.081 SA
ATOM     36  C2  MZ5 d          15.574  34.543  17.432  0.00  0.00     0.074 A 
ATOM     37  C1  MZ5 d          15.337  36.619  18.238  0.00  0.00     0.167 A 
ATOM     38  N1  MZ5 d          14.923  35.336  18.306  0.00  0.00    -0.253 NA
ATOM     39  C7  MZ5 d          15.439  33.188  17.191  0.00  0.00     0.034 A 
ATOM     40  C6  MZ5 d          16.224  32.543  16.245  0.00  0.00     0.027 A 
ENDBRANCH  29  32
ENDBRANCH  23  29
ENDBRANCH  22  23
ENDBRANCH   1  22
TORSDOF 15
