REMARK  29 active torsions:
REMARK  status: ('A' for Active; 'I' for Inactive)
REMARK    1  A    between atoms: CA_2  and  N_1 
REMARK    2  A    between atoms: C_3  and  CA_2 
REMARK    3  A    between atoms: CA_2  and  CB_5 
REMARK       I    between atoms: N_12  and  C_3 
REMARK    4  A    between atoms: CB_5  and  CG_6 
REMARK    5  A    between atoms: CG_6  and  CD_7 
REMARK    6  A    between atoms: CD_7  and  NE_8 
REMARK       I    between atoms: NE_8  and  CZ_9 
REMARK       I    between atoms: CZ_9  and  NH1_10 
REMARK    7  A    between atoms: CA_13  and  N_12 
REMARK    8  A    between atoms: C_14  and  CA_13 
REMARK    9  A    between atoms: CA_13  and  CB_16 
REMARK       I    between atoms: N_19  and  C_14 
REMARK   10  A    between atoms: CA_20  and  N_19 
REMARK   11  A    between atoms: C_21  and  CA_20 
REMARK   12  A    between atoms: CA_20  and  CB_23 
REMARK       I    between atoms: N_27  and  C_21 
REMARK   13  A    between atoms: CB_23  and  CG_24 
REMARK   14  A    between atoms: CA_28  and  N_27 
REMARK   15  A    between atoms: C_29  and  CA_28 
REMARK   16  A    between atoms: CA_28  and  CB_31 
REMARK       I    between atoms: N_38  and  C_29 
REMARK   17  A    between atoms: CB_31  and  CG_32 
REMARK   18  A    between atoms: CA_39  and  N_38 
REMARK   19  A    between atoms: C_40  and  CA_39 
REMARK   20  A    between atoms: CA_39  and  CB_42 
REMARK       I    between atoms: N_47  and  C_40 
REMARK   21  A    between atoms: CB_42  and  CG_43 
REMARK   22  A    between atoms: CG_43  and  CD_44 
REMARK   23  A    between atoms: CA_48  and  N_47 
REMARK   24  A    between atoms: C_49  and  CA_48 
REMARK       I    between atoms: C_49  and  N_52 
REMARK   25  A    between atoms: N_52  and  CA_53 
REMARK   26  A    between atoms: CA_53  and  CB_56 
REMARK   27  A    between atoms: CA_53  and  C_54 
REMARK       I    between atoms: C_54  and  N_60 
REMARK   28  A    between atoms: CB_56  and  CG_57 
REMARK   29  A    between atoms: CG_57  and  CD_58 
ROOT
ATOM      1  C   MOL d          58.185  17.295  30.945  0.00  0.00     0.241 C 
ATOM      2  O   MOL d          58.836  16.251  30.981  0.00  0.00    -0.271 OA
ATOM      3  N   MOL d          58.657  18.462  31.375  0.00  0.00    -0.346 N 
ATOM      4  H36 MOL d          58.104  19.285  31.241  0.00  0.00     0.163 HD
ENDROOT
BRANCH   3   5
ATOM      5  CA  MOL d          59.950  18.584  32.034  0.00  0.00     0.180 C 
BRANCH   5   6
ATOM      6  C   MOL d          59.926  17.578  33.226  0.00  0.00     0.241 C 
ATOM      7  O   MOL d          58.890  17.374  33.894  0.00  0.00    -0.271 OA
ATOM      8  N   MOL d          61.046  16.928  33.491  0.00  0.00    -0.346 N 
ATOM      9  H45 MOL d          61.864  17.111  32.946  0.00  0.00     0.163 HD
BRANCH   8  10
ATOM     10  CA  MOL d          61.104  15.943  34.573  0.00  0.00     0.177 C 
BRANCH  10  11
ATOM     11  C   MOL d          62.521  15.954  35.127  0.00  0.00     0.241 C 
ATOM     12  O   MOL d          63.514  15.768  34.423  0.00  0.00    -0.271 OA
ATOM     13  N   MOL d          62.633  16.231  36.398  0.00  0.00    -0.346 N 
ATOM     14  H51 MOL d          61.819  16.396  36.955  0.00  0.00     0.163 HD
BRANCH  13  15
ATOM     15  CA  MOL d          63.949  16.295  36.988  0.00  0.00     0.172 C 
ATOM     16  CB  MOL d          64.227  17.713  37.475  0.00  0.00     0.042 C 
BRANCH  15  17
ATOM     17  C   MOL d          64.066  15.314  38.127  0.00  0.00     0.240 C 
ATOM     18  O   MOL d          63.128  15.148  38.920  0.00  0.00    -0.271 OA
ATOM     19  N   MOL d          65.223  14.681  38.211  0.00  0.00    -0.346 N 
ATOM     20  H56 MOL d          65.932  14.884  37.535  0.00  0.00     0.163 HD
BRANCH  19  21
ATOM     21  CA  MOL d          65.506  13.702  39.245  0.00  0.00     0.176 C 
BRANCH  21  22
ATOM     22  CB  MOL d          67.002  13.681  39.501  0.00  0.00     0.035 C 
BRANCH  22  23
ATOM     23  CG  MOL d          67.794  13.055  38.356  0.00  0.00     0.002 C 
BRANCH  23  24
ATOM     24  CD  MOL d          67.757  11.529  38.425  0.00  0.00    -0.004 C 
ATOM     25  CE  MOL d          68.909  10.952  37.603  0.00  0.00     0.005 C 
ENDBRANCH  23  24
ENDBRANCH  22  23
ENDBRANCH  21  22
BRANCH  21  26
ATOM     26  C   MOL d          64.738  13.860  40.562  0.00  0.00     0.238 C 
ATOM     27  O   MOL d          64.938  14.842  41.331  0.00  0.00    -0.271 OA
ATOM     28  N   MOL d          63.882  12.980  40.780  0.00  0.00    -0.368 N 
ATOM     29  H67 MOL d          63.337  13.010  41.618  0.00  0.00     0.159 HD
ATOM     30  H68 MOL d          63.741  12.245  40.117  0.00  0.00     0.159 HD
ENDBRANCH  21  26
ENDBRANCH  19  21
ENDBRANCH  15  17
ENDBRANCH  13  15
ENDBRANCH  10  11
BRANCH  10  31
ATOM     31  CB  MOL d          60.667  14.572  34.026  0.00  0.00     0.045 C 
BRANCH  31  32
ATOM     32  CG  MOL d          60.833  13.381  34.959  0.00  0.00     0.116 C 
BRANCH  32  33
ATOM     33  CD  MOL d          62.294  12.971  35.121  0.00  0.00     0.172 C 
ATOM     34  OE1 MOL d          63.051  13.210  34.151  0.00  0.00    -0.648 OA
ATOM     35  OE2 MOL d          62.696  12.449  36.202  0.00  0.00    -0.648 OA
ENDBRANCH  32  33
ENDBRANCH  31  32
ENDBRANCH  10  31
ENDBRANCH   8  10
ENDBRANCH   5   6
BRANCH   5  36
ATOM     36  CB  MOL d          60.120  20.038  32.496  0.00  0.00     0.073 C 
BRANCH  36  37
ATOM     37  CG  MOL d          61.030  20.198  33.681  0.00  0.00    -0.056 A 
ATOM     38  CD2 MOL d          60.498  20.419  34.948  0.00  0.00     0.007 A 
ATOM     39  CE2 MOL d          61.308  20.450  36.061  0.00  0.00     0.001 A 
ATOM     40  CZ  MOL d          62.672  20.262  35.919  0.00  0.00     0.000 A 
ATOM     41  CE1 MOL d          63.227  20.052  34.655  0.00  0.00     0.001 A 
ATOM     42  CD1 MOL d          62.399  20.023  33.548  0.00  0.00     0.007 A 
ENDBRANCH  36  37
ENDBRANCH   5  36
ENDBRANCH   3   5
BRANCH   1  43
ATOM     43  CA  MOL d          56.793  17.310  30.363  0.00  0.00     0.177 C 
BRANCH  43  44
ATOM     44  CB  MOL d          56.550  16.127  29.452  0.00  0.00     0.038 C 
BRANCH  44  45
ATOM     45  CG  MOL d          55.084  16.166  29.031  0.00  0.00    -0.020 C 
ATOM     46  CD2 MOL d          54.232  15.785  30.214  0.00  0.00     0.009 C 
ATOM     47  CD1 MOL d          54.795  15.314  27.811  0.00  0.00     0.009 C 
ENDBRANCH  44  45
ENDBRANCH  43  44
BRANCH  43  48
ATOM     48  N   MOL d          56.313  18.518  29.717  0.00  0.00    -0.346 N 
ATOM     49  C   MOL d          55.594  19.409  30.393  0.00  0.00     0.241 C 
ATOM     50  O   MOL d          55.368  19.293  31.608  0.00  0.00    -0.271 OA
ATOM     51  H25 MOL d          56.525  18.682  28.754  0.00  0.00     0.163 HD
BRANCH  49  52
ATOM     52  CA  MOL d          55.058  20.615  29.584  0.00  0.00     0.180 C 
BRANCH  52  53
ATOM     53  CB  MOL d          55.169  21.920  30.395  0.00  0.00     0.009 C 
ATOM     54  CG1 MOL d          56.601  22.420  30.394  0.00  0.00     0.012 C 
ATOM     55  CG2 MOL d          54.229  22.982  29.840  0.00  0.00     0.012 C 
ENDBRANCH  52  53
BRANCH  52  56
ATOM     56  N   MOL d          53.669  20.289  29.372  0.00  0.00    -0.346 N 
ATOM     57  C   MOL d          53.086  20.207  28.187  0.00  0.00     0.249 C 
ATOM     58  O   MOL d          53.666  20.407  27.131  0.00  0.00    -0.271 OA
ATOM     59  H16 MOL d          53.106  20.112  30.179  0.00  0.00     0.163 HD
BRANCH  57  60
ATOM     60  CA  MOL d          51.610  19.851  28.207  0.00  0.00     0.274 C 
BRANCH  60  61
ATOM     61  CB  MOL d          51.460  18.321  28.020  0.00  0.00     0.044 C 
BRANCH  61  62
ATOM     62  CG  MOL d          50.088  17.710  28.380  0.00  0.00     0.023 C 
BRANCH  62  63
ATOM     63  CD  MOL d          49.598  18.058  29.826  0.00  0.00     0.138 C 
BRANCH  63  64
ATOM     64  NE  MOL d          48.325  17.421  30.180  0.00  0.00    -0.227 N 
ATOM     65  CZ  MOL d          48.132  16.103  30.218  0.00  0.00     0.665 C 
ATOM     66  NH1 MOL d          49.117  15.268  29.935  0.00  0.00    -0.235 N 
ATOM     67  NH2 MOL d          46.939  15.614  30.503  0.00  0.00    -0.235 N 
ATOM     68  H12 MOL d          48.956  14.251  29.968  0.00  0.00     0.174 HD
ATOM     69  H13 MOL d          50.046  15.634  29.682  0.00  0.00     0.174 HD
ATOM     70  H14 MOL d          46.161  16.251  30.726  0.00  0.00     0.174 HD
ATOM     71  H15 MOL d          46.786  14.595  30.503  0.00  0.00     0.174 HD
ATOM     72  H11 MOL d          47.529  18.032  30.414  0.00  0.00     0.177 HD
ENDBRANCH  63  64
ENDBRANCH  62  63
ENDBRANCH  61  62
ENDBRANCH  60  61
BRANCH  60  73
ATOM     73  N   MOL d          50.869  20.610  27.157  0.00  0.00    -0.067 N 
ATOM     74  H1  MOL d          49.893  20.360  27.187  0.00  0.00     0.275 HD
ATOM     75  H2  MOL d          51.246  20.384  26.250  0.00  0.00     0.275 HD
ATOM     76  H3  MOL d          50.967  21.599  27.325  0.00  0.00     0.275 HD
ENDBRANCH  60  73
ENDBRANCH  57  60
ENDBRANCH  52  56
ENDBRANCH  49  52
ENDBRANCH  43  48
ENDBRANCH   1  43
TORSDOF 29
