REMARK  10 active torsions:
REMARK  status: ('A' for Active; 'I' for Inactive)
REMARK    1  A    between atoms: O3B_8  and  PG_1 
REMARK    2  A    between atoms: PB_5  and  O3B_8 
REMARK    3  A    between atoms: O3A_12  and  PB_5 
REMARK    4  A    between atoms: PA_9  and  O3A_12 
REMARK    5  A    between atoms: PA_9  and  O5'_13 
REMARK    6  A    between atoms: O5'_13  and  C5'_14 
REMARK    7  A    between atoms: C5'_14  and  C4'_15 
REMARK    8  A    between atoms: C3'_17  and  O3'_18 
REMARK    9  A    between atoms: C2'_19  and  O2'_20 
REMARK   10  A    between atoms: C1'_21  and  N9_22 
ROOT
ATOM      1  C4' ATP d         -25.194  15.345 -22.778  0.00  0.00     0.180 C 
ATOM      2  O4' ATP d         -26.413  15.961 -22.353  0.00  0.00    -0.353 OA
ATOM      3  C3' ATP d         -24.102  15.821 -21.843  0.00  0.00     0.182 C 
ATOM      4  C2' ATP d         -24.850  16.491 -20.748  0.00  0.00     0.198 C 
ATOM      5  C1' ATP d         -26.066  16.994 -21.495  0.00  0.00     0.262 C 
ENDROOT
BRANCH   1   6
ATOM      6  C5' ATP d         -25.430  13.876 -22.546  0.00  0.00     0.216 C 
BRANCH   6   7
ATOM      7  O5' ATP d         -26.001  13.939 -21.241  0.00  0.00    -0.287 OA
BRANCH   7   8
ATOM      8  PA  ATP d         -25.588  12.903 -20.067  0.00  0.00     0.417 P 
ATOM      9  O1A ATP d         -26.816  12.521 -19.241  0.00  0.00    -0.624 OA
ATOM     10  O2A ATP d         -24.771  11.789 -20.767  0.00  0.00    -0.624 OA
BRANCH   8  11
ATOM     11  O3A ATP d         -24.668  13.812 -19.069  0.00  0.00    -0.180 OA
BRANCH  11  12
ATOM     12  PB  ATP d         -23.983  13.073 -17.787  0.00  0.00     0.428 P 
ATOM     13  O1B ATP d         -22.692  12.417 -18.305  0.00  0.00    -0.624 OA
ATOM     14  O2B ATP d         -24.003  13.984 -16.566  0.00  0.00    -0.624 OA
BRANCH  12  15
ATOM     15  O3B ATP d         -24.983  11.809 -17.458  0.00  0.00    -0.173 OA
BRANCH  15  16
ATOM     16  PG  ATP d         -24.541  10.227 -17.460  0.00  0.00     0.431 P 
ATOM     17  O1G ATP d         -24.204   9.967 -18.922  0.00  0.00    -0.616 OA
ATOM     18  O2G ATP d         -25.807   9.515 -17.000  0.00  0.00    -0.616 OA
ATOM     19  O3G ATP d         -23.360  10.191 -16.473  0.00  0.00    -0.616 OA
ENDBRANCH  15  16
ENDBRANCH  12  15
ENDBRANCH  11  12
ENDBRANCH   8  11
ENDBRANCH   7   8
ENDBRANCH   6   7
ENDBRANCH   1   6
BRANCH   3  20
ATOM     20  O3' ATP d         -23.387  16.863 -22.500  0.00  0.00    -0.390 OA
ATOM     21  H5  ATP d         -22.695  17.178 -21.931  0.00  0.00     0.210 HD
ENDBRANCH   3  20
BRANCH   5  22
ATOM     22  N9  ATP d         -27.146  17.281 -20.592  0.00  0.00    -0.294 N 
ATOM     23  C8  ATP d         -27.743  16.451 -19.729  0.00  0.00     0.214 A 
ATOM     24  N7  ATP d         -28.701  17.140 -19.020  0.00  0.00    -0.236 NA
ATOM     25  C5  ATP d         -28.707  18.423 -19.427  0.00  0.00     0.149 A 
ATOM     26  C6  ATP d         -29.443  19.637 -19.093  0.00  0.00     0.155 A 
ATOM     27  C4  ATP d         -27.684  18.508 -20.458  0.00  0.00     0.167 A 
ATOM     28  N6  ATP d         -30.412  19.612 -18.142  0.00  0.00    -0.382 N 
ATOM     29  N1  ATP d         -29.132  20.784 -19.749  0.00  0.00    -0.222 NA
ATOM     30  H10 ATP d         -30.928  20.473 -17.910  0.00  0.00     0.157 HD
ATOM     31  H11 ATP d         -30.631  18.733 -17.652  0.00  0.00     0.157 HD
ATOM     32  C2  ATP d         -28.198  20.767 -20.691  0.00  0.00     0.237 A 
ATOM     33  N3  ATP d         -27.485  19.683 -21.064  0.00  0.00    -0.222 NA
ENDBRANCH   5  22
BRANCH   4  34
ATOM     34  O2' ATP d         -24.070  17.614 -20.373  0.00  0.00    -0.388 OA
ATOM     35  H7  ATP d         -23.966  18.190 -21.121  0.00  0.00     0.210 HD
ENDBRANCH   4  34
TORSDOF 10
