REMARK  5 active torsions:
REMARK  status: ('A' for Active; 'I' for Inactive)
REMARK    1  A    between atoms: C7_7  and  C8_8 
REMARK       I    between atoms: C8_8  and  N10_10 
REMARK    2  A    between atoms: N10_10  and  C11_11 
REMARK    3  A    between atoms: N14_14  and  C16_16 
REMARK    4  A    between atoms: C16_16  and  C17_17 
REMARK    5  A    between atoms: C16_16  and  C25_25 
ROOT
ATOM      1  C11 MOL d          21.984   0.172   6.491  0.00  0.00     0.071 A 
ATOM      2  C12 MOL d          22.087  -1.120   5.907  0.00  0.00     0.169 A 
ATOM      3  N13 MOL d          23.290  -1.675   6.042  0.00  0.00    -0.182 NA
ATOM      4  N14 MOL d          23.946  -0.728   6.738  0.00  0.00    -0.269 N 
ATOM      5  C15 MOL d          23.216   0.391   7.024  0.00  0.00     0.144 A 
ENDROOT
BRANCH   1   6
ATOM      6  N10 MOL d          20.935   1.078   6.562  0.00  0.00    -0.319 N 
ATOM      7  C8  MOL d          19.760   0.907   5.869  0.00  0.00     0.274 C 
ATOM      8  O9  MOL d          19.523  -0.134   5.274  0.00  0.00    -0.266 OA
ATOM      9  H7  MOL d          21.038   1.887   7.140  0.00  0.00     0.169 HD
BRANCH   7  10
ATOM     10  C7  MOL d          18.852   2.056   5.937  0.00  0.00     0.126 A 
ATOM     11  N6  MOL d          19.243   3.262   6.391  0.00  0.00    -0.272 N 
ATOM     12  N5  MOL d          18.165   4.084   6.312  0.00  0.00    -0.178 NA
ATOM     13  H6  MOL d          20.181   3.513   6.733  0.00  0.00     0.189 HD
ATOM     14  C4  MOL d          17.080   3.429   5.816  0.00  0.00     0.064 A 
ATOM     15  C3  MOL d          15.734   4.008   5.582  0.00  0.00     0.077 C 
ATOM     16  C31 MOL d          17.485   2.143   5.589  0.00  0.00     0.003 A 
ATOM     17  C2  MOL d          14.707   2.965   5.165  0.00  0.00     0.037 A 
ATOM     18  C1  MOL d          13.351   3.113   5.766  0.00  0.00     0.022 C 
ATOM     19  C33 MOL d          15.154   1.532   4.947  0.00  0.00     0.077 A 
ATOM     20  C34 MOL d          14.792   2.405   3.794  0.00  0.00     0.256 A 
ATOM     21  C32 MOL d          16.588   1.114   5.051  0.00  0.00     0.055 C 
ATOM     22  F35 MOL d          15.748   3.001   2.969  0.00  0.00    -0.205 F 
ATOM     23  F36 MOL d          13.624   2.203   3.085  0.00  0.00    -0.205 F 
ENDBRANCH   7  10
ENDBRANCH   1   6
BRANCH   4  24
ATOM     24  C16 MOL d          25.345  -0.884   7.103  0.00  0.00     0.161 C 
BRANCH  24  25
ATOM     25  C17 MOL d          25.793  -2.326   7.260  0.00  0.00     0.137 C 
ATOM     26  C18 MOL d          27.300  -2.398   7.519  0.00  0.00     0.022 C 
ATOM     27  C19 MOL d          27.781  -3.860   7.501  0.00  0.00     0.002 C 
ATOM     28  C20 MOL d          27.343  -4.609   8.711  0.00  0.00     0.015 C 
ATOM     29  C21 MOL d          25.818  -4.663   8.767  0.00  0.00     0.141 C 
ATOM     30  S22 MOL d          24.981  -3.061   8.679  0.00  0.00     0.150 S 
ATOM     31  O23 MOL d          25.343  -2.302   9.866  0.00  0.00    -0.227 OA
ATOM     32  O24 MOL d          23.596  -3.335   8.340  0.00  0.00    -0.227 OA
ENDBRANCH  24  25
BRANCH  24  33
ATOM     33  C25 MOL d          26.177  -0.169   6.067  0.00  0.00    -0.032 A 
ATOM     34  C26 MOL d          27.082   0.804   6.452  0.00  0.00     0.009 A 
ATOM     35  C27 MOL d          27.857   1.449   5.500  0.00  0.00     0.001 A 
ATOM     36  C28 MOL d          27.721   1.150   4.158  0.00  0.00     0.000 A 
ATOM     37  C29 MOL d          26.815   0.179   3.765  0.00  0.00     0.001 A 
ATOM     38  C30 MOL d          26.048  -0.475   4.724  0.00  0.00     0.009 A 
ENDBRANCH  24  33
ENDBRANCH   4  24
TORSDOF 5
