REMARK  8 active torsions:
REMARK  status: ('A' for Active; 'I' for Inactive)
REMARK    1  A    between atoms: C3_3  and  O1_7 
REMARK    2  A    between atoms: C6_6  and  S1_9 
REMARK    3  A    between atoms: S1_9  and  N_12 
REMARK    4  A    between atoms: N_12  and  C9_13 
REMARK    5  A    between atoms: N_12  and  C10_14 
REMARK    6  A    between atoms: C9_13  and  C12_19 
REMARK    7  A    between atoms: C10_14  and  C11_15 
REMARK       I    between atoms: C11_15  and  N1_16 
REMARK    8  A    between atoms: N1_16  and  O4_17 
ROOT
ATOM      1  N   MOL d           7.873  27.189   2.687  0.00  0.00    -0.301 N 
ENDROOT
BRANCH   1   2
ATOM      2  S1  MOL d           8.031  26.803   4.198  0.00  0.00     0.261 S 
ATOM      3  O2  MOL d           9.475  26.297   4.224  0.00  0.00    -0.200 OA
ATOM      4  O3  MOL d           7.714  27.925   5.221  0.00  0.00    -0.200 OA
BRANCH   2   5
ATOM      5  C6  MOL d           6.971  25.530   4.371  0.00  0.00     0.079 C 
ATOM      6  C1  MOL d           5.686  25.773   5.103  0.00  0.00     0.028 C 
ATOM      7  C2  MOL d           4.819  24.588   5.431  0.00  0.00     0.038 C 
ATOM      8  C3  MOL d           5.344  23.222   5.039  0.00  0.00     0.068 C 
ATOM      9  C4  MOL d           6.749  22.992   4.607  0.00  0.00     0.038 C 
ATOM     10  C5  MOL d           7.588  24.157   4.321  0.00  0.00     0.028 C 
BRANCH   8  11
ATOM     11  O1  MOL d           4.806  22.052   5.608  0.00  0.00    -0.356 OA
ATOM     12  C7  MOL d           3.481  22.123   6.127  0.00  0.00     0.210 C 
ENDBRANCH   8  11
ENDBRANCH   2   5
ENDBRANCH   1   2
BRANCH   1  13
ATOM     13  C9  MOL d           6.776  28.063   2.229  0.00  0.00     0.139 C 
BRANCH  13  14
ATOM     14  C12 MOL d           7.248  29.324   1.473  0.00  0.00    -0.004 C 
ATOM     15  C13 MOL d           7.624  30.430   2.439  0.00  0.00     0.011 C 
ATOM     16  C14 MOL d           6.204  29.825   0.470  0.00  0.00     0.011 C 
ENDBRANCH  13  14
ENDBRANCH   1  13
BRANCH   1  17
ATOM     17  C10 MOL d           8.719  26.518   1.677  0.00  0.00     0.207 C 
BRANCH  17  18
ATOM     18  C11 MOL d           7.871  25.318   1.228  0.00  0.00     0.259 C 
ATOM     19  N1  MOL d           8.543  24.135   0.810  0.00  0.00    -0.261 N 
ATOM     20  H12 MOL d           9.541  24.105   0.758  0.00  0.00     0.191 HD
ATOM     21  O5  MOL d           6.887  25.530   0.282  0.00  0.00    -0.196 OA
BRANCH  19  22
ATOM     22  O4  MOL d           7.845  23.119   0.504  0.00  0.00    -0.291 OA
ATOM     23  H13 MOL d           7.267  23.339  -0.217  0.00  0.00     0.244 HD
ENDBRANCH  19  22
ENDBRANCH  17  18
ENDBRANCH   1  17
TORSDOF 8
