REMARK  7 active torsions:
REMARK  status: ('A' for Active; 'I' for Inactive)
REMARK    1  A    between atoms: C20_2  and  C19_4 
REMARK    2  A    between atoms: C19_4  and  O3_5 
REMARK    3  A    between atoms: O3_5  and  C1_6 
REMARK    4  A    between atoms: C4_10  and  C7_14 
REMARK    5  A    between atoms: C7_14  and  C8_15 
REMARK    6  A    between atoms: C12_17  and  C14_18 
REMARK    7  A    between atoms: C11_21  and  O4_22 
ROOT
ATOM      1  C1  B72 d           0.462   0.483   0.096  0.00  0.00     0.070 A 
ATOM      2  C2  B72 d           1.216  -0.438  -0.619  0.00  0.00     0.044 A 
ATOM      3  C3  B72 d           0.848  -0.765  -1.918  0.00  0.00    -0.052 A 
ATOM      4  C17 B72 d           1.699  -1.787  -2.690  0.00  0.00     0.049 C 
ATOM      5  C4  B72 d          -0.281  -0.183  -2.513  0.00  0.00    -0.042 A 
ATOM      6  C5  B72 d          -1.045   0.716  -1.784  0.00  0.00    -0.052 A 
ATOM      7  C6  B72 d          -0.667   1.052  -0.490  0.00  0.00     0.044 A 
ATOM      8  C18 B72 d          -2.300   1.357  -2.403  0.00  0.00     0.049 C 
ENDROOT
BRANCH   5   9
ATOM      9  C7  B72 d          -0.722  -0.595  -3.912  0.00  0.00     0.078 C 
BRANCH   9  10
ATOM     10  C8  B72 d           0.029   0.096  -5.003  0.00  0.00    -0.053 A 
ATOM     11  C13 B72 d          -0.175  -0.303  -6.329  0.00  0.00     0.017 A 
ATOM     12  C12 B72 d           0.505   0.350  -7.327  0.00  0.00    -0.021 A 
ATOM     13  C11 B72 d           1.342   1.384  -6.963  0.00  0.00     0.072 A 
ATOM     14  C10 B72 d           1.523   1.787  -5.640  0.00  0.00     0.037 A 
ATOM     15  C9  B72 d           0.848   1.136  -4.635  0.00  0.00     0.010 A 
BRANCH  12  16
ATOM     16  C14 B72 d           0.377  -0.022  -8.815  0.00  0.00     0.013 C 
ATOM     17  C16 B72 d          -0.746  -1.036  -9.011  0.00  0.00     0.015 C 
ATOM     18  C15 B72 d           0.097   1.246  -9.607  0.00  0.00     0.015 C 
ENDBRANCH  12  16
BRANCH  13  19
ATOM     19  O4  B72 d           2.002   2.011  -7.954  0.00  0.00    -0.360 OA
ATOM     20  H21 B72 d           2.543   2.700  -7.586  0.00  0.00     0.217 HD
ENDBRANCH  13  19
ENDBRANCH   9  10
ENDBRANCH   5   9
BRANCH   1  21
ATOM     21  O3  B72 d           0.806   0.841   1.382  0.00  0.00    -0.341 OA
BRANCH  21  22
ATOM     22  C19 B72 d           2.065   0.342   1.942  0.00  0.00     0.288 C 
BRANCH  22  23
ATOM     23  C20 B72 d           2.288  -1.140   2.293  0.00  0.00     0.198 C 
ATOM     24  O1  B72 d           3.462  -1.549   2.428  0.00  0.00    -0.646 OA
ATOM     25  O2  B72 d           1.285  -1.871   2.436  0.00  0.00    -0.646 OA
ENDBRANCH  22  23
ENDBRANCH  21  22
ENDBRANCH   1  21
TORSDOF 7
