REMARK  4 active torsions:
REMARK  status: ('A' for Active; 'I' for Inactive)
REMARK    1  A    between atoms: C1_1  and  O1_7 
REMARK    2  A    between atoms: C2_2  and  O2_8 
REMARK    3  A    between atoms: C3_3  and  O3_9 
REMARK    4  A    between atoms: C4_4  and  O4_10 
ROOT
ATOM      1  C1  MFU d         -11.543  -4.047  40.830  0.00  0.00     0.290 C 
ATOM      2  C2  MFU d         -10.129  -4.162  41.386  0.00  0.00     0.204 C 
ATOM      3  C3  MFU d         -10.074  -5.331  42.388  0.00  0.00     0.183 C 
ATOM      4  C4  MFU d         -10.561  -6.577  41.627  0.00  0.00     0.178 C 
ATOM      5  C5  MFU d         -12.018  -6.372  41.164  0.00  0.00     0.152 C 
ATOM      6  C6  MFU d         -12.597  -7.571  40.406  0.00  0.00     0.042 C 
ATOM      7  O5  MFU d         -12.010  -5.257  40.251  0.00  0.00    -0.351 OA
ENDROOT
BRANCH   1   8
ATOM      8  O1  MFU d         -12.421  -3.640  41.882  0.00  0.00    -0.363 OA
ATOM      9  CM  MFU d         -13.781  -3.456  41.507  0.00  0.00     0.204 C 
ENDBRANCH   1   8
BRANCH   2  10
ATOM     10  O2  MFU d          -9.761  -2.919  41.979  0.00  0.00    -0.388 OA
ATOM     11  H   MFU d         -10.356  -2.722  42.693  0.00  0.00     0.210 HD
ENDBRANCH   2  10
BRANCH   3  12
ATOM     12  O3  MFU d          -8.738  -5.492  42.880  0.00  0.00    -0.390 OA
ATOM     13  H   MFU d          -8.149  -5.644  42.150  0.00  0.00     0.210 HD
ENDBRANCH   3  12
BRANCH   4  14
ATOM     14  O4  MFU d          -9.759  -6.901  40.478  0.00  0.00    -0.390 OA
ATOM     15  H   MFU d          -8.858  -7.030  40.749  0.00  0.00     0.210 HD
ENDBRANCH   4  14
TORSDOF 4
