REMARK  5 active torsions:
REMARK  status: ('A' for Active; 'I' for Inactive)
REMARK    1  A    between atoms: O5'_1  and  C5'_2 
REMARK    2  A    between atoms: C5'_2  and  C4'_3 
REMARK    3  A    between atoms: C3'_5  and  O3'_6 
REMARK    4  A    between atoms: N1'_8  and  C10_9 
REMARK    5  A    between atoms: C10_9  and  C9_10 
ROOT
ATOM      1  C9  DIH d          38.684   3.000 102.448  0.00  0.00     0.014 A 
ATOM      2  C8  DIH d          39.692   3.786 101.828  0.00  0.00     0.099 A 
ATOM      3  N7  DIH d          40.697   2.959 101.428  0.00  0.00    -0.359 N 
ATOM      4  C5  DIH d          40.391   1.677 101.758  0.00  0.00     0.130 A 
ATOM      5  C6  DIH d          41.047   0.357 101.536  0.00  0.00     0.275 A 
ATOM      6  O6  DIH d          42.199   0.251 100.944  0.00  0.00    -0.266 OA
ATOM      7  N1  DIH d          40.370  -0.713 102.003  0.00  0.00    -0.316 N 
ATOM      8  C2  DIH d          39.163  -0.633 102.641  0.00  0.00     0.210 A 
ATOM      9  N3  DIH d          38.527   0.534 102.828  0.00  0.00    -0.241 NA
ATOM     10  C4  DIH d          39.134   1.686 102.385  0.00  0.00     0.099 A 
ATOM     11  H15 DIH d          41.558   3.259 100.948  0.00  0.00     0.165 HD
ATOM     12  H16 DIH d          40.775  -1.618 101.875  0.00  0.00     0.170 HD
ENDROOT
BRANCH   1  13
ATOM     13  C10 DIH d          37.379   3.529 103.003  0.00  0.00     0.277 C 
BRANCH  13  14
ATOM     14  N1' DIH d          37.344   3.990 104.399  0.00  0.00    -0.064 N 
ATOM     15  C6' DIH d          38.448   4.861 104.895  0.00  0.00     0.244 C 
ATOM     16  C4' DIH d          38.516   4.544 106.406  0.00  0.00     0.065 C 
ATOM     17  C3' DIH d          37.480   3.477 106.686  0.00  0.00     0.151 C 
ATOM     18  C2' DIH d          37.261   2.824 105.334  0.00  0.00     0.267 C 
ATOM     19  H11 DIH d          36.495   4.526 104.489  0.00  0.00     0.280 HD
BRANCH  16  20
ATOM     20  C5' DIH d          39.886   4.054 106.807  0.00  0.00     0.173 C 
BRANCH  20  21
ATOM     21  O5' DIH d          40.827   5.045 106.349  0.00  0.00    -0.400 OA
ATOM     22  H1  DIH d          41.708   4.775 106.582  0.00  0.00     0.209 HD
ENDBRANCH  20  21
ENDBRANCH  16  20
BRANCH  17  23
ATOM     23  O3' DIH d          36.263   4.126 107.060  0.00  0.00    -0.393 OA
ATOM     24  H8  DIH d          35.599   3.471 107.240  0.00  0.00     0.210 HD
ENDBRANCH  17  23
ENDBRANCH  13  14
ENDBRANCH   1  13
TORSDOF 5
