REMARK  5 active torsions:
REMARK  status: ('A' for Active; 'I' for Inactive)
REMARK    1  A    between atoms: C6_6  and  C30_30 
REMARK       I    between atoms: N22_12  and  C15_15 
REMARK    2  A    between atoms: C15_15  and  C32_16 
REMARK    3  A    between atoms: C18_18  and  C21_21 
REMARK    4  A    between atoms: C22_22  and  C46_23 
REMARK    5  A    between atoms: C30_30  and  N64_31 
ROOT
ATOM      1  C1  MOL d          22.237  77.627  83.003  0.00  0.00     0.019 A 
ATOM      2  C2  MOL d          22.730  78.201  84.183  0.00  0.00    -0.013 A 
ATOM      3  C3  MOL d          21.806  78.703  85.215  0.00  0.00     0.075 A 
ATOM      4  C4  MOL d          20.428  78.614  85.028  0.00  0.00     0.038 A 
ATOM      5  C5  MOL d          19.918  78.038  83.835  0.00  0.00     0.011 A 
ATOM      6  C6  MOL d          20.825  77.528  82.820  0.00  0.00    -0.032 A 
ATOM      7  O13 MOL d          22.584  79.251  86.321  0.00  0.00    -0.349 OA
ATOM      8  C8  MOL d          23.934  79.437  85.882  0.00  0.00     0.190 C 
ATOM      9  C7  MOL d          24.117  78.498  84.708  0.00  0.00     0.015 C 
ATOM     10  C10 MOL d          24.609  77.069  85.095  0.00  0.00     0.036 C 
ATOM     11  C11 MOL d          26.106  77.101  85.452  0.00  0.00     0.127 C 
ATOM     12  N22 MOL d          26.823  77.927  84.493  0.00  0.00    -0.346 N 
ATOM     13  C13 MOL d          26.367  79.279  84.149  0.00  0.00     0.127 C 
ATOM     14  C14 MOL d          24.961  79.130  83.575  0.00  0.00     0.036 C 
ATOM     15  C15 MOL d          27.722  77.335  83.529  0.00  0.00     0.277 C 
ATOM     16  O61 MOL d          28.071  77.971  82.598  0.00  0.00    -0.265 OA
ENDROOT
BRANCH  15  17
ATOM     17  C32 MOL d          28.233  75.921  83.633  0.00  0.00     0.144 A 
ATOM     18  O35 MOL d          28.402  75.186  82.459  0.00  0.00    -0.296 OA
ATOM     19  C18 MOL d          28.940  73.934  82.824  0.00  0.00     0.130 A 
ATOM     20  C19 MOL d          29.103  73.890  84.225  0.00  0.00     0.050 A 
ATOM     21  C20 MOL d          28.672  75.153  84.743  0.00  0.00     0.046 A 
BRANCH  19  22
ATOM     22  C21 MOL d          29.203  72.861  81.793  0.00  0.00    -0.036 C 
ATOM     23  C22 MOL d          29.418  72.113  80.919  0.00  0.00    -0.059 C 
BRANCH  23  24
ATOM     24  C46 MOL d          29.737  71.053  79.883  0.00  0.00     0.018 A 
ATOM     25  C24 MOL d          29.885  71.435  78.538  0.00  0.00     0.020 A 
ATOM     26  C25 MOL d          30.161  70.466  77.554  0.00  0.00     0.001 A 
ATOM     27  C26 MOL d          30.271  69.108  77.947  0.00  0.00     0.000 A 
ATOM     28  C27 MOL d          30.101  68.719  79.298  0.00  0.00     0.001 A 
ATOM     29  C28 MOL d          29.825  69.691  80.279  0.00  0.00     0.020 A 
ENDBRANCH  23  24
ENDBRANCH  19  22
ENDBRANCH  15  17
BRANCH   6  30
ATOM     30  C30 MOL d          20.245  76.911  81.532  0.00  0.00     0.268 C 
BRANCH  30  31
ATOM     31  N64 MOL d          20.435  77.910  80.493  0.00  0.00    -0.075 N 
ATOM     32  H23 MOL d          20.072  77.560  79.620  0.00  0.00     0.274 HD
ATOM     33  H24 MOL d          21.418  78.108  80.393  0.00  0.00     0.274 HD
ATOM     34  H25 MOL d          19.946  78.755  80.746  0.00  0.00     0.274 HD
ENDBRANCH  30  31
ENDBRANCH   6  30
TORSDOF 5
