3t0d_ligand

Created by X-TOOL on Fri Sep 26 17:34:54 2014
 22 22  0  0  0  0  0  0  0  0999 V2000
  -11.5520  -26.9130  -25.4670  C 0  0  0  1  0  3
  -10.5260  -27.9010  -24.9710  C 0  0  0  2  0  4
   -9.7290  -28.4670  -26.1350  C 0  0  0  2  0  4
  -10.6780  -28.8850  -27.2530  C 0  0  0  2  0  4
  -11.3760  -27.6600  -27.8460  C 0  0  0  2  0  4
  -12.5150  -28.0650  -28.7710  C 0  0  0  3  0  4
  -12.0940  -26.1480  -24.6940  O 0  0  0  1  0  1
   -9.6450  -27.3100  -24.0060  O 0  0  0  2  0  2
   -9.0010  -29.6080  -25.6760  O 0  0  0  2  0  2
  -11.6510  -29.8100  -26.7460  O 0  0  0  2  0  2
  -11.9660  -26.8100  -26.8580  O 0  0  0  1  0  2
  -11.9970  -28.7430  -29.9140  O 0  0  0  2  0  2
  -11.0597  -28.7296  -24.4826  H 0  0  0  1  0  1
   -9.0296  -27.7059  -26.5112  H 0  0  0  1  0  1
  -10.0967  -29.3790  -28.0455  H 0  0  0  1  0  1
  -10.6290  -27.0860  -28.4138  H 0  0  0  1  0  1
  -13.0579  -27.1652  -29.0961  H 0  0  0  1  0  1
  -13.2024  -28.7332  -28.2316  H 0  0  0  1  0  1
  -10.1555  -26.9607  -23.2849  H 0  0  0  1  0  1
   -9.6096  -30.2597  -25.3482  H 0  0  0  1  0  1
  -11.2071  -30.5661  -26.3805  H 0  0  0  1  0  1
  -12.7141  -28.9918  -30.4852  H 0  0  0  1  0  1
  1  2  1  0  0  1
  1  7  2  0  0  2
  1 11  1  0  0  1
  2  3  1  0  0  1
  2  8  1  0  0  2
  3  4  1  0  0  1
  3  9  1  0  0  2
  4  5  1  0  0  1
  4 10  1  0  0  2
  5  6  1  0  0  2
  5 11  1  0  0  1
  6 12  1  0  0  2
  2 13  1  0  0  2
  3 14  1  0  0  2
  4 15  1  0  0  2
  5 16  1  0  0  2
  6 17  1  0  0  2
  6 18  1  0  0  2
  8 19  1  0  0  2
  9 20  1  0  0  2
 10 21  1  0  0  2
 12 22  1  0  0  2
M  END
> <MOLECULAR_FORMULA>
C6H10O6

> <MOLECULAR_WEIGHT>
178.1

> <NUM_HB_ATOMS>
6  

> <NUM_ROTOR>
1  

> <XLOGP2>
-2.12

$$$$
