REMARK  10 active torsions:
REMARK  status: ('A' for Active; 'I' for Inactive)
REMARK    1  A    between atoms: N_1  and  CA_2 
REMARK    2  A    between atoms: CA_2  and  C_3 
REMARK       I    between atoms: C_3  and  N_6 
REMARK    3  A    between atoms: N_6  and  CA_7 
REMARK    4  A    between atoms: CA_7  and  C_8 
REMARK    5  A    between atoms: CA_7  and  CB_10 
REMARK       I    between atoms: C_8  and  N_13 
REMARK    6  A    between atoms: CA_14  and  C_15 
REMARK       I    between atoms: C_15  and  N_20 
REMARK    7  A    between atoms: N_20  and  CA_21 
REMARK    8  A    between atoms: CA_21  and  C_22 
REMARK    9  A    between atoms: CA_21  and  CB_24 
REMARK   10  A    between atoms: CB_24  and  CG_25 
ROOT
ATOM      1  C   MOL d          80.683  62.430  14.247  0.00  0.00     0.243 C 
ATOM      2  O   MOL d          80.325  62.121  15.380  0.00  0.00    -0.271 OA
ATOM      3  N   MOL d          80.079  63.395  13.554  0.00  0.00    -0.337 N 
ATOM      4  CA  MOL d          78.939  64.130  14.123  0.00  0.00     0.179 C 
ATOM      5  CB  MOL d          78.682  65.246  13.094  0.00  0.00     0.037 C 
ATOM      6  CG  MOL d          79.881  65.271  12.215  0.00  0.00     0.022 C 
ATOM      7  CD  MOL d          80.422  63.877  12.204  0.00  0.00     0.127 C 
ENDROOT
BRANCH   4   8
ATOM      8  C   MOL d          77.676  63.276  14.310  0.00  0.00     0.241 C 
ATOM      9  O   MOL d          77.538  62.241  13.660  0.00  0.00    -0.271 OA
ATOM     10  N   MOL d          76.775  63.712  15.191  0.00  0.00    -0.344 N 
ATOM     11  H24 MOL d          76.999  64.499  15.766  0.00  0.00     0.163 HD
BRANCH  10  12
ATOM     12  CA  MOL d          75.459  63.067  15.342  0.00  0.00     0.190 C 
BRANCH  12  13
ATOM     13  C   MOL d          74.317  64.058  15.587  0.00  0.00     0.197 C 
ATOM     14  O   MOL d          73.195  63.923  15.091  0.00  0.00    -0.646 OA
ATOM     15  OXT MOL d          74.441  65.045  16.306  0.00  0.00    -0.646 OA
ENDBRANCH  12  13
BRANCH  12  16
ATOM     16  CB  MOL d          75.496  62.045  16.476  0.00  0.00     0.077 C 
BRANCH  16  17
ATOM     17  CG  MOL d          75.858  62.631  17.791  0.00  0.00    -0.028 A 
ATOM     18  CD1 MOL d          77.108  62.941  18.233  0.00  0.00     0.096 A 
ATOM     19  NE1 MOL d          77.048  63.464  19.503  0.00  0.00    -0.365 N 
ATOM     20  CE2 MOL d          75.739  63.503  19.902  0.00  0.00     0.042 A 
ATOM     21  H29 MOL d          77.855  63.775  20.062  0.00  0.00     0.165 HD
ATOM     22  CD2 MOL d          74.961  62.982  18.846  0.00  0.00    -0.002 A 
ATOM     23  CZ2 MOL d          75.180  63.945  21.096  0.00  0.00     0.030 A 
ATOM     24  CE3 MOL d          73.573  62.907  19.010  0.00  0.00     0.014 A 
ATOM     25  CZ3 MOL d          73.018  63.347  20.200  0.00  0.00     0.001 A 
ATOM     26  CH2 MOL d          73.823  63.855  21.227  0.00  0.00     0.002 A 
ENDBRANCH  16  17
ENDBRANCH  12  16
ENDBRANCH  10  12
ENDBRANCH   4   8
BRANCH   1  27
ATOM     27  CA  MOL d          81.845  61.690  13.584  0.00  0.00     0.180 C 
BRANCH  27  28
ATOM     28  N   MOL d          82.776  61.172  14.586  0.00  0.00    -0.346 N 
ATOM     29  C   MOL d          84.095  61.216  14.424  0.00  0.00     0.248 C 
ATOM     30  O   MOL d          84.632  61.665  13.416  0.00  0.00    -0.271 OA
ATOM     31  H8  MOL d          82.407  60.770  15.424  0.00  0.00     0.163 HD
BRANCH  29  32
ATOM     32  CA  MOL d          84.934  60.657  15.562  0.00  0.00     0.270 C 
ATOM     33  CB  MOL d          84.843  61.565  16.792  0.00  0.00     0.050 C 
BRANCH  32  34
ATOM     34  N   MOL d          86.352  60.513  15.124  0.00  0.00    -0.067 N 
ATOM     35  H1  MOL d          86.902  60.142  15.883  0.00  0.00     0.275 HD
ATOM     36  H2  MOL d          86.714  61.415  14.856  0.00  0.00     0.275 HD
ATOM     37  H3  MOL d          86.398  59.885  14.337  0.00  0.00     0.275 HD
ENDBRANCH  32  34
ENDBRANCH  29  32
ENDBRANCH  27  28
BRANCH  27  38
ATOM     38  CB  MOL d          81.260  60.560  12.698  0.00  0.00     0.009 C 
ATOM     39  CG1 MOL d          82.349  59.924  11.840  0.00  0.00     0.012 C 
ATOM     40  CG2 MOL d          80.540  59.505  13.544  0.00  0.00     0.012 C 
ENDBRANCH  27  38
ENDBRANCH   1  27
TORSDOF 10
