REMARK  7 active torsions:
REMARK  status: ('A' for Active; 'I' for Inactive)
REMARK    1  A    between atoms: C9_10  and  C8_11 
REMARK    2  A    between atoms: N1_15  and  C1_16 
REMARK    3  A    between atoms: C5_18  and  C6_19 
REMARK    4  A    between atoms: C6_19  and  O6_20 
REMARK    5  A    between atoms: C4_21  and  O4_22 
REMARK    6  A    between atoms: C3_23  and  O3_24 
REMARK    7  A    between atoms: C2_25  and  O2_26 
ROOT
ATOM      1  C8  SKY d          35.300  24.349  30.518  0.00  0.00     0.108 A 
ATOM      2  C7  SKY d          35.211  23.679  29.361  0.00  0.00     0.151 A 
ATOM      3  N3  SKY d          34.038  24.574  30.891  0.00  0.00    -0.130 NA
ATOM      4  N2  SKY d          33.266  24.101  30.052  0.00  0.00    -0.063 NA
ATOM      5  N1  SKY d          33.899  23.574  29.130  0.00  0.00    -0.228 N 
ENDROOT
BRANCH   5   6
ATOM      6  C1  SKY d          33.166  22.923  28.019  0.00  0.00     0.278 C 
ATOM      7  O5  SKY d          33.214  21.489  28.264  0.00  0.00    -0.352 OA
ATOM      8  C5  SKY d          32.155  20.841  27.514  0.00  0.00     0.179 C 
ATOM      9  C4  SKY d          32.368  21.009  25.982  0.00  0.00     0.180 C 
ATOM     10  C3  SKY d          32.663  22.474  25.585  0.00  0.00     0.182 C 
ATOM     11  C2  SKY d          33.658  23.129  26.573  0.00  0.00     0.200 C 
BRANCH   8  12
ATOM     12  C6  SKY d          32.112  19.373  27.956  0.00  0.00     0.198 C 
BRANCH  12  13
ATOM     13  O6  SKY d          33.276  18.684  27.480  0.00  0.00    -0.398 OA
ATOM     14  H13 SKY d          34.054  19.096  27.837  0.00  0.00     0.209 HD
ENDBRANCH  12  13
ENDBRANCH   8  12
BRANCH   9  15
ATOM     15  O4  SKY d          31.201  20.558  25.298  0.00  0.00    -0.390 OA
ATOM     16  H15 SKY d          31.326  20.658  24.362  0.00  0.00     0.210 HD
ENDBRANCH   9  15
BRANCH  10  17
ATOM     17  O3  SKY d          33.171  22.520  24.243  0.00  0.00    -0.390 OA
ATOM     18  H17 SKY d          33.350  23.422  24.004  0.00  0.00     0.210 HD
ENDBRANCH  10  17
BRANCH  11  19
ATOM     19  O2  SKY d          33.824  24.524  26.301  0.00  0.00    -0.388 OA
ATOM     20  H19 SKY d          34.439  24.896  26.923  0.00  0.00     0.210 HD
ENDBRANCH  11  19
ENDBRANCH   5   6
BRANCH   1  21
ATOM     21  C9  SKY d          36.443  24.746  31.228  0.00  0.00    -0.003 A 
ATOM     22  C10 SKY d          36.306  25.351  32.486  0.00  0.00     0.026 A 
ATOM     23  C11 SKY d          37.431  25.757  33.212  0.00  0.00    -0.025 A 
ATOM     24  C12 SKY d          37.285  26.361  34.467  0.00  0.00     0.012 A 
ATOM     25  C16 SKY d          38.710  25.558  32.680  0.00  0.00    -0.026 A 
ATOM     26  C13 SKY d          38.418  26.764  35.185  0.00  0.00     0.001 A 
ATOM     27  C14 SKY d          39.696  26.569  34.652  0.00  0.00     0.001 A 
ATOM     28  C15 SKY d          39.840  25.966  33.399  0.00  0.00     0.012 A 
ATOM     29  C17 SKY d          38.852  24.957  31.427  0.00  0.00     0.013 A 
ATOM     30  C18 SKY d          37.726  24.551  30.705  0.00  0.00     0.015 A 
ENDBRANCH   1  21
TORSDOF 7
