REMARK  16 active torsions:
REMARK  status: ('A' for Active; 'I' for Inactive)
REMARK    1  A    between atoms: C2_2  and  N4_7 
REMARK    2  A    between atoms: C7_22  and  C5_5 
REMARK       I    between atoms: N4_7  and  C8_20 
REMARK    3  A    between atoms: N4_7  and  C26_27 
REMARK    4  A    between atoms: C9_8  and  N1_9 
REMARK    5  A    between atoms: C11_11  and  C9_8 
REMARK    6  A    between atoms: C9_8  and  C7_22 
REMARK       I    between atoms: N1_9  and  C10_10 
REMARK       I    between atoms: N2_12  and  C11_11 
REMARK    7  A    between atoms: C12_13  and  N2_12 
REMARK    8  A    between atoms: C13_14  and  C12_13 
REMARK    9  A    between atoms: C15_16  and  C13_14 
REMARK   10  A    between atoms: C14_15  and  C20_48 
REMARK   11  A    between atoms: C14_15  and  O1_17 
REMARK   12  A    between atoms: C20_48  and  C15_16 
REMARK   13  A    between atoms: O1_17  and  C32_35 
REMARK   14  A    between atoms: C8_20  and  C24_24 
REMARK   15  A    between atoms: C25_26  and  C31_34 
REMARK   16  A    between atoms: C37_40  and  C38_41 
ROOT
ATOM      1  C9  MOL d          32.604  30.850  17.968  0.00  0.00     0.180 C 
ENDROOT
BRANCH   1   2
ATOM      2  N1  MOL d          31.984  31.972  17.252  0.00  0.00    -0.348 N 
ATOM      3  C10 MOL d          32.463  32.361  16.038  0.00  0.00     0.214 C 
ATOM      4  O4  MOL d          33.411  31.846  15.445  0.00  0.00    -0.274 OA
ATOM      5  C23 MOL d          31.704  33.541  15.433  0.00  0.00     0.117 C 
ATOM      6  H4  MOL d          31.206  32.453  17.658  0.00  0.00     0.163 HD
ENDBRANCH   1   2
BRANCH   1   7
ATOM      7  C11 MOL d          31.627  29.660  18.190  0.00  0.00     0.240 C 
ATOM      8  N2  MOL d          30.301  29.970  18.322  0.00  0.00    -0.359 N 
ATOM      9  H5  MOL d          30.015  30.926  18.263  0.00  0.00     0.162 HD
ATOM     10  O8  MOL d          32.077  28.520  18.247  0.00  0.00    -0.271 OA
BRANCH   8  11
ATOM     11  C12 MOL d          29.282  28.925  18.549  0.00  0.00     0.122 C 
BRANCH  11  12
ATOM     12  C13 MOL d          28.165  29.263  19.595  0.00  0.00     0.020 C 
BRANCH  12  13
ATOM     13  C15 MOL d          28.596  29.418  21.068  0.00  0.00     0.004 C 
BRANCH  13  14
ATOM     14  C20 MOL d          28.087  30.639  21.918  0.00  0.00     0.027 C 
BRANCH  14  15
ATOM     15  C14 MOL d          26.708  30.683  22.634  0.00  0.00     0.175 C 
BRANCH  15  16
ATOM     16  O1  MOL d          26.010  29.417  22.697  0.00  0.00    -0.350 OA
BRANCH  16  17
ATOM     17  C32 MOL d          24.676  29.359  23.236  0.00  0.00     0.086 A 
ATOM     18  C33 MOL d          23.937  30.547  23.591  0.00  0.00     0.050 A 
ATOM     19  C34 MOL d          22.621  30.479  24.122  0.00  0.00    -0.023 A 
ATOM     20  C35 MOL d          21.976  29.195  24.321  0.00  0.00    -0.025 A 
ATOM     21  C41 MOL d          21.942  31.694  24.462  0.00  0.00     0.012 A 
ATOM     22  C36 MOL d          22.686  28.002  23.978  0.00  0.00     0.033 A 
ATOM     23  C44 MOL d          20.638  29.155  24.862  0.00  0.00     0.012 A 
ATOM     24  C37 MOL d          24.017  28.080  23.446  0.00  0.00     0.074 A 
ATOM     25  C43 MOL d          19.974  30.379  25.197  0.00  0.00     0.001 A 
ATOM     26  C42 MOL d          20.621  31.638  25.000  0.00  0.00     0.001 A 
BRANCH  24  27
ATOM     27  C38 MOL d          24.681  26.824  23.126  0.00  0.00     0.212 C 
ATOM     28  O11 MOL d          25.008  26.051  24.166  0.00  0.00    -0.644 OA
ATOM     29  O12 MOL d          24.917  26.502  22.000  0.00  0.00    -0.644 OA
ENDBRANCH  24  27
ENDBRANCH  16  17
ENDBRANCH  15  16
ENDBRANCH  14  15
ENDBRANCH  13  14
ENDBRANCH  12  13
ENDBRANCH  11  12
ENDBRANCH   8  11
ENDBRANCH   1   7
BRANCH   1  30
ATOM     30  C7  MOL d          33.195  31.381  19.322  0.00  0.00     0.074 C 
BRANCH  30  31
ATOM     31  C5  MOL d          33.894  30.279  20.129  0.00  0.00    -0.044 A 
ATOM     32  C4  MOL d          33.189  29.716  21.228  0.00  0.00     0.010 A 
ATOM     33  C3  MOL d          33.756  28.692  21.998  0.00  0.00     0.031 A 
ATOM     34  C2  MOL d          35.078  28.154  21.725  0.00  0.00     0.054 A 
ATOM     35  C1  MOL d          35.829  28.706  20.617  0.00  0.00     0.002 A 
ATOM     36  C6  MOL d          35.242  29.773  19.810  0.00  0.00    -0.017 A 
ATOM     37  C16 MOL d          37.145  28.211  20.298  0.00  0.00     0.014 A 
ATOM     38  C19 MOL d          36.011  30.301  18.710  0.00  0.00     0.013 A 
ATOM     39  C18 MOL d          37.313  29.799  18.412  0.00  0.00     0.001 A 
ATOM     40  C17 MOL d          37.878  28.759  19.203  0.00  0.00     0.001 A 
BRANCH  34  41
ATOM     41  N4  MOL d          35.523  27.115  22.575  0.00  0.00    -0.272 N 
ATOM     42  C8  MOL d          35.923  27.428  23.913  0.00  0.00     0.329 C 
ATOM     43  O5  MOL d          36.207  26.576  24.749  0.00  0.00    -0.260 OA
BRANCH  42  44
ATOM     44  C24 MOL d          36.034  28.880  24.411  0.00  0.00     0.270 C 
ATOM     45  O6  MOL d          36.947  29.607  24.107  0.00  0.00    -0.640 OA
ATOM     46  O2  MOL d          35.025  29.282  25.202  0.00  0.00    -0.640 OA
ENDBRANCH  42  44
BRANCH  41  47
ATOM     47  C26 MOL d          35.446  25.748  22.088  0.00  0.00     0.060 A 
ATOM     48  C27 MOL d          34.204  25.337  21.486  0.00  0.00     0.031 A 
ATOM     49  C28 MOL d          33.986  24.054  20.971  0.00  0.00     0.002 A 
ATOM     50  C29 MOL d          35.001  23.097  21.022  0.00  0.00     0.001 A 
ATOM     51  C30 MOL d          36.231  23.430  21.594  0.00  0.00     0.021 A 
ATOM     52  C25 MOL d          36.496  24.723  22.133  0.00  0.00     0.068 A 
BRANCH  52  53
ATOM     53  C31 MOL d          37.869  24.859  22.696  0.00  0.00     0.211 C 
ATOM     54  O9  MOL d          38.395  23.917  23.222  0.00  0.00    -0.644 OA
ATOM     55  O10 MOL d          38.509  26.042  22.625  0.00  0.00    -0.644 OA
ENDBRANCH  52  53
ENDBRANCH  41  47
ENDBRANCH  34  41
ENDBRANCH  30  31
ENDBRANCH   1  30
TORSDOF 16
