REMARK  5 active torsions:
REMARK  status: ('A' for Active; 'I' for Inactive)
REMARK    1  A    between atoms: C1'_19  and  N1_4 
REMARK    2  A    between atoms: C5'_12  and  NBA_11 
REMARK    3  A    between atoms: C4'_13  and  C5'_12 
REMARK    4  A    between atoms: C3'_15  and  O3'_16 
REMARK    5  A    between atoms: C2'_17  and  O2'_18 
ROOT
ATOM      1  C4' U3S d          38.533  -0.832  13.970  0.00  0.00     0.181 C 
ATOM      2  O4' U3S d          38.660  -1.368  12.615  0.00  0.00    -0.354 OA
ATOM      3  C3' U3S d          38.007   0.547  13.641  0.00  0.00     0.181 C 
ATOM      4  C2' U3S d          36.873   0.211  12.704  0.00  0.00     0.198 C 
ATOM      5  C1' U3S d          37.343  -1.104  12.038  0.00  0.00     0.263 C 
ENDROOT
BRANCH   5   6
ATOM      6  N1  U3S d          36.461  -2.309  12.202  0.00  0.00    -0.280 N 
ATOM      7  C6  U3S d          36.826  -3.376  13.062  0.00  0.00     0.104 A 
ATOM      8  C5  U3S d          36.012  -4.501  13.197  0.00  0.00     0.092 A 
ATOM      9  C4  U3S d          34.834  -4.586  12.460  0.00  0.00     0.250 A 
ATOM     10  N3  U3S d          34.469  -3.552  11.598  0.00  0.00    -0.275 N 
ATOM     11  O4  U3S d          34.102  -5.569  12.556  0.00  0.00    -0.268 OA
ATOM     12  C2  U3S d          35.270  -2.408  11.466  0.00  0.00     0.331 A 
ATOM     13  H3  U3S d          33.625  -3.627  11.067  0.00  0.00     0.173 HD
ATOM     14  O2  U3S d          34.910  -1.512  10.708  0.00  0.00    -0.246 OA
ENDBRANCH   5   6
BRANCH   4  15
ATOM     15  O2' U3S d          36.875   1.295  11.773  0.00  0.00    -0.388 OA
ATOM     16  H21 U3S d          36.182   1.165  11.136  0.00  0.00     0.210 HD
ENDBRANCH   4  15
BRANCH   1  17
ATOM     17  C5' U3S d          39.765  -0.766  14.925  0.00  0.00     0.269 C 
BRANCH  17  18
ATOM     18  NBA U3S d          41.036  -1.337  14.435  0.00  0.00    -0.069 N 
ATOM     19  CAM U3S d          40.941  -2.763  14.045  0.00  0.00     0.235 C 
ATOM     20  CAK U3S d          42.291  -3.503  14.175  0.00  0.00     0.028 C 
ATOM     21  CAV U3S d          43.496  -2.552  14.113  0.00  0.00     0.003 C 
ATOM     22  CAJ U3S d          43.407  -1.453  15.185  0.00  0.00     0.028 C 
ATOM     23  CAL U3S d          41.951  -1.179  15.587  0.00  0.00     0.235 C 
ATOM     24  H14 U3S d          41.367  -0.809  13.643  0.00  0.00     0.280 HD
ENDBRANCH  17  18
ENDBRANCH   1  17
BRANCH   3  25
ATOM     25  O3' U3S d          37.474   1.243  14.758  0.00  0.00    -0.390 OA
ATOM     26  H19 U3S d          37.164   2.097  14.479  0.00  0.00     0.210 HD
ENDBRANCH   3  25
TORSDOF 5
