REMARK  8 active torsions:
REMARK  status: ('A' for Active; 'I' for Inactive)
REMARK    1  A    between atoms: C4_5  and  C7_7 
REMARK    2  A    between atoms: C11_9  and  O19_19 
REMARK    3  A    between atoms: C10_10  and  C13_13 
REMARK    4  A    between atoms: C16_16  and  C20_20 
REMARK       I    between atoms: C20_20  and  N22_22 
REMARK    5  A    between atoms: N22_22  and  C23_23 
REMARK    6  A    between atoms: C23_23  and  C24_24 
REMARK    7  A    between atoms: C24_24  and  C25_25 
REMARK    8  A    between atoms: C25_25  and  C26_26 
ROOT
ATOM      1  C13 HOP d           8.491  13.216  -6.010  0.00  0.00    -0.051 A 
ATOM      2  C14 HOP d           9.106  14.438  -6.470  0.00  0.00     0.009 A 
ATOM      3  C15 HOP d           8.630  15.092  -7.612  0.00  0.00     0.017 A 
ATOM      4  C16 HOP d           7.515  14.560  -8.347  0.00  0.00     0.032 A 
ATOM      5  C17 HOP d           6.920  13.342  -7.894  0.00  0.00     0.017 A 
ATOM      6  C18 HOP d           7.390  12.667  -6.742  0.00  0.00     0.009 A 
ENDROOT
BRANCH   1   7
ATOM      7  C10 HOP d           9.057  12.518  -4.710  0.00  0.00     0.047 C 
ATOM      8  C11 HOP d          10.249  11.562  -5.069  0.00  0.00     0.127 C 
ATOM      9  C12 HOP d          10.798  10.891  -3.786  0.00  0.00     0.042 C 
ATOM     10  C7  HOP d           9.710  10.084  -2.986  0.00  0.00     0.021 C 
ATOM     11  C8  HOP d           8.476  11.008  -2.663  0.00  0.00     0.010 C 
ATOM     12  C9  HOP d           7.925  11.692  -3.955  0.00  0.00     0.012 C 
BRANCH   8  13
ATOM     13  O19 HOP d          11.323  12.268  -5.734  0.00  0.00    -0.395 OA
ATOM     14  H19 HOP d          10.989  12.681  -6.522  0.00  0.00     0.210 HD
ENDBRANCH   8  13
BRANCH  10  15
ATOM     15  C4  HOP d          10.260   9.419  -1.704  0.00  0.00    -0.054 A 
ATOM     16  C3  HOP d           9.749   8.145  -1.279  0.00  0.00     0.007 A 
ATOM     17  C2  HOP d          10.258   7.514  -0.112  0.00  0.00     0.001 A 
ATOM     18  C1  HOP d          11.294   8.147   0.644  0.00  0.00     0.000 A 
ATOM     19  C6  HOP d          11.812   9.403   0.235  0.00  0.00     0.001 A 
ATOM     20  C5  HOP d          11.305  10.042  -0.930  0.00  0.00     0.007 A 
ENDBRANCH  10  15
ENDBRANCH   1   7
BRANCH   4  21
ATOM     21  C20 HOP d           7.030  15.263  -9.577  0.00  0.00     0.251 C 
ATOM     22  N22 HOP d           7.827  16.240 -10.120  0.00  0.00    -0.357 N 
ATOM     23  H20 HOP d           8.701  16.392  -9.659  0.00  0.00     0.162 HD
ATOM     24  O21 HOP d           5.933  14.956 -10.062  0.00  0.00    -0.268 OA
BRANCH  22  25
ATOM     25  C23 HOP d           7.563  17.107 -11.309  0.00  0.00     0.123 C 
BRANCH  25  26
ATOM     26  C24 HOP d           8.630  18.245 -11.371  0.00  0.00     0.030 C 
BRANCH  26  27
ATOM     27  C25 HOP d           9.494  18.325 -10.086  0.00  0.00     0.114 C 
BRANCH  27  28
ATOM     28  C26 HOP d          10.459  19.489 -10.028  0.00  0.00     0.172 C 
ATOM     29  O28 HOP d          10.159  20.366  -8.988  0.00  0.00    -0.648 OA
ATOM     30  O27 HOP d          11.412  19.624 -10.812  0.00  0.00    -0.648 OA
ENDBRANCH  27  28
ENDBRANCH  26  27
ENDBRANCH  25  26
ENDBRANCH  22  25
ENDBRANCH   4  21
TORSDOF 8
