REMARK  14 active torsions:
REMARK  status: ('A' for Active; 'I' for Inactive)
REMARK    1  A    between atoms: PA_1  and  O5'A_4 
REMARK    2  A    between atoms: O3A_8  and  PA_1 
REMARK    3  A    between atoms: O5'A_4  and  C5'A_19 
REMARK    4  A    between atoms: PB_5  and  O3A_8 
REMARK    5  A    between atoms: O3'U_34  and  PB_5 
REMARK    6  A    between atoms: C1'A_22  and  N9A_9 
REMARK    7  A    between atoms: C6A_14  and  N6A_15 
REMARK    8  A    between atoms: C5'A_19  and  C4'A_20 
REMARK    9  A    between atoms: C2'A_23  and  O2'A_24 
REMARK   10  A    between atoms: C3'A_25  and  O3'A_26 
REMARK   11  A    between atoms: C5'U_28  and  O5'U_27 
REMARK   12  A    between atoms: C4'U_29  and  C5'U_28 
REMARK   13  A    between atoms: C1'U_31  and  N1U_35 
REMARK   14  A    between atoms: O3'U_34  and  C3'U_33 
ROOT
ATOM      1  PA  MOL d          38.292  -4.569  21.304  0.00  0.00     0.417 P 
ATOM      2  O1A MOL d          39.518  -5.432  21.605  0.00  0.00    -0.624 OA
ATOM      3  O2A MOL d          38.631  -3.184  20.830  0.00  0.00    -0.624 OA
ENDROOT
BRANCH   1   4
ATOM      4  O5' MOL d          37.317  -5.244  20.229  0.00  0.00    -0.287 OA
BRANCH   4   5
ATOM      5  C5' MOL d          36.923  -6.614  20.356  0.00  0.00     0.216 C 
BRANCH   5   6
ATOM      6  C4' MOL d          37.074  -7.342  19.034  0.00  0.00     0.180 C 
ATOM      7  O4' MOL d          36.136  -6.802  18.074  0.00  0.00    -0.353 OA
ATOM      8  C1' MOL d          36.609  -7.094  16.774  0.00  0.00     0.262 C 
ATOM      9  C2' MOL d          38.086  -7.509  16.865  0.00  0.00     0.198 C 
ATOM     10  C3' MOL d          38.421  -7.204  18.329  0.00  0.00     0.182 C 
BRANCH   8  11
ATOM     11  N9A MOL d          36.208  -6.037  15.832  0.00  0.00    -0.294 N 
ATOM     12  C4A MOL d          36.704  -4.759  15.650  0.00  0.00     0.167 A 
ATOM     13  N3A MOL d          37.688  -4.134  16.347  0.00  0.00    -0.222 NA
ATOM     14  C5A MOL d          35.984  -4.233  14.578  0.00  0.00     0.149 A 
ATOM     15  C2A MOL d          37.897  -2.886  15.874  0.00  0.00     0.237 A 
ATOM     16  N1A MOL d          37.273  -2.250  14.857  0.00  0.00    -0.222 NA
ATOM     17  C6A MOL d          36.303  -2.917  14.170  0.00  0.00     0.155 A 
ATOM     18  N7A MOL d          35.054  -5.148  14.108  0.00  0.00    -0.236 NA
ATOM     19  C8A MOL d          35.217  -6.188  14.888  0.00  0.00     0.214 A 
BRANCH  17  20
ATOM     20  N6A MOL d          35.703  -2.314  13.143  0.00  0.00    -0.382 N 
ATOM     21  H2  MOL d          34.968  -2.806  12.615  0.00  0.00     0.157 HD
ATOM     22  H3  MOL d          35.974  -1.356  12.878  0.00  0.00     0.157 HD
ENDBRANCH  17  20
ENDBRANCH   8  11
BRANCH   9  23
ATOM     23  O2' MOL d          38.247  -8.882  16.528  0.00  0.00    -0.388 OA
ATOM     24  H10 MOL d          39.166  -9.117  16.591  0.00  0.00     0.210 HD
ENDBRANCH   9  23
BRANCH  10  25
ATOM     25  O3' MOL d          39.473  -8.063  18.826  0.00  0.00    -0.390 OA
ATOM     26  H12 MOL d          39.196  -8.970  18.764  0.00  0.00     0.210 HD
ENDBRANCH  10  25
ENDBRANCH   5   6
ENDBRANCH   4   5
ENDBRANCH   1   4
BRANCH   1  27
ATOM     27  O3A MOL d          37.446  -4.387  22.644  0.00  0.00    -0.180 OA
BRANCH  27  28
ATOM     28  PB  MOL d          36.671  -3.178  23.340  0.00  0.00     0.418 P 
ATOM     29  O1B MOL d          35.704  -2.635  22.329  0.00  0.00    -0.624 OA
ATOM     30  O2B MOL d          36.152  -3.713  24.628  0.00  0.00    -0.624 OA
BRANCH  28  31
ATOM     31  O3' MOL d          37.855  -2.131  23.749  0.00  0.00    -0.281 OA
BRANCH  31  32
ATOM     32  C3' MOL d          38.107  -0.951  22.957  0.00  0.00     0.169 C 
ATOM     33  C4' MOL d          39.194  -0.086  23.609  0.00  0.00     0.177 C 
ATOM     34  O4' MOL d          38.501   0.977  24.321  0.00  0.00    -0.356 OA
ATOM     35  C1' MOL d          37.097   0.816  24.178  0.00  0.00     0.235 C 
ATOM     36  C2' MOL d          36.905  -0.022  22.925  0.00  0.00     0.089 C 
BRANCH  33  37
ATOM     37  C5' MOL d          40.174   0.540  22.643  0.00  0.00     0.198 C 
BRANCH  37  38
ATOM     38  O5' MOL d          39.547   1.613  21.919  0.00  0.00    -0.398 OA
ATOM     39  H13 MOL d          39.249   2.275  22.532  0.00  0.00     0.209 HD
ENDBRANCH  37  38
ENDBRANCH  33  37
BRANCH  35  40
ATOM     40  N1U MOL d          36.463   2.146  24.096  0.00  0.00    -0.282 N 
ATOM     41  C6U MOL d          36.977   3.157  23.286  0.00  0.00     0.104 A 
ATOM     42  C5U MOL d          36.368   4.345  23.135  0.00  0.00     0.092 A 
ATOM     43  C4U MOL d          35.133   4.611  23.843  0.00  0.00     0.250 A 
ATOM     44  N3U MOL d          34.706   3.583  24.672  0.00  0.00    -0.275 N 
ATOM     45  O4U MOL d          34.372   5.560  23.634  0.00  0.00    -0.268 OA
ATOM     46  C2U MOL d          35.293   2.349  24.840  0.00  0.00     0.331 A 
ATOM     47  H22 MOL d          33.880   3.758  25.207  0.00  0.00     0.173 HD
ATOM     48  O2U MOL d          34.810   1.503  25.572  0.00  0.00    -0.246 OA
ENDBRANCH  35  40
ENDBRANCH  31  32
ENDBRANCH  28  31
ENDBRANCH  27  28
ENDBRANCH   1  27
TORSDOF 14
