REMARK  1 active torsions:
REMARK  status: ('A' for Active; 'I' for Inactive)
REMARK    1  A    between atoms: C9_7  and  N13_13 
ROOT
ATOM      1  N10 APZ d          15.857  17.017  23.900  0.00  0.00    -0.263 N 
ATOM      2  C5  APZ d          15.418  16.808  22.654  0.00  0.00     0.271 A 
ATOM      3  O11 APZ d          14.255  16.450  22.463  0.00  0.00    -0.266 OA
ATOM      4  C2  APZ d          16.327  16.993  21.517  0.00  0.00     0.049 A 
ATOM      5  C6  APZ d          15.913  16.794  20.185  0.00  0.00     0.020 A 
ATOM      6  C12 APZ d          16.818  16.995  19.133  0.00  0.00     0.030 A 
ATOM      7  C9  APZ d          18.139  17.402  19.408  0.00  0.00     0.026 A 
ATOM      8  C4  APZ d          18.552  17.607  20.733  0.00  0.00     0.047 A 
ATOM      9  C1  APZ d          17.649  17.411  21.790  0.00  0.00     0.051 A 
ATOM     10  C3  APZ d          18.056  17.617  23.186  0.00  0.00     0.271 A 
ATOM     11  O8  APZ d          19.202  17.973  23.450  0.00  0.00    -0.266 OA
ATOM     12  N7  APZ d          17.167  17.420  24.164  0.00  0.00    -0.263 N 
ATOM     13  H1  APZ d          15.228  16.881  24.665  0.00  0.00     0.190 HD
ATOM     14  H5  APZ d          17.448  17.566  25.113  0.00  0.00     0.190 HD
ENDROOT
BRANCH   7  15
ATOM     15  N13 APZ d          19.014  17.598  18.390  0.00  0.00    -0.399 N 
ATOM     16  H6  APZ d          18.713  17.448  17.416  0.00  0.00     0.156 HD
ATOM     17  H7  APZ d          19.979  17.897  18.591  0.00  0.00     0.156 HD
ENDBRANCH   7  15
TORSDOF 1
