REMARK  10 active torsions:
REMARK  status: ('A' for Active; 'I' for Inactive)
REMARK       I    between atoms: N19_1  and  C18_19 
REMARK    1  A    between atoms: C23_2  and  C24_6 
REMARK       I    between atoms: C24_6  and  N25_8 
REMARK    2  A    between atoms: N25_8  and  C26_9 
REMARK    3  A    between atoms: C33_13  and  N35_14 
REMARK    4  A    between atoms: C18_19  and  C10_21 
REMARK    5  A    between atoms: C10_21  and  N9_22 
REMARK    6  A    between atoms: C10_21  and  C11_33 
REMARK    7  A    between atoms: N9_22  and  S8_23 
REMARK    8  A    between atoms: S8_23  and  C7_26 
REMARK    9  A    between atoms: C7_26  and  C5_27 
REMARK   10  A    between atoms: C11_33  and  C12_34 
ROOT
ATOM      1  N19 MOL d          10.260 -13.702  15.049  0.00  0.00    -0.337 N 
ATOM      2  C23 MOL d          10.571 -12.390  15.619  0.00  0.00     0.179 C 
ATOM      3  C22 MOL d           9.590 -12.621  16.825  0.00  0.00     0.037 C 
ATOM      4  C21 MOL d           8.475 -13.407  16.201  0.00  0.00     0.022 C 
ATOM      5  C20 MOL d           9.323 -14.584  15.780  0.00  0.00     0.127 C 
ATOM      6  C18 MOL d          10.797 -14.130  13.697  0.00  0.00     0.244 C 
ATOM      7  O38 MOL d          11.527 -13.332  13.029  0.00  0.00    -0.271 OA
ENDROOT
BRANCH   6   8
ATOM      8  C10 MOL d          10.346 -15.548  13.112  0.00  0.00     0.185 C 
BRANCH   8   9
ATOM      9  N9  MOL d          11.326 -16.473  13.999  0.00  0.00    -0.305 N 
ATOM     10  H19 MOL d          10.906 -16.964  14.762  0.00  0.00     0.173 HD
BRANCH   9  11
ATOM     11  S8  MOL d          13.005 -16.704  13.776  0.00  0.00     0.231 S 
ATOM     12  O36 MOL d          13.759 -16.648  12.580  0.00  0.00    -0.206 OA
ATOM     13  O37 MOL d          13.539 -17.455  14.868  0.00  0.00    -0.206 OA
BRANCH  11  14
ATOM     14  C7  MOL d          12.227 -18.276  13.068  0.00  0.00     0.201 C 
BRANCH  14  15
ATOM     15  C5  MOL d          13.159 -19.261  12.318  0.00  0.00    -0.043 A 
ATOM     16  C6  MOL d          12.924 -19.399  10.845  0.00  0.00     0.008 A 
ATOM     17  C1  MOL d          13.779 -20.281  10.035  0.00  0.00     0.001 A 
ATOM     18  C2  MOL d          14.892 -21.043  10.685  0.00  0.00     0.000 A 
ATOM     19  C3  MOL d          15.121 -20.916  12.141  0.00  0.00     0.001 A 
ATOM     20  C4  MOL d          14.245 -20.012  12.974  0.00  0.00     0.008 A 
ENDBRANCH  14  15
ENDBRANCH  11  14
ENDBRANCH   9  11
ENDBRANCH   8   9
BRANCH   8  21
ATOM     21  C11 MOL d          10.610 -15.637  11.550  0.00  0.00     0.040 C 
BRANCH  21  22
ATOM     22  C12 MOL d           9.187 -14.765  11.157  0.00  0.00    -0.012 C 
ATOM     23  C13 MOL d           7.746 -15.526  11.566  0.00  0.00     0.005 C 
ATOM     24  C14 MOL d           6.422 -14.662  11.224  0.00  0.00     0.000 C 
ATOM     25  C15 MOL d           6.448 -14.005   9.764  0.00  0.00     0.000 C 
ATOM     26  C16 MOL d           7.846 -13.347   9.373  0.00  0.00     0.000 C 
ATOM     27  C17 MOL d           9.069 -14.332   9.657  0.00  0.00     0.005 C 
ENDBRANCH  21  22
ENDBRANCH   8  21
ENDBRANCH   6   8
BRANCH   2  28
ATOM     28  C24 MOL d          11.971 -12.181  16.199  0.00  0.00     0.241 C 
ATOM     29  O39 MOL d          12.072 -11.438  17.195  0.00  0.00    -0.271 OA
ATOM     30  N25 MOL d          13.098 -12.864  15.519  0.00  0.00    -0.354 N 
ATOM     31  H8  MOL d          12.930 -13.454  14.729  0.00  0.00     0.162 HD
BRANCH  30  32
ATOM     32  C26 MOL d          14.489 -12.660  16.030  0.00  0.00     0.089 C 
ATOM     33  C31 MOL d          14.988 -11.330  15.374  0.00  0.00     0.073 C 
ATOM     34  C30 MOL d          15.859 -11.480  14.133  0.00  0.00     0.013 A 
ATOM     35  S34 MOL d          16.295 -10.069  13.248  0.00  0.00    -0.055 SA
ATOM     36  C29 MOL d          16.340 -12.668  13.596  0.00  0.00     0.050 A 
ATOM     37  C33 MOL d          17.192 -11.108  12.059  0.00  0.00     0.165 A 
ATOM     38  N32 MOL d          17.131 -12.374  12.369  0.00  0.00    -0.228 NA
ATOM     39  C28 MOL d          16.097 -14.055  14.190  0.00  0.00     0.062 C 
ATOM     40  C27 MOL d          15.373 -14.002  15.667  0.00  0.00     0.031 C 
BRANCH  37  41
ATOM     41  N35 MOL d          17.831 -10.553  10.981  0.00  0.00    -0.378 N 
ATOM     42  H12 MOL d          18.336 -11.155  10.315  0.00  0.00     0.158 HD
ATOM     43  H13 MOL d          17.806  -9.534  10.837  0.00  0.00     0.158 HD
ENDBRANCH  37  41
ENDBRANCH  30  32
ENDBRANCH   2  28
TORSDOF 10
