REMARK  6 active torsions:
REMARK  status: ('A' for Active; 'I' for Inactive)
REMARK    1  A    between atoms: C1'_1  and  O1'_7 
REMARK    2  A    between atoms: C2'_2  and  O2'_8 
REMARK    3  A    between atoms: C3'_3  and  O3'_9 
REMARK    4  A    between atoms: C4'_4  and  O4'_10 
REMARK    5  A    between atoms: C5'_5  and  C6'_6 
REMARK    6  A    between atoms: C6'_6  and  O6'_12 
ROOT
ATOM      1  C1' ALL d           4.859   7.133  10.458  0.00  0.00     0.288 C 
ATOM      2  C2' ALL d           5.190   8.536  11.023  0.00  0.00     0.204 C 
ATOM      3  C3' ALL d           4.750   8.629  12.481  0.00  0.00     0.183 C 
ATOM      4  C4' ALL d           3.247   8.334  12.570  0.00  0.00     0.180 C 
ATOM      5  C5' ALL d           2.995   6.960  11.933  0.00  0.00     0.179 C 
ATOM      6  O5' ALL d           3.467   6.921  10.592  0.00  0.00    -0.349 OA
ENDROOT
BRANCH   5   7
ATOM      7  C6' ALL d           1.590   6.455  12.004  0.00  0.00     0.198 C 
BRANCH   7   8
ATOM      8  O6' ALL d           0.684   7.345  11.299  0.00  0.00    -0.398 OA
ATOM      9  H12 ALL d           0.943   7.402  10.387  0.00  0.00     0.209 HD
ENDBRANCH   7   8
ENDBRANCH   5   7
BRANCH   4  10
ATOM     10  O4' ALL d           2.787   8.270  13.925  0.00  0.00    -0.390 OA
ATOM     11  H11 ALL d           3.251   7.580  14.384  0.00  0.00     0.210 HD
ENDBRANCH   4  10
BRANCH   3  12
ATOM     12  O3' ALL d           5.473   7.595  13.234  0.00  0.00    -0.390 OA
ATOM     13  H10 ALL d           6.408   7.747  13.161  0.00  0.00     0.210 HD
ENDBRANCH   3  12
BRANCH   1  14
ATOM     14  O1' ALL d           5.242   7.006   9.107  0.00  0.00    -0.369 OA
ATOM     15  H8  ALL d           6.178   7.150   9.029  0.00  0.00     0.212 HD
ENDBRANCH   1  14
BRANCH   2  16
ATOM     16  O2' ALL d           6.585   8.761  10.925  0.00  0.00    -0.388 OA
ATOM     17  H9  ALL d           7.047   8.098  11.425  0.00  0.00     0.210 HD
ENDBRANCH   2  16
TORSDOF 6
