4j74_ligand

Created by X-TOOL on Fri Sep 26 17:35:02 2014
 34 36  0  0  0  0  0  0  0  0999 V2000
  -13.7500   -9.5080    2.6330  N 0  0  0  2  0  3
  -12.6710   -9.7260    1.6670  C 0  0  0  2  0  4
  -13.2230  -10.3460    0.4060  C 0  0  0  1  0  3
  -11.7030  -10.6570    2.4540  C 0  0  0  2  0  4
  -11.3800  -11.9480    1.7480  C 0  0  0  1  0  3
  -12.3850  -10.9090    3.7230  N 0  0  0  1  0  2
  -13.4820  -10.2540    3.7620  C 0  0  0  1  0  3
  -14.4600  -10.2400    4.9030  C 0  0  0  4  0  4
  -14.4750  -10.9650    0.4350  C 0  0  0  2  0  3
  -15.0140  -11.5130   -0.7240  C 0  0  0  2  0  3
  -14.2910  -11.4520   -1.9160  C 0  0  0  1  0  3
  -14.9460  -12.2010   -3.3550 Cl 0  0  0  1  0  1
  -13.0440  -10.8190   -1.9610  C 0  0  0  2  0  3
  -12.5080  -10.2730   -0.7950  C 0  0  0  2  0  3
  -10.1830  -12.0660    1.0400  C 0  0  0  2  0  3
   -9.8730  -13.2490    0.3820  C 0  0  0  2  0  3
  -10.7720  -14.3140    0.4220  C 0  0  0  1  0  3
  -10.4300  -15.7610   -0.4980 Cl 0  0  0  1  0  1
  -11.9520  -14.2220    1.1630  C 0  0  0  2  0  3
  -12.2560  -13.0350    1.8230  C 0  0  0  2  0  3
  -14.5700   -8.9006    2.4931  H 0  0  0  1  0  1
  -12.1700   -8.7810    1.4101  H 0  0  0  1  0  1
  -10.7579  -10.1248    2.6371  H 0  0  0  1  0  1
  -14.0882  -10.8853    5.7125  H 0  0  0  1  0  1
  -15.4346  -10.6129    4.5552  H 0  0  0  1  0  1
  -14.5729   -9.2116    5.2766  H 0  0  0  1  0  1
  -15.0290  -11.0184    1.3652  H 0  0  0  1  0  1
  -15.9898  -11.9846   -0.7016  H 0  0  0  1  0  1
  -12.4985  -10.7535   -2.8954  H 0  0  0  1  0  1
  -11.5370   -9.7918   -0.8189  H 0  0  0  1  0  1
   -9.4927  -11.2310    1.0036  H 0  0  0  1  0  1
   -8.9385  -13.3438   -0.1590  H 0  0  0  1  0  1
  -12.6261  -15.0687    1.2237  H 0  0  0  1  0  1
  -13.1727  -12.9532    2.3957  H 0  0  0  1  0  1
  1  2  1  0  0  1
  1  7  1  0  0  1
  2  3  1  0  0  2
  2  4  1  0  0  1
  3  9  4  0  0  1
  3 14  4  0  0  1
  4  5  1  0  0  2
  4  6  1  0  0  1
  5 15  4  0  0  1
  5 20  4  0  0  1
  6  7  2  0  0  1
  7  8  1  0  0  2
  9 10  4  0  0  1
 10 11  4  0  0  1
 11 12  1  0  0  2
 11 13  4  0  0  1
 13 14  4  0  0  1
 15 16  4  0  0  1
 16 17  4  0  0  1
 17 18  1  0  0  2
 17 19  4  0  0  1
 19 20  4  0  0  1
  1 21  1  0  0  2
  2 22  1  0  0  2
  4 23  1  0  0  2
  8 24  1  0  0  2
  8 25  1  0  0  2
  8 26  1  0  0  2
  9 27  1  0  0  2
 10 28  1  0  0  2
 13 29  1  0  0  2
 14 30  1  0  0  2
 15 31  1  0  0  2
 16 32  1  0  0  2
 19 33  1  0  0  2
 20 34  1  0  0  2
M  END
> <MOLECULAR_FORMULA>
C16H14N2Cl2

> <MOLECULAR_WEIGHT>
305.1

> <NUM_HB_ATOMS>
2  

> <NUM_ROTOR>
2  

> <XLOGP2>
4.69 

$$$$
