REMARK  22 active torsions:
REMARK  status: ('A' for Active; 'I' for Inactive)
REMARK    1  A    between atoms: N4B_18  and  C1A_1 
REMARK    2  A    between atoms: C2A_2  and  O2A_8 
REMARK    3  A    between atoms: C3A_3  and  O3A_9 
REMARK    4  A    between atoms: C4A_4  and  O4A_10 
REMARK    5  A    between atoms: C5A_5  and  C6A_6 
REMARK    6  A    between atoms: C6A_6  and  O6A_11 
REMARK    7  A    between atoms: O4C_30  and  C1B_12 
REMARK    8  A    between atoms: C2B_13  and  O2B_19 
REMARK    9  A    between atoms: C3B_14  and  O3B_20 
REMARK   10  A    between atoms: C4B_15  and  N4B_18 
REMARK   11  A    between atoms: O4D_42  and  C1C_22 
REMARK   12  A    between atoms: C2C_23  and  O2C_28 
REMARK   13  A    between atoms: C3C_24  and  O3C_29 
REMARK   14  A    between atoms: C4C_25  and  O4C_30 
REMARK   15  A    between atoms: C5C_26  and  C6C_27 
REMARK   16  A    between atoms: C6C_27  and  O6C_32 
REMARK   17  A    between atoms: C1D_33  and  O1D_39 
REMARK   18  A    between atoms: C2D_34  and  O2D_40 
REMARK   19  A    between atoms: C3D_35  and  O3D_41 
REMARK   20  A    between atoms: O4D_42  and  C4D_36 
REMARK   21  A    between atoms: C5D_37  and  C6D_38 
REMARK   22  A    between atoms: C6D_38  and  O6D_44 
ROOT
ATOM      1  O4C ACR d           0.484  53.144  92.735  0.00  0.00    -0.348 OA
ENDROOT
BRANCH   1   2
ATOM      2  C4C ACR d           1.103  51.991  93.318  0.00  0.00     0.187 C 
ATOM      3  C3C ACR d           2.491  51.667  92.672  0.00  0.00     0.183 C 
ATOM      4  C2C ACR d           3.079  50.445  93.421  0.00  0.00     0.204 C 
ATOM      5  C1C ACR d           3.250  50.782  94.936  0.00  0.00     0.292 C 
ATOM      6  O5C ACR d           2.016  51.248  95.500  0.00  0.00    -0.348 OA
ATOM      7  C5C ACR d           1.389  52.381  94.809  0.00  0.00     0.180 C 
BRANCH   3   8
ATOM      8  O3C ACR d           2.350  51.287  91.314  0.00  0.00    -0.390 OA
ATOM      9  H32 ACR d           3.206  51.097  90.949  0.00  0.00     0.210 HD
ENDBRANCH   3   8
BRANCH   4  10
ATOM     10  O2C ACR d           4.341  50.047  92.906  0.00  0.00    -0.388 OA
ATOM     11  H31 ACR d           4.957  50.766  92.989  0.00  0.00     0.210 HD
ENDBRANCH   4  10
BRANCH   5  12
ATOM     12  O4D ACR d           4.233  51.750  95.113  0.00  0.00    -0.348 OA
BRANCH  12  13
ATOM     13  C4D ACR d           4.966  51.724  96.364  0.00  0.00     0.187 C 
ATOM     14  C3D ACR d           6.318  51.019  96.154  0.00  0.00     0.183 C 
ATOM     15  C2D ACR d           7.076  50.996  97.484  0.00  0.00     0.204 C 
ATOM     16  C1D ACR d           7.302  52.455  98.004  0.00  0.00     0.288 C 
ATOM     17  O5D ACR d           6.000  53.174  98.139  0.00  0.00    -0.349 OA
ATOM     18  C5D ACR d           5.221  53.214  96.869  0.00  0.00     0.180 C 
BRANCH  14  19
ATOM     19  O3D ACR d           6.123  49.658  95.703  0.00  0.00    -0.390 OA
ATOM     20  H43 ACR d           5.649  49.663  94.880  0.00  0.00     0.210 HD
ENDBRANCH  14  19
BRANCH  15  21
ATOM     21  O2D ACR d           8.354  50.351  97.338  0.00  0.00    -0.388 OA
ATOM     22  H42 ACR d           8.874  50.823  96.698  0.00  0.00     0.210 HD
ENDBRANCH  15  21
BRANCH  16  23
ATOM     23  O1D ACR d           8.132  53.160  97.129  0.00  0.00    -0.369 OA
ATOM     24  H41 ACR d           8.960  52.703  97.043  0.00  0.00     0.212 HD
ENDBRANCH  16  23
BRANCH  18  25
ATOM     25  C6D ACR d           3.926  54.002  97.123  0.00  0.00     0.198 C 
BRANCH  25  26
ATOM     26  O6D ACR d           3.170  53.470  98.216  0.00  0.00    -0.398 OA
ATOM     27  H44 ACR d           3.694  53.502  99.008  0.00  0.00     0.209 HD
ENDBRANCH  25  26
ENDBRANCH  18  25
ENDBRANCH  12  13
ENDBRANCH   5  12
BRANCH   7  28
ATOM     28  C6C ACR d           0.097  52.707  95.595  0.00  0.00     0.198 C 
BRANCH  28  29
ATOM     29  O6C ACR d           0.375  53.074  96.926  0.00  0.00    -0.398 OA
ATOM     30  H33 ACR d           0.820  52.358  97.365  0.00  0.00     0.209 HD
ENDBRANCH  28  29
ENDBRANCH   7  28
ENDBRANCH   1   2
BRANCH   1  31
ATOM     31  C1B ACR d          -0.792  53.210  92.252  0.00  0.00     0.292 C 
ATOM     32  C2B ACR d          -1.057  53.811  90.837  0.00  0.00     0.204 C 
ATOM     33  C3B ACR d          -0.671  55.302  90.758  0.00  0.00     0.184 C 
ATOM     34  C4B ACR d          -1.469  56.085  91.837  0.00  0.00     0.246 C 
ATOM     35  C5B ACR d          -1.059  55.495  93.260  0.00  0.00     0.154 C 
ATOM     36  C6B ACR d          -1.762  56.158  94.431  0.00  0.00     0.042 C 
ATOM     37  O5B ACR d          -1.388  54.024  93.299  0.00  0.00    -0.351 OA
BRANCH  32  38
ATOM     38  O2B ACR d          -0.383  53.007  89.879  0.00  0.00    -0.388 OA
ATOM     39  H22 ACR d          -0.595  53.313  89.005  0.00  0.00     0.210 HD
ENDBRANCH  32  38
BRANCH  33  40
ATOM     40  O3B ACR d          -0.970  55.769  89.439  0.00  0.00    -0.391 OA
ATOM     41  H23 ACR d          -0.744  56.689  89.371  0.00  0.00     0.210 HD
ENDBRANCH  33  40
BRANCH  34  42
ATOM     42  N4B ACR d          -1.146  57.538  91.747  0.00  0.00    -0.056 N 
ATOM     43  H20 ACR d          -0.729  57.815  92.622  0.00  0.00     0.278 HD
ATOM     44  H21 ACR d          -0.476  57.658  91.003  0.00  0.00     0.278 HD
BRANCH  42  45
ATOM     45  C1A ACR d          -2.302  58.464  91.477  0.00  0.00     0.240 C 
ATOM     46  C2A ACR d          -1.866  59.576  90.378  0.00  0.00     0.184 C 
ATOM     47  C3A ACR d          -0.876  60.595  91.057  0.00  0.00     0.182 C 
ATOM     48  C4A ACR d          -1.614  61.348  92.220  0.00  0.00     0.180 C 
ATOM     49  C5A ACR d          -2.405  60.424  93.178  0.00  0.00    -0.027 C 
ATOM     50  C7A ACR d          -2.713  59.129  92.820  0.00  0.00     0.016 C 
BRANCH  46  51
ATOM     51  O2A ACR d          -1.266  58.904  89.308  0.00  0.00    -0.390 OA
ATOM     52  H8  ACR d          -0.991  59.535  88.653  0.00  0.00     0.210 HD
ENDBRANCH  46  51
BRANCH  47  53
ATOM     53  O3A ACR d          -0.463  61.562  90.113  0.00  0.00    -0.390 OA
ATOM     54  H9  ACR d           0.124  62.181  90.531  0.00  0.00     0.210 HD
ENDBRANCH  47  53
BRANCH  48  55
ATOM     55  O4A ACR d          -0.609  62.208  92.825  0.00  0.00    -0.388 OA
ATOM     56  H10 ACR d          -0.189  62.727  92.149  0.00  0.00     0.210 HD
ENDBRANCH  48  55
BRANCH  49  57
ATOM     57  C6A ACR d          -2.870  60.979  94.523  0.00  0.00     0.201 C 
BRANCH  57  58
ATOM     58  O6A ACR d          -3.946  61.900  94.273  0.00  0.00    -0.397 OA
ATOM     59  H11 ACR d          -4.252  62.259  95.098  0.00  0.00     0.209 HD
ENDBRANCH  57  58
ENDBRANCH  49  57
ENDBRANCH  42  45
ENDBRANCH  34  42
ENDBRANCH   1  31
TORSDOF 22
