REMARK  7 active torsions:
REMARK  status: ('A' for Active; 'I' for Inactive)
REMARK    1  A    between atoms: O2_1  and  C2_2 
REMARK    2  A    between atoms: C3_3  and  O3_4 
REMARK    3  A    between atoms: C4_5  and  O4_6 
REMARK    4  A    between atoms: C5_7  and  C6_8 
REMARK    5  A    between atoms: C6_8  and  O6_9 
REMARK    6  A    between atoms: N1_12  and  C9_14 
REMARK    7  A    between atoms: C9_14  and  C10_15 
ROOT
ATOM      1  C2  VBZ d          27.532  45.902  -0.486  0.00  0.00     0.180 C 
ATOM      2  C3  VBZ d          28.095  47.094   0.252  0.00  0.00     0.185 C 
ATOM      3  C4  VBZ d          28.171  48.224  -0.781  0.00  0.00     0.116 C 
ATOM      4  C5  VBZ d          26.788  48.304  -1.466  0.00  0.00     0.050 C 
ATOM      5  C7  VBZ d          26.623  47.113  -2.416  0.00  0.00     0.045 C 
ATOM      6  C8  VBZ d          29.309  47.917  -1.769  0.00  0.00     0.276 C 
ATOM      7  N1  VBZ d          29.033  46.627  -2.447  0.00  0.00    -0.058 N 
ATOM      8  C1  VBZ d          27.695  46.122  -2.013  0.00  0.00     0.220 C 
ATOM      9  H14 VBZ d          29.741  45.970  -2.160  0.00  0.00     0.281 HD
ENDROOT
BRANCH   7  10
ATOM     10  C9  VBZ d          29.048  46.700  -3.954  0.00  0.00     0.274 C 
BRANCH  10  11
ATOM     11  C10 VBZ d          30.271  47.353  -4.582  0.00  0.00    -0.033 A 
ATOM     12  C11 VBZ d          31.562  46.880  -4.334  0.00  0.00     0.009 A 
ATOM     13  C12 VBZ d          32.684  47.496  -4.930  0.00  0.00     0.001 A 
ATOM     14  C13 VBZ d          32.520  48.613  -5.763  0.00  0.00     0.000 A 
ATOM     15  C14 VBZ d          31.234  49.110  -5.995  0.00  0.00     0.001 A 
ATOM     16  C15 VBZ d          30.123  48.476  -5.409  0.00  0.00     0.009 A 
ENDBRANCH  10  11
ENDBRANCH   7  10
BRANCH   3  17
ATOM     17  O4  VBZ d          28.418  49.466  -0.072  0.00  0.00    -0.385 OA
ATOM     18  H5  VBZ d          28.469  50.181  -0.696  0.00  0.00     0.210 HD
ENDBRANCH   3  17
BRANCH   1  19
ATOM     19  O2  VBZ d          28.098  44.685  -0.020  0.00  0.00    -0.391 OA
ATOM     20  H1  VBZ d          29.039  44.704  -0.152  0.00  0.00     0.210 HD
ENDBRANCH   1  19
BRANCH   2  21
ATOM     21  O3  VBZ d          29.360  46.723   0.731  0.00  0.00    -0.390 OA
ATOM     22  H4  VBZ d          29.271  45.979   1.315  0.00  0.00     0.210 HD
ENDBRANCH   2  21
BRANCH   4  23
ATOM     23  C6  VBZ d          26.400  49.639  -2.107  0.00  0.00     0.172 C 
BRANCH  23  24
ATOM     24  O6  VBZ d          27.190  49.827  -3.270  0.00  0.00    -0.400 OA
ATOM     25  H9  VBZ d          26.959  50.653  -3.678  0.00  0.00     0.209 HD
ENDBRANCH  23  24
ENDBRANCH   4  23
TORSDOF 7
