REMARK  12 active torsions:
REMARK  status: ('A' for Active; 'I' for Inactive)
REMARK    1  A    between atoms: O1_2  and  C1_1 
REMARK    2  A    between atoms: C6'_23  and  O1_2 
REMARK    3  A    between atoms: C2_3  and  O2_4 
REMARK    4  A    between atoms: C3_5  and  O3_6 
REMARK    5  A    between atoms: C4_7  and  O4_8 
REMARK    6  A    between atoms: C5_9  and  C6_11 
REMARK    7  A    between atoms: C6_11  and  O6_12 
REMARK    8  A    between atoms: C1'_13  and  O1'_14 
REMARK    9  A    between atoms: C2'_15  and  O2'_16 
REMARK   10  A    between atoms: C3'_17  and  O3'_18 
REMARK   11  A    between atoms: C4'_19  and  O4'_20 
REMARK   12  A    between atoms: C5'_21  and  C6'_23 
ROOT
ATOM      1  O1  MLB d          18.533 -38.265  33.778  0.00  0.00    -0.356 OA
ENDROOT
BRANCH   1   2
ATOM      2  C1  MLB d          18.252 -38.224  32.344  0.00  0.00     0.291 C 
ATOM      3  C2  MLB d          19.393 -37.821  31.449  0.00  0.00     0.204 C 
ATOM      4  C3  MLB d          19.668 -36.332  31.628  0.00  0.00     0.183 C 
ATOM      5  C4  MLB d          18.362 -35.524  31.550  0.00  0.00     0.180 C 
ATOM      6  C5  MLB d          17.315 -36.053  32.531  0.00  0.00     0.179 C 
ATOM      7  O5  MLB d          17.098 -37.386  32.162  0.00  0.00    -0.348 OA
BRANCH   3   8
ATOM      8  O2  MLB d          20.461 -38.676  31.815  0.00  0.00    -0.388 OA
ATOM      9  H3  MLB d          20.670 -38.545  32.733  0.00  0.00     0.210 HD
ENDBRANCH   3   8
BRANCH   4  10
ATOM     10  O3  MLB d          20.532 -35.957  30.554  0.00  0.00    -0.390 OA
ATOM     11  H5  MLB d          20.099 -36.129  29.726  0.00  0.00     0.210 HD
ENDBRANCH   4  10
BRANCH   5  12
ATOM     12  O4  MLB d          17.830 -35.628  30.225  0.00  0.00    -0.390 OA
ATOM     13  H7  MLB d          17.022 -35.131  30.169  0.00  0.00     0.210 HD
ENDBRANCH   5  12
BRANCH   6  14
ATOM     14  C6  MLB d          15.967 -35.330  32.551  0.00  0.00     0.198 C 
BRANCH  14  15
ATOM     15  O6  MLB d          15.329 -35.265  31.273  0.00  0.00    -0.398 OA
ATOM     16  H11 MLB d          15.890 -34.800  30.663  0.00  0.00     0.209 HD
ENDBRANCH  14  15
ENDBRANCH   6  14
ENDBRANCH   1   2
BRANCH   1  17
ATOM     17  C6' MLB d          19.751 -38.551  34.540  0.00  0.00     0.205 C 
BRANCH  17  18
ATOM     18  C5' MLB d          19.289 -38.331  36.018  0.00  0.00     0.180 C 
ATOM     19  C4' MLB d          20.300 -38.249  37.141  0.00  0.00     0.180 C 
ATOM     20  C3' MLB d          19.489 -38.568  38.403  0.00  0.00     0.183 C 
ATOM     21  C2' MLB d          19.009 -40.018  38.419  0.00  0.00     0.204 C 
ATOM     22  C1' MLB d          18.456 -40.423  37.061  0.00  0.00     0.288 C 
ATOM     23  O5' MLB d          18.180 -39.197  36.407  0.00  0.00    -0.349 OA
BRANCH  19  24
ATOM     24  O4' MLB d          20.821 -36.913  37.190  0.00  0.00    -0.390 OA
ATOM     25  H19 MLB d          21.387 -36.822  37.948  0.00  0.00     0.210 HD
ENDBRANCH  19  24
BRANCH  20  26
ATOM     26  O3' MLB d          20.304 -38.351  39.537  0.00  0.00    -0.390 OA
ATOM     27  H17 MLB d          20.609 -37.451  39.539  0.00  0.00     0.210 HD
ENDBRANCH  20  26
BRANCH  21  28
ATOM     28  O2' MLB d          18.034 -40.200  39.440  0.00  0.00    -0.388 OA
ATOM     29  H15 MLB d          17.780 -41.115  39.474  0.00  0.00     0.210 HD
ENDBRANCH  21  28
BRANCH  22  30
ATOM     30  O1' MLB d          17.270 -41.248  37.095  0.00  0.00    -0.369 OA
ATOM     31  H13 MLB d          16.582 -40.792  37.565  0.00  0.00     0.212 HD
ENDBRANCH  22  30
ENDBRANCH  17  18
ENDBRANCH   1  17
TORSDOF 12
