REMARK  5 active torsions:
REMARK  status: ('A' for Active; 'I' for Inactive)
REMARK    1  A    between atoms: C1_1  and  O3_17 
REMARK    2  A    between atoms: C3_3  and  O2_16 
REMARK    3  A    between atoms: C5_5  and  C7_7 
REMARK    4  A    between atoms: C8_8  and  C9_9 
REMARK    5  A    between atoms: C12_12  and  O1_15 
ROOT
ATOM      1  C1  STL d          -4.598  18.278   5.482  0.00  0.00     0.069 A 
ATOM      2  C2  STL d          -4.390  18.056   6.836  0.00  0.00     0.073 A 
ATOM      3  C3  STL d          -4.630  19.094   7.766  0.00  0.00     0.069 A 
ATOM      4  C4  STL d          -5.076  20.389   7.331  0.00  0.00     0.048 A 
ATOM      5  C5  STL d          -5.305  20.597   5.952  0.00  0.00    -0.031 A 
ATOM      6  C6  STL d          -5.081  19.545   5.019  0.00  0.00     0.048 A 
ENDROOT
BRANCH   5   7
ATOM      7  C7  STL d          -5.824  21.880   5.458  0.00  0.00     0.012 C 
ATOM      8  C8  STL d          -5.264  22.839   4.746  0.00  0.00     0.012 C 
BRANCH   8   9
ATOM      9  C9  STL d          -6.149  23.981   4.366  0.00  0.00    -0.036 A 
ATOM     10  C10 STL d          -6.218  24.356   3.006  0.00  0.00     0.014 A 
ATOM     11  C11 STL d          -7.099  25.439   2.661  0.00  0.00     0.037 A 
ATOM     12  C12 STL d          -7.809  26.166   3.657  0.00  0.00     0.065 A 
ATOM     13  C13 STL d          -7.710  25.811   5.017  0.00  0.00     0.037 A 
ATOM     14  C14 STL d          -6.897  24.687   5.335  0.00  0.00     0.014 A 
BRANCH  12  15
ATOM     15  O1  STL d          -8.640  27.175   3.244  0.00  0.00    -0.361 OA
ATOM     16  H   STL d          -9.535  26.963   3.481  0.00  0.00     0.217 HD
ENDBRANCH  12  15
ENDBRANCH   8   9
ENDBRANCH   5   7
BRANCH   3  17
ATOM     17  O2  STL d          -4.377  18.821   9.094  0.00  0.00    -0.361 OA
ATOM     18  H   STL d          -5.169  18.956   9.601  0.00  0.00     0.217 HD
ENDBRANCH   3  17
BRANCH   1  19
ATOM     19  O3  STL d          -4.341  17.219   4.674  0.00  0.00    -0.361 OA
ATOM     20  H   STL d          -4.031  16.490   5.198  0.00  0.00     0.217 HD
ENDBRANCH   1  19
TORSDOF 5
