REMARK  3 active torsions:
REMARK  status: ('A' for Active; 'I' for Inactive)
REMARK    1  A    between atoms: C1_1  and  C2_4 
REMARK    2  A    between atoms: C2_4  and  O2_6 
REMARK    3  A    between atoms: O2_6  and  P_7 
ROOT
ATOM      1  C2  PEQ d         -30.443   7.245 -26.494  0.00  0.00     0.232 C 
ATOM      2  C3  PEQ d         -30.245   8.332 -25.445  0.00  0.00     0.052 C 
ENDROOT
BRANCH   1   3
ATOM      3  C1  PEQ d         -31.868   7.147 -26.973  0.00  0.00     0.203 C 
ATOM      4  O1  PEQ d         -32.746   7.904 -26.499  0.00  0.00    -0.646 OA
ATOM      5  O2' PEQ d         -32.117   6.295 -27.852  0.00  0.00    -0.646 OA
ENDBRANCH   1   3
BRANCH   1   6
ATOM      6  O2  PEQ d         -30.008   5.996 -25.961  0.00  0.00    -0.267 OA
BRANCH   6   7
ATOM      7  P   PEQ d         -28.427   5.700 -25.901  0.00  0.00     0.423 P 
ATOM      8  O1P PEQ d         -27.999   6.212 -24.547  0.00  0.00    -0.617 OA
ATOM      9  O2P PEQ d         -27.865   6.485 -27.064  0.00  0.00    -0.617 OA
ATOM     10  O3P PEQ d         -28.334   4.203 -26.071  0.00  0.00    -0.617 OA
ENDBRANCH   6   7
ENDBRANCH   1   6
TORSDOF 3
