REMARK  9 active torsions:
REMARK  status: ('A' for Active; 'I' for Inactive)
REMARK    1  A    between atoms: PB_1  and  O3A_5 
REMARK    2  A    between atoms: O3A_5  and  PA_6 
REMARK    3  A    between atoms: PA_6  and  O5'_9 
REMARK    4  A    between atoms: O5'_9  and  C5'_10 
REMARK    5  A    between atoms: C5'_10  and  C4'_11 
REMARK    6  A    between atoms: C3'_13  and  O3'_14 
REMARK    7  A    between atoms: C2'_15  and  O2'_16 
REMARK    8  A    between atoms: C1'_17  and  N9_18 
REMARK    9  A    between atoms: C2_25  and  N2_26 
ROOT
ATOM      1  C4' GDP d          22.073  33.726  32.463  0.00  0.00     0.180 C 
ATOM      2  O4' GDP d          22.505  32.858  31.419  0.00  0.00    -0.353 OA
ATOM      3  C3' GDP d          23.337  34.308  33.077  0.00  0.00     0.182 C 
ATOM      4  C2' GDP d          24.186  33.064  33.081  0.00  0.00     0.198 C 
ATOM      5  C1' GDP d          23.807  32.410  31.762  0.00  0.00     0.262 C 
ENDROOT
BRANCH   5   6
ATOM      6  N9  GDP d          24.708  32.821  30.680  0.00  0.00    -0.295 N 
ATOM      7  C8  GDP d          24.750  34.017  30.048  0.00  0.00     0.214 A 
ATOM      8  N7  GDP d          25.729  34.015  29.120  0.00  0.00    -0.234 NA
ATOM      9  C5  GDP d          26.306  32.787  29.141  0.00  0.00     0.171 A 
ATOM     10  C6  GDP d          27.376  32.062  28.413  0.00  0.00     0.292 A 
ATOM     11  C4  GDP d          25.616  32.000  30.173  0.00  0.00     0.161 A 
ATOM     12  O6  GDP d          28.062  32.582  27.515  0.00  0.00    -0.265 OA
ATOM     13  N1  GDP d          27.606  30.791  28.768  0.00  0.00    -0.154 N 
ATOM     14  C2  GDP d          26.956  30.137  29.735  0.00  0.00     0.680 A 
ATOM     15  H10 GDP d          28.318  30.294  28.272  0.00  0.00     0.187 HD
ATOM     16  N3  GDP d          25.949  30.701  30.445  0.00  0.00    -0.174 N 
ATOM     17  H13 GDP d          25.448  30.167  31.169  0.00  0.00     0.186 HD
BRANCH  14  18
ATOM     18  N2  GDP d          27.296  28.847  29.981  0.00  0.00    -0.234 N 
ATOM     19  H11 GDP d          26.811  28.319  30.721  0.00  0.00     0.174 HD
ATOM     20  H12 GDP d          28.039  28.396  29.428  0.00  0.00     0.174 HD
ENDBRANCH  14  18
ENDBRANCH   5   6
BRANCH   4  21
ATOM     21  O2' GDP d          23.813  32.195  34.156  0.00  0.00    -0.388 OA
ATOM     22  H7  GDP d          23.930  32.648  34.983  0.00  0.00     0.210 HD
ENDBRANCH   4  21
BRANCH   1  23
ATOM     23  C5' GDP d          21.129  34.771  31.933  0.00  0.00     0.216 C 
BRANCH  23  24
ATOM     24  O5' GDP d          21.785  35.559  30.963  0.00  0.00    -0.287 OA
BRANCH  24  25
ATOM     25  PA  GDP d          21.287  37.087  30.865  0.00  0.00     0.418 P 
ATOM     26  O1A GDP d          19.810  37.062  31.045  0.00  0.00    -0.624 OA
ATOM     27  O2A GDP d          21.721  37.688  29.557  0.00  0.00    -0.624 OA
BRANCH  25  28
ATOM     28  O3A GDP d          22.037  37.895  32.035  0.00  0.00    -0.173 OA
BRANCH  28  29
ATOM     29  PB  GDP d          21.606  38.173  33.579  0.00  0.00     0.431 P 
ATOM     30  O1B GDP d          20.216  38.833  33.613  0.00  0.00    -0.616 OA
ATOM     31  O2B GDP d          22.703  39.110  34.120  0.00  0.00    -0.616 OA
ATOM     32  O3B GDP d          21.706  36.932  34.399  0.00  0.00    -0.616 OA
ENDBRANCH  28  29
ENDBRANCH  25  28
ENDBRANCH  24  25
ENDBRANCH  23  24
ENDBRANCH   1  23
BRANCH   3  33
ATOM     33  O3' GDP d          23.062  34.878  34.354  0.00  0.00    -0.390 OA
ATOM     34  H5  GDP d          22.420  35.571  34.258  0.00  0.00     0.210 HD
ENDBRANCH   3  33
TORSDOF 9
