1g9r_ligand

Created by X-TOOL on Fri Sep 26 17:34:18 2014
 57 59  0  0  0  0  0  0  0  0999 V2000
   27.1630   44.4560   57.5030  N 0  0  0  1  0  3
   27.5340   43.7960   56.3230  C 0  0  0  1  0  3
   26.6600   44.0740   55.2470  N 0  0  0  2  0  3
   25.5010   44.9260   55.2740  C 0  0  0  1  0  3
   25.2030   45.5630   56.5200  C 0  0  0  2  0  3
   25.9940   45.3320   57.5600  C 0  0  0  2  0  3
   28.5080   43.0600   56.2490  O 0  0  0  1  0  1
   24.8430   45.0630   54.2610  O 0  0  0  1  0  1
   27.8490   44.3980   58.8810  C 0  0  0  2  0  4
   29.1310   45.2080   58.7930  C 0  0  0  2  0  4
   30.2360   44.4440   59.2660  O 0  0  0  2  0  2
   28.8440   46.4400   59.6380  C 0  0  0  2  0  4
   28.0680   45.8110   60.7880  C 0  0  0  2  0  4
   27.2480   44.7610   60.1030  O 0  0  0  1  0  2
   29.9230   47.2210   60.1170  O 0  0  0  2  0  2
   26.7540   46.2280   61.3700  C 0  0  0  3  0  4
   26.1960   47.5730   61.0630  O 0  0  0  1  0  2
   26.6690   49.0830   60.7750  P 0  0  0  1  0  4
   28.1310   49.3020   60.7700  O 0  0  0  1  0  1
   25.9930   49.6170   59.5510  O 0  0  0  1  0  1
   25.9380   49.2600   62.1840  O 0  0  0  1  0  2
   25.6800   50.4760   63.1700  P 0  0  0  1  0  4
   27.0200   51.0960   63.2630  O 0  0  0  1  0  1
   24.7090   51.3580   62.5300  O 0  0  0  1  0  1
   25.2160   49.9670   64.5840  O 0  0  0  1  0  2
   25.5920   49.8060   66.1370  C 0  0  0  2  0  4
   27.0680   49.2640   66.1080  C 0  0  0  2  0  4
   27.3880   48.0340   65.1120  C 0  0  0  2  0  4
   26.3550   46.8930   65.3890  C 0  0  0  2  0  4
   24.9230   47.5850   65.3610  C 0  0  0  2  0  4
   23.9020   46.5550   65.8390  C 0  0  0  3  0  4
   27.9950   50.2870   65.8600  F 0  0  0  1  0  1
   28.6640   47.5300   65.3880  O 0  0  0  2  0  2
   26.6420   46.3020   66.6940  O 0  0  0  2  0  2
   24.7110   48.6960   66.3740  O 0  0  0  1  0  2
   23.6600   45.3090   65.2480  O 0  0  0  2  0  2
   26.8696   43.6317   54.3750  H 0  0  0  1  0  1
   24.3433   46.2249   56.6131  H 0  0  0  1  0  1
   25.7603   45.8202   58.5049  H 0  0  0  1  0  1
   28.1186   43.3390   59.0068  H 0  0  0  1  0  1
   29.3286   45.5052   57.7525  H 0  0  0  1  0  1
   31.0286   44.9640   59.2044  H 0  0  0  1  0  1
   28.1955   47.1174   59.0631  H 0  0  0  1  0  1
   28.7797   45.4943   61.5646  H 0  0  0  1  0  1
   29.5881   47.9146   60.6731  H 0  0  0  1  0  1
   26.8586   46.1700   62.4635  H 0  0  0  1  0  1
   26.0097   45.4914   61.0332  H 0  0  0  1  0  1
   25.4442   50.6854   66.7811  H 0  0  0  1  0  1
   27.2616   48.8903   67.1243  H 0  0  0  1  0  1
   27.3259   48.3661   64.0652  H 0  0  0  1  0  1
   26.4156   46.1167   64.6121  H 0  0  0  1  0  1
   24.7104   47.9430   64.3429  H 0  0  0  1  0  1
   22.9339   47.0769   65.8214  H 0  0  0  1  0  1
   24.1800   46.3329   66.8798  H 0  0  0  1  0  1
   28.7064   47.2593   66.2976  H 0  0  0  1  0  1
   27.5019   45.8987   66.6755  H 0  0  0  1  0  1
   22.9789   44.8571   65.7321  H 0  0  0  1  0  1
  1  2  1  0  0  1
  1  6  1  0  0  1
  1  9  1  0  0  2
  2  3  1  0  0  1
  2  7  2  0  0  2
  3  4  1  0  0  1
  4  5  1  0  0  1
  4  8  2  0  0  2
  5  6  2  0  0  1
  9 10  1  0  0  1
  9 14  1  0  0  1
 10 11  1  0  0  2
 10 12  1  0  0  1
 12 13  1  0  0  1
 12 15  1  0  0  2
 13 14  1  0  0  1
 13 16  1  0  0  2
 16 17  1  0  0  2
 17 18  1  0  0  2
 18 19  2  0  0  2
 18 20  2  0  0  2
 18 21  1  0  0  2
 21 22  1  0  0  2
 22 23  2  0  0  2
 22 24  2  0  0  2
 22 25  1  0  0  2
 25 26  1  0  0  2
 26 27  1  0  0  1
 26 35  1  0  0  1
 27 28  1  0  0  1
 27 32  1  0  0  2
 28 29  1  0  0  1
 28 33  1  0  0  2
 29 30  1  0  0  1
 29 34  1  0  0  2
 30 31  1  0  0  2
 30 35  1  0  0  1
 31 36  1  0  0  2
  3 37  1  0  0  2
  5 38  1  0  0  2
  6 39  1  0  0  2
  9 40  1  0  0  2
 10 41  1  0  0  2
 11 42  1  0  0  2
 12 43  1  0  0  2
 13 44  1  0  0  2
 15 45  1  0  0  2
 16 46  1  0  0  2
 16 47  1  0  0  2
 26 48  1  0  0  2
 27 49  1  0  0  2
 28 50  1  0  0  2
 29 51  1  0  0  2
 30 52  1  0  0  2
 31 53  1  0  0  2
 31 54  1  0  0  2
 33 55  1  0  0  2
 34 56  1  0  0  2
 36 57  1  0  0  2
M  END
> <MOLECULAR_FORMULA>
C15H21N2O16P2F

> <MOLECULAR_WEIGHT>
566.1

> <NUM_HB_ATOMS>
17 

> <NUM_ROTOR>
9  

> <XLOGP2>
-4.83

$$$$
