2eg7_ligand

Created by X-TOOL on Fri Sep 26 17:34:36 2014
 17 17  0  0  0  0  0  0  0  0999 V2000
   26.3330   38.8610   73.3320  N 0  0  0  2  0  3
   24.7630   40.3600   72.2640  N 0  0  0  2  0  3
   25.5910   41.4710   72.5010  C 0  0  0  1  0  3
   26.7890   41.3490   73.1630  C 0  0  0  2  0  3
   27.1900   39.9630   73.7130  C 0  0  0  2  0  4
   28.9890   38.6480   72.8760  O 0  0  0  1  0  1
   28.6510   39.6490   73.5420  C 0  5  0  1  0  3
   29.3680   40.4210   74.1490  O 0  0  0  1  0  1
   25.1280   42.8190   72.0260  C 0  5  0  1  0  3
   25.8460   43.8340   72.2450  O 0  0  0  1  0  1
   24.0210   42.7850   71.4300  O 0  0  0  1  0  1
   25.1320   39.0690   72.6790  C 0  0  0  1  0  3
   24.4370   38.0750   72.4690  O 0  0  0  1  0  1
   26.6162   37.9262   73.5462  H 0  0  0  1  0  1
   23.8924   40.4911   71.7898  H 0  0  0  1  0  1
   27.4412   42.2108   73.2968  H 0  0  0  1  0  1
   27.0485   40.0540   74.8000  H 0  0  0  1  0  1
  1  5  1  0  0  1
 12  1  1  0  0  1
  2  3  1  0  0  1
  2 12  1  0  0  1
  3  4  2  0  0  1
  3  9  1  0  0  2
  4  5  1  0  0  1
  5  7  1  0  0  2
  7  6  2  0  0  2
  7  8  2  0  0  2
  9 10  2  0  0  2
  9 11  2  0  0  2
 12 13  2  0  0  2
  1 14  1  0  0  2
  2 15  1  0  0  2
  4 16  1  0  0  2
  5 17  1  0  0  2
M  END
> <MOLECULAR_FORMULA>
C6H4N2O5

> <MOLECULAR_WEIGHT>
184.1

> <NUM_HB_ATOMS>
7  

> <NUM_ROTOR>
0  

> <XLOGP2>
-2.03

$$$$
