REMARK  8 active torsions:
REMARK  status: ('A' for Active; 'I' for Inactive)
REMARK    1  A    between atoms: C12_7  and  C14_1 
REMARK    2  A    between atoms: C8_4  and  N18_18 
REMARK    3  A    between atoms: N11_14  and  C12_7 
REMARK    4  A    between atoms: C3_9  and  C2_11 
REMARK    5  A    between atoms: C2_11  and  O34_34 
REMARK    6  A    between atoms: N18_18  and  C19_19 
REMARK    7  A    between atoms: C23_23  and  N25_25 
REMARK    8  A    between atoms: C28_28  and  O32_32 
ROOT
ATOM      1  C5  MOL d         -52.744   1.099 -19.716  0.00  0.00     0.103 A 
ATOM      2  C6  MOL d         -53.721   2.075 -19.881  0.00  0.00     0.153 A 
ATOM      3  C8  MOL d         -53.995   1.474 -22.121  0.00  0.00     0.131 A 
ATOM      4  C9  MOL d         -53.003   0.493 -22.047  0.00  0.00     0.082 A 
ATOM      5  C10 MOL d         -52.364   0.285 -20.817  0.00  0.00     0.070 A 
ATOM      6  C3  MOL d         -51.177  -0.228 -19.013  0.00  0.00     0.136 A 
ATOM      7  N4  MOL d         -51.992   0.719 -18.664  0.00  0.00    -0.229 NA
ATOM      8  N7  MOL d         -54.297   2.223 -21.059  0.00  0.00    -0.241 NA
ATOM      9  N11 MOL d         -51.396  -0.573 -20.330  0.00  0.00    -0.318 N 
ENDROOT
BRANCH   3  10
ATOM     10  N18 MOL d         -54.686   1.785 -23.290  0.00  0.00    -0.325 N 
ATOM     11  H11 MOL d         -55.097   2.729 -23.324  0.00  0.00     0.169 HD
BRANCH  10  12
ATOM     12  C19 MOL d         -54.898   1.005 -24.411  0.00  0.00     0.149 A 
ATOM     13  C20 MOL d         -56.111   1.123 -25.109  0.00  0.00     0.071 A 
ATOM     14  C21 MOL d         -56.262   0.341 -26.246  0.00  0.00     0.140 A 
ATOM     15  N22 MOL d         -55.291  -0.489 -26.626  0.00  0.00    -0.075 NA
ATOM     16  C23 MOL d         -54.149  -0.595 -25.938  0.00  0.00     0.726 A 
ATOM     17  N24 MOL d         -53.961   0.175 -24.865  0.00  0.00    -0.045 NA
BRANCH  16  18
ATOM     18  N25 MOL d         -53.095  -1.408 -26.376  0.00  0.00    -0.211 N 
ATOM     19  C26 MOL d         -53.194  -2.154 -27.653  0.00  0.00     0.144 C 
ATOM     20  C27 MOL d         -51.819  -2.223 -28.344  0.00  0.00     0.055 C 
ATOM     21  C28 MOL d         -50.744  -2.732 -27.360  0.00  0.00     0.158 C 
ATOM     22  C29 MOL d         -50.694  -1.863 -26.080  0.00  0.00     0.217 C 
ATOM     23  C30 MOL d         -52.074  -1.856 -25.398  0.00  0.00     0.181 C 
ATOM     24  F31 MOL d         -50.355  -0.559 -26.461  0.00  0.00    -0.245 F 
BRANCH  21  25
ATOM     25  O32 MOL d         -49.477  -2.673 -28.018  0.00  0.00    -0.388 OA
ATOM     26  C33 MOL d         -48.589  -3.741 -27.671  0.00  0.00     0.202 C 
ENDBRANCH  21  25
ENDBRANCH  16  18
ENDBRANCH  10  12
ENDBRANCH   3  10
BRANCH   9  27
ATOM     27  C12 MOL d         -50.669  -1.611 -21.087  0.00  0.00     0.195 C 
ATOM     28  C13 MOL d         -51.525  -2.736 -21.694  0.00  0.00     0.042 C 
BRANCH  27  29
ATOM     29  C14 MOL d         -49.603  -1.012 -21.997  0.00  0.00     0.407 C 
ATOM     30  F15 MOL d         -50.177  -0.304 -23.039  0.00  0.00    -0.169 F 
ATOM     31  F16 MOL d         -48.808  -0.140 -21.255  0.00  0.00    -0.169 F 
ATOM     32  F17 MOL d         -48.815  -2.026 -22.525  0.00  0.00    -0.169 F 
ENDBRANCH  27  29
ENDBRANCH   9  27
BRANCH   6  33
ATOM     33  C2  MOL d         -50.177  -0.864 -18.069  0.00  0.00     0.183 C 
ATOM     34  C1  MOL d         -50.114  -0.173 -16.704  0.00  0.00     0.047 C 
BRANCH  33  35
ATOM     35  O34 MOL d         -50.588  -2.206 -17.873  0.00  0.00    -0.388 OA
ATOM     36  H25 MOL d         -51.445  -2.217 -17.463  0.00  0.00     0.210 HD
ENDBRANCH  33  35
ENDBRANCH   6  33
TORSDOF 8
