2pfy_ligand

Created by X-TOOL on Fri Sep 26 17:34:35 2014
 15 15  0  0  0  0  0  0  0  0999 V2000
   55.4050   92.9630    6.0260  N 0  0  0  2  0  3
   54.7250   93.9080    6.9430  C 0  0  0  2  0  4
   53.6390   93.1840    7.7000  C 0  0  0  3  0  4
   53.7230   91.7470    7.2800  C 0  0  0  3  0  4
   54.7950   91.6980    6.2430  C 0  0  0  1  0  3
   55.0890   90.6930    5.6040  O 0  0  0  1  0  1
   55.7240   94.5110    7.9110  C 0  5  0  1  0  3
   55.4820   95.4960    8.6190  O 0  0  0  1  0  1
   56.8240   93.9960    7.9930  O 0  0  0  1  0  1
   56.1431   93.1729    5.3848  H 0  0  0  1  0  1
   54.2710   94.7165    6.3513  H 0  0  0  1  0  1
   52.6533   93.5993    7.4432  H 0  0  0  1  0  1
   53.8041   93.2747    8.7837  H 0  0  0  1  0  1
   52.7638   91.4130    6.8577  H 0  0  0  1  0  1
   53.9877   91.1105    8.1372  H 0  0  0  1  0  1
  1  2  1  0  0  1
  1  5  1  0  0  1
  2  3  1  0  0  1
  2  7  1  0  0  2
  3  4  1  0  0  1
  4  5  1  0  0  1
  5  6  2  0  0  2
  7  8  2  0  0  2
  7  9  2  0  0  2
  1 10  1  0  0  2
  2 11  1  0  0  2
  3 12  1  0  0  2
  3 13  1  0  0  2
  4 14  1  0  0  2
  4 15  1  0  0  2
M  END
> <MOLECULAR_FORMULA>
C5H6NO3

> <MOLECULAR_WEIGHT>
128.1

> <NUM_HB_ATOMS>
4  

> <NUM_ROTOR>
0  

> <XLOGP2>
-1.08

$$$$
