REMARK  1 active torsions:
REMARK  status: ('A' for Active; 'I' for Inactive)
REMARK    1  A    between atoms: CA_2  and  C_7 
ROOT
ATOM      1  N   PCA d          55.405  92.963   6.026  0.00  0.00    -0.347 N 
ATOM      2  CA  PCA d          54.725  93.908   6.943  0.00  0.00     0.186 A 
ATOM      3  CB  PCA d          53.639  93.184   7.700  0.00  0.00     0.045 A 
ATOM      4  CG  PCA d          53.723  91.747   7.280  0.00  0.00     0.105 A 
ATOM      5  CD  PCA d          54.795  91.698   6.243  0.00  0.00     0.218 A 
ATOM      6  OE  PCA d          55.089  90.693   5.604  0.00  0.00    -0.274 OA
ATOM      7  H1  PCA d          56.143  93.173   5.385  0.00  0.00     0.163 HD
ENDROOT
BRANCH   2   8
ATOM      8  C   PCA d          55.724  94.511   7.911  0.00  0.00     0.196 C 
ATOM      9  O   PCA d          55.482  95.496   8.619  0.00  0.00    -0.646 OA
ATOM     10  OXT PCA d          56.824  93.996   7.993  0.00  0.00    -0.646 OA
ENDBRANCH   2   8
TORSDOF 1
