REMARK  3 active torsions:
REMARK  status: ('A' for Active; 'I' for Inactive)
REMARK    1  A    between atoms: P_1  and  O1P_2 
REMARK    2  A    between atoms: O1P_2  and  C2_6 
REMARK    3  A    between atoms: C2_6  and  C1_7 
ROOT
ATOM      1  O1P PGA d          14.370   6.379   6.444  0.00  0.00    -0.272 OA
ENDROOT
BRANCH   1   2
ATOM      2  P   PGA d          13.061   6.185   5.468  0.00  0.00     0.422 P 
ATOM      3  O2P PGA d          13.190   7.246   4.402  0.00  0.00    -0.617 OA
ATOM      4  O3P PGA d          11.829   6.402   6.343  0.00  0.00    -0.617 OA
ATOM      5  O4P PGA d          13.171   4.795   4.953  0.00  0.00    -0.617 OA
ENDBRANCH   1   2
BRANCH   1   6
ATOM      6  C2  PGA d          14.531   7.710   7.125  0.00  0.00     0.295 C 
BRANCH   6   7
ATOM      7  C1  PGA d          15.447   7.610   8.193  0.00  0.00     0.198 C 
ATOM      8  O1  PGA d          15.388   8.651   9.022  0.00  0.00    -0.646 OA
ATOM      9  O2  PGA d          16.210   6.668   8.326  0.00  0.00    -0.646 OA
ENDBRANCH   6   7
ENDBRANCH   1   6
TORSDOF 3
