4zhl_ligand

Created by X-TOOL on Sun Nov 13 14:27:13 2016
150153  0  0  0  0  0  0  0  0999 V2000
    9.9320  -25.4950  -26.7110  N 0  3  0  4  0  4
    8.7570  -26.3330  -27.1070  C 0  0  0  2  0  4
    9.1650  -27.5480  -27.9370  C 0  0  0  1  0  3
    9.3080  -27.4450  -29.1640  O 0  0  0  1  0  1
    7.7180  -25.5180  -27.8870  C 0  0  0  3  0  4
    6.5910  -24.5490  -26.8610  S 0  0  0  1  0  2
    9.3430  -28.7070  -27.2710  N 0  0  0  1  0  3
    9.5750  -29.9850  -27.9480  C 0  0  0  2  0  4
    8.4820  -30.2990  -28.9420  C 0  0  0  1  0  3
    7.3480  -29.8420  -28.7770  O 0  0  0  1  0  1
    9.5560  -30.9980  -26.8010  C 0  0  0  3  0  4
    9.9890  -30.2220  -25.6160  C 0  0  0  3  0  4
    9.4230  -28.8470  -25.8050  C 0  0  0  3  0  4
    8.8110  -31.0820  -29.9630  N 0  0  0  2  0  3
    7.8640  -31.3570  -31.0390  C 0  0  0  2  0  4
    6.6310  -32.1230  -30.5510  C 0  0  0  1  0  3
    5.5610  -32.0120  -31.1560  O 0  0  0  1  0  1
    8.5430  -32.1180  -32.1730  C 0  0  0  4  0  4
    6.7930  -32.8990  -29.4760  N 0  0  0  2  0  3
    5.7110  -33.7320  -28.9260  C 0  0  0  2  0  4
    5.1470  -33.2190  -27.5830  C 0  0  0  1  0  3
    4.5010  -33.9700  -26.8510  O 0  0  0  1  0  1
    6.1880  -35.1790  -28.7420  C 0  0  0  3  0  4
    6.7210  -35.8880  -29.9790  C 0  0  0  1  0  3
    6.3630  -35.4870  -31.2710  C 0  0  0  2  0  3
    7.5390  -37.0090  -29.8460  C 0  0  0  2  0  3
    6.8410  -36.1540  -32.3870  C 0  0  0  2  0  3
    8.0180  -37.6870  -30.9590  C 0  0  0  2  0  3
    7.6650  -37.2560  -32.2280  C 0  0  0  1  0  3
    8.1320  -37.9310  -33.3370  O 0  0  0  2  0  2
    5.3780  -31.9500  -27.2620  N 0  0  0  2  0  3
    4.7390  -31.3250  -26.0990  C 0  0  0  2  0  4
    3.2240  -31.5250  -26.1320  C 0  0  0  1  0  3
    2.6210  -31.6040  -27.2060  O 0  0  0  1  0  1
    5.0390  -29.8230  -26.0590  C 0  0  0  3  0  4
    4.5270  -29.2200  -24.8800  O 0  0  0  2  0  2
    2.6140  -31.6210  -24.9520  N 0  0  0  2  0  3
    1.1510  -31.6110  -24.8410  C 0  0  0  2  0  4
    0.7260  -30.4100  -23.9930  C 0  0  0  1  0  3
   -0.3140  -30.4200  -23.3300  O 0  0  0  1  0  1
    0.6570  -32.9470  -24.2740  C 0  0  0  3  0  4
    0.7420  -34.0620  -25.3080  C 0  0  0  3  0  4
    0.2070  -35.4000  -24.8130  C 0  0  0  3  0  4
    0.2060  -36.3770  -25.8990  N 0  0  0  2  0  3
   -0.2450  -37.6220  -25.8090  C 0  3  0  1  0  3
   -0.7500  -38.0910  -24.6690  N 0  0  0  3  0  3
   -0.2030  -38.4060  -26.8790  N 0  0  0  3  0  3
    1.5590  -29.3730  -24.0430  N 0  0  0  2  0  3
    1.3560  -28.1500  -23.2820  C 0  0  0  2  0  4
    0.5480  -27.1740  -24.1050  C 0  0  0  1  0  3
    0.8180  -26.9840  -25.3070  O 0  0  0  1  0  1
    2.7100  -27.5380  -22.9370  C 0  0  0  3  0  4
    2.6750  -26.2070  -22.1890  C 0  0  0  1  0  3
    1.8570  -26.0180  -21.0780  C 0  0  0  2  0  3
    3.4940  -25.1490  -22.5880  C 0  0  0  2  0  3
    1.8430  -24.8090  -20.4020  C 0  0  0  2  0  3
    3.4970  -23.9440  -21.9110  C 0  0  0  2  0  3
    2.6660  -23.7720  -20.8240  C 0  0  0  1  0  3
    2.6730  -22.5600  -20.1750  O 0  0  0  2  0  2
   -0.4550  -26.5720  -23.4590  N 0  0  0  2  0  3
   -1.2350  -25.4790  -24.0520  C 0  0  0  2  0  4
   -0.3580  -24.4070  -24.6990  C 0  0  0  1  0  3
   -0.6680  -23.9210  -25.7910  O 0  0  0  1  0  1
   -2.1260  -24.7880  -22.9940  C 0  0  0  2  0  4
   -3.4010  -25.5870  -22.8100  C 0  0  0  3  0  4
   -2.4970  -23.3650  -23.4140  C 0  0  0  4  0  4
   -4.2610  -25.1160  -21.6630  C 0  0  0  4  0  4
    0.7200  -24.0290  -24.0140  N 0  0  0  2  0  3
    1.6120  -22.9760  -24.5040  C 0  0  0  3  0  4
    2.3390  -23.2840  -25.8060  C 0  0  0  1  0  3
    2.8230  -22.3660  -26.4680  O 0  0  0  1  0  1
    2.4370  -24.5650  -26.1600  N 0  0  0  2  0  3
    3.0380  -24.9850  -27.4280  C 0  0  0  2  0  4
    1.9530  -25.3920  -28.4150  C 0  5  0  1  0  3
    2.0510  -25.0950  -29.6060  O 0  0  0  1  0  1
    4.0080  -26.1600  -27.2210  C 0  0  0  3  0  4
    5.3150  -25.9010  -25.9890  S 0  0  0  1  0  2
    0.9670  -26.0220  -28.0320  O 0  0  0  1  0  1
    9.6151  -24.7078  -26.1669  H 0  0  0  1  0  1
   10.4026  -25.1638  -27.5385  H 0  0  0  1  0  1
   10.5696  -26.0489  -26.1608  H 0  0  0  1  0  1
    8.2834  -26.6962  -26.1830  H 0  0  0  1  0  1
    7.1180  -26.2156  -28.4897  H 0  0  0  1  0  1
    8.2550  -24.8264  -28.5528  H 0  0  0  1  0  1
   10.5479  -29.9849  -28.4612  H 0  0  0  1  0  1
   10.2533  -31.8250  -27.0006  H 0  0  0  1  0  1
    8.5428  -31.4001  -26.6537  H 0  0  0  1  0  1
   11.0870  -30.1813  -25.5640  H 0  0  0  1  0  1
    9.5949  -30.6760  -24.6948  H 0  0  0  1  0  1
    8.4261  -28.7657  -25.3471  H 0  0  0  1  0  1
   10.0883  -28.0850  -25.3728  H 0  0  0  1  0  1
    9.7233  -31.4902  -29.9951  H 0  0  0  1  0  1
    7.5212  -30.3899  -31.4355  H 0  0  0  1  0  1
    7.8126  -32.3144  -32.9717  H 0  0  0  1  0  1
    8.9344  -33.0725  -31.7913  H 0  0  0  1  0  1
    9.3717  -31.5160  -32.5740  H 0  0  0  1  0  1
    7.6860  -32.9148  -29.0263  H 0  0  0  1  0  1
    4.8892  -33.7279  -29.6572  H 0  0  0  1  0  1
    5.3371  -35.7644  -28.3636  H 0  0  0  1  0  1
    6.9913  -35.1717  -27.9905  H 0  0  0  1  0  1
    5.6999  -34.6394  -31.4008  H 0  0  0  1  0  1
    7.8061  -37.3579  -28.8550  H 0  0  0  1  0  1
    6.5713  -35.8149  -33.3807  H 0  0  0  1  0  1
    8.6644  -38.5485  -30.8361  H 0  0  0  1  0  1
    7.8017  -37.5126  -34.1234  H 0  0  0  1  0  1
    6.0017  -31.4090  -27.8263  H 0  0  0  1  0  1
    5.1394  -31.7930  -25.1876  H 0  0  0  1  0  1
    4.5777  -29.3432  -26.9348  H 0  0  0  1  0  1
    6.1286  -29.6754  -26.0914  H 0  0  0  1  0  1
    4.9250  -29.6266  -24.1192  H 0  0  0  1  0  1
    3.1661  -31.7018  -24.1221  H 0  0  0  1  0  1
    0.7213  -31.4901  -25.8463  H 0  0  0  1  0  1
   -0.3900  -32.8344  -23.9561  H 0  0  0  1  0  1
    1.2766  -33.2172  -23.4062  H 0  0  0  1  0  1
    1.7968  -34.1933  -25.5909  H 0  0  0  1  0  1
    0.1601  -33.7610  -26.1916  H 0  0  0  1  0  1
   -0.8206  -35.2662  -24.4440  H 0  0  0  1  0  1
    0.8454  -35.7664  -23.9955  H 0  0  0  1  0  1
    0.5858  -36.0754  -26.8077  H 0  0  0  1  0  1
   -1.0951  -39.0602  -24.6188  H 0  0  0  1  0  1
   -0.7954  -37.4844  -23.8378  H 0  0  0  1  0  1
    0.1862  -38.0497  -27.7636  H 0  0  0  1  0  1
   -0.5596  -39.3708  -26.8249  H 0  0  0  1  0  1
    2.3640  -29.4379  -24.6327  H 0  0  0  1  0  1
    0.8130  -28.3818  -22.3539  H 0  0  0  1  0  1
    3.2571  -27.3802  -23.8782  H 0  0  0  1  0  1
    3.2559  -28.2603  -22.3122  H 0  0  0  1  0  1
    1.2224  -26.8282  -20.7374  H 0  0  0  1  0  1
    4.1419  -25.2754  -23.4478  H 0  0  0  1  0  1
    1.1918  -24.6723  -19.5462  H 0  0  0  1  0  1
    4.1484  -23.1393  -22.2324  H 0  0  0  1  0  1
    2.0570  -22.5855  -19.4523  H 0  0  0  1  0  1
   -0.6833  -26.8783  -22.5348  H 0  0  0  1  0  1
   -1.8820  -25.9128  -24.8287  H 0  0  0  1  0  1
   -1.5788  -24.7482  -22.0406  H 0  0  0  1  0  1
   -3.1280  -26.6371  -22.6289  H 0  0  0  1  0  1
   -3.9904  -25.5158  -23.7360  H 0  0  0  1  0  1
   -1.5804  -22.7726  -23.5514  H 0  0  0  1  0  1
   -3.1188  -22.9026  -22.6333  H 0  0  0  1  0  1
   -3.0585  -23.3963  -24.3594  H 0  0  0  1  0  1
   -5.1615  -25.7443  -21.5979  H 0  0  0  1  0  1
   -4.5555  -24.0696  -21.8311  H 0  0  0  1  0  1
   -3.6930  -25.1908  -20.7240  H 0  0  0  1  0  1
    0.9254  -24.4755  -23.1431  H 0  0  0  1  0  1
    2.3699  -22.7868  -23.7296  H 0  0  0  1  0  1
    1.0109  -22.0678  -24.6585  H 0  0  0  1  0  1
    2.0875  -25.2650  -25.5373  H 0  0  0  1  0  1
    3.5984  -24.1360  -27.8465  H 0  0  0  1  0  1
    4.4917  -26.3718  -28.1860  H 0  0  0  1  0  1
    3.4174  -27.0334  -26.9073  H 0  0  0  1  0  1
  1  2  1  0  0  2
  2  3  1  0  0  1
  2  5  1  0  0  1
  3  4  2  0  0  2
  3  7  1  0  0  1
  5  6  1  0  0  1
  6 77  1  0  0  1
  7  8  1  0  0  1
  7 13  1  0  0  1
  8  9  1  0  0  1
  8 11  1  0  0  1
  9 10  2  0  0  2
  9 14  1  0  0  1
 11 12  1  0  0  1
 12 13  1  0  0  1
 14 15  1  0  0  1
 15 16  1  0  0  1
 15 18  1  0  0  2
 16 17  2  0  0  2
 16 19  1  0  0  1
 19 20  1  0  0  1
 20 21  1  0  0  1
 20 23  1  0  0  2
 21 22  2  0  0  2
 21 31  1  0  0  1
 23 24  1  0  0  2
 24 25  4  0  0  1
 24 26  4  0  0  1
 25 27  4  0  0  1
 26 28  4  0  0  1
 27 29  4  0  0  1
 28 29  4  0  0  1
 29 30  1  0  0  2
 31 32  1  0  0  1
 32 33  1  0  0  1
 32 35  1  0  0  2
 33 34  2  0  0  2
 33 37  1  0  0  1
 35 36  1  0  0  2
 37 38  1  0  0  1
 38 39  1  0  0  1
 38 41  1  0  0  2
 39 40  2  0  0  2
 39 48  1  0  0  1
 41 42  1  0  0  2
 42 43  1  0  0  2
 43 44  1  0  0  2
 44 45  2  0  0  2
 45 46  2  0  0  2
 45 47  2  0  0  2
 48 49  1  0  0  1
 49 50  1  0  0  1
 49 52  1  0  0  2
 50 51  2  0  0  2
 50 60  1  0  0  1
 52 53  1  0  0  2
 53 54  4  0  0  1
 53 55  4  0  0  1
 54 56  4  0  0  1
 55 57  4  0  0  1
 56 58  4  0  0  1
 57 58  4  0  0  1
 58 59  1  0  0  2
 60 61  1  0  0  1
 61 62  1  0  0  1
 61 64  1  0  0  2
 62 63  2  0  0  2
 62 68  1  0  0  1
 64 65  1  0  0  2
 64 66  1  0  0  2
 65 67  1  0  0  2
 68 69  1  0  0  1
 69 70  1  0  0  1
 70 71  2  0  0  2
 70 72  1  0  0  1
 72 73  1  0  0  1
 73 74  1  0  0  2
 73 76  1  0  0  1
 74 75  2  0  0  2
 74 78  2  0  0  2
 76 77  1  0  0  1
  1 79  1  0  0  2
  1 80  1  0  0  2
  1 81  1  0  0  2
  2 82  1  0  0  2
  5 83  1  0  0  2
  5 84  1  0  0  2
  8 85  1  0  0  2
 11 86  1  0  0  2
 11 87  1  0  0  2
 12 88  1  0  0  2
 12 89  1  0  0  2
 13 90  1  0  0  2
 13 91  1  0  0  2
 14 92  1  0  0  2
 15 93  1  0  0  2
 18 94  1  0  0  2
 18 95  1  0  0  2
 18 96  1  0  0  2
 19 97  1  0  0  2
 20 98  1  0  0  2
 23 99  1  0  0  2
 23100  1  0  0  2
 25101  1  0  0  2
 26102  1  0  0  2
 27103  1  0  0  2
 28104  1  0  0  2
 30105  1  0  0  2
 31106  1  0  0  2
 32107  1  0  0  2
 35108  1  0  0  2
 35109  1  0  0  2
 36110  1  0  0  2
 37111  1  0  0  2
 38112  1  0  0  2
 41113  1  0  0  2
 41114  1  0  0  2
 42115  1  0  0  2
 42116  1  0  0  2
 43117  1  0  0  2
 43118  1  0  0  2
 44119  1  0  0  2
 46120  1  0  0  2
 46121  1  0  0  2
 47122  1  0  0  2
 47123  1  0  0  2
 48124  1  0  0  2
 49125  1  0  0  2
 52126  1  0  0  2
 52127  1  0  0  2
 54128  1  0  0  2
 55129  1  0  0  2
 56130  1  0  0  2
 57131  1  0  0  2
 59132  1  0  0  2
 60133  1  0  0  2
 61134  1  0  0  2
 64135  1  0  0  2
 65136  1  0  0  2
 65137  1  0  0  2
 66138  1  0  0  2
 66139  1  0  0  2
 66140  1  0  0  2
 67141  1  0  0  2
 67142  1  0  0  2
 67143  1  0  0  2
 68144  1  0  0  2
 69145  1  0  0  2
 69146  1  0  0  2
 72147  1  0  0  2
 73148  1  0  0  2
 76149  1  0  0  2
 76150  1  0  0  2
M  END
> <MOLECULAR_FORMULA>
C49H72N13O14S2

> <MOLECULAR_WEIGHT>
1130.8

> <NUM_HB_ATOMS>
28 

> <NUM_ROTOR>
11 

> <XLOGP2>
-2.92

$$$$
