REMARK  16 active torsions:
REMARK  status: ('A' for Active; 'I' for Inactive)
REMARK    1  A    between atoms: N_1  and  CA_2 
REMARK    2  A    between atoms: CA_20  and  CB_23 
REMARK    3  A    between atoms: CB_23  and  CG_24 
REMARK    4  A    between atoms: CZ_29  and  OH_30 
REMARK    5  A    between atoms: CA_32  and  CB_35 
REMARK    6  A    between atoms: CB_35  and  OG_36 
REMARK    7  A    between atoms: CA_38  and  CB_41 
REMARK    8  A    between atoms: CB_41  and  CG_42 
REMARK    9  A    between atoms: CG_42  and  CD_43 
REMARK   10  A    between atoms: CD_43  and  NE_44 
REMARK       I    between atoms: NE_44  and  CZ_45 
REMARK       I    between atoms: CZ_45  and  NH1_46 
REMARK   11  A    between atoms: CA_49  and  CB_52 
REMARK   12  A    between atoms: CB_52  and  CG_53 
REMARK   13  A    between atoms: CZ_58  and  OH_59 
REMARK   14  A    between atoms: CA_61  and  CB_64 
REMARK   15  A    between atoms: CB_64  and  CG1_65 
REMARK   16  A    between atoms: CA_73  and  C_74 
ROOT
ATOM      1  CA  CYS d           8.757 -26.333 -27.107  0.00  0.00     0.284 C 
ATOM      2  C   CYS d           9.165 -27.548 -27.937  0.00  0.00     0.252 C 
ATOM      3  O   CYS d           9.308 -27.445 -29.164  0.00  0.00    -0.271 OA
ATOM      4  CB  CYS d           7.718 -25.518 -27.887  0.00  0.00     0.129 C 
ATOM      5  SG  CYS d           6.591 -24.549 -26.861  0.00  0.00    -0.095 SA
ATOM      6  N   CYS d           9.343 -28.707 -27.271  0.00  0.00    -0.337 N 
ATOM      7  CA  CYS d           9.575 -29.985 -27.948  0.00  0.00     0.179 C 
ATOM      8  C   CYS d           8.482 -30.299 -28.942  0.00  0.00     0.241 C 
ATOM      9  O   CYS d           7.348 -29.842 -28.777  0.00  0.00    -0.271 OA
ATOM     10  CB  CYS d           9.556 -30.998 -26.801  0.00  0.00     0.037 C 
ATOM     11  CG  CYS d           9.989 -30.222 -25.616  0.00  0.00     0.022 C 
ATOM     12  CD  CYS d           9.423 -28.847 -25.805  0.00  0.00     0.127 C 
ATOM     13  N   CYS d           8.811 -31.082 -29.963  0.00  0.00    -0.346 N 
ATOM     14  CA  CYS d           7.864 -31.357 -31.039  0.00  0.00     0.172 C 
ATOM     15  C   CYS d           6.631 -32.123 -30.551  0.00  0.00     0.240 C 
ATOM     16  O   CYS d           5.561 -32.012 -31.156  0.00  0.00    -0.271 OA
ATOM     17  CB  CYS d           8.543 -32.118 -32.173  0.00  0.00     0.042 C 
ATOM     18  N   CYS d           6.793 -32.899 -29.476  0.00  0.00    -0.346 N 
ATOM     19  CA  CYS d           5.711 -33.732 -28.926  0.00  0.00     0.180 C 
ATOM     20  C   CYS d           5.147 -33.219 -27.583  0.00  0.00     0.241 C 
ATOM     21  O   CYS d           4.501 -33.970 -26.851  0.00  0.00    -0.271 OA
ATOM     22  N   CYS d           5.378 -31.950 -27.262  0.00  0.00    -0.344 N 
ATOM     23  CA  CYS d           4.739 -31.325 -26.099  0.00  0.00     0.200 C 
ATOM     24  C   CYS d           3.224 -31.525 -26.132  0.00  0.00     0.243 C 
ATOM     25  O   CYS d           2.621 -31.604 -27.206  0.00  0.00    -0.271 OA
ATOM     26  N   CYS d           2.614 -31.621 -24.952  0.00  0.00    -0.346 N 
ATOM     27  CA  CYS d           1.151 -31.611 -24.841  0.00  0.00     0.176 C 
ATOM     28  C   CYS d           0.726 -30.410 -23.993  0.00  0.00     0.241 C 
ATOM     29  O   CYS d          -0.314 -30.420 -23.330  0.00  0.00    -0.271 OA
ATOM     30  N   CYS d           1.559 -29.373 -24.043  0.00  0.00    -0.346 N 
ATOM     31  CA  CYS d           1.356 -28.150 -23.282  0.00  0.00     0.180 C 
ATOM     32  C   CYS d           0.548 -27.174 -24.105  0.00  0.00     0.241 C 
ATOM     33  O   CYS d           0.818 -26.984 -25.307  0.00  0.00    -0.271 OA
ATOM     34  N   CYS d          -0.455 -26.572 -23.459  0.00  0.00    -0.346 N 
ATOM     35  CA  CYS d          -1.235 -25.479 -24.052  0.00  0.00     0.180 C 
ATOM     36  C   CYS d          -0.358 -24.407 -24.699  0.00  0.00     0.241 C 
ATOM     37  O   CYS d          -0.668 -23.921 -25.791  0.00  0.00    -0.271 OA
ATOM     38  N   CYS d           0.720 -24.029 -24.014  0.00  0.00    -0.351 N 
ATOM     39  CA  CYS d           1.612 -22.976 -24.504  0.00  0.00     0.225 C 
ATOM     40  C   CYS d           2.339 -23.284 -25.806  0.00  0.00     0.236 C 
ATOM     41  O   CYS d           2.823 -22.366 -26.468  0.00  0.00    -0.272 OA
ATOM     42  N   CYS d           2.437 -24.565 -26.160  0.00  0.00    -0.344 N 
ATOM     43  CA  CYS d           3.038 -24.985 -27.428  0.00  0.00     0.195 C 
ATOM     44  CB  CYS d           4.008 -26.160 -27.221  0.00  0.00     0.122 C 
ATOM     45  SG  CYS d           5.315 -25.901 -25.989  0.00  0.00    -0.095 SA
ATOM     46  H14 CYS d           9.723 -31.490 -29.995  0.00  0.00     0.163 HD
ATOM     47  H19 CYS d           7.686 -32.915 -29.026  0.00  0.00     0.163 HD
ATOM     48  H28 CYS d           6.002 -31.409 -27.826  0.00  0.00     0.163 HD
ATOM     49  H33 CYS d           3.166 -31.702 -24.122  0.00  0.00     0.163 HD
ATOM     50  H46 CYS d           2.364 -29.438 -24.633  0.00  0.00     0.163 HD
ATOM     51  H55 CYS d          -0.683 -26.878 -22.535  0.00  0.00     0.163 HD
ATOM     52  H66 CYS d           0.925 -24.476 -23.143  0.00  0.00     0.163 HD
ATOM     53  H69 CYS d           2.087 -25.265 -25.537  0.00  0.00     0.163 HD
ENDROOT
BRANCH  27  54
ATOM     54  CB  CYS d           0.657 -32.947 -24.274  0.00  0.00     0.036 C 
BRANCH  54  55
ATOM     55  CG  CYS d           0.742 -34.062 -25.308  0.00  0.00     0.023 C 
BRANCH  55  56
ATOM     56  CD  CYS d           0.207 -35.400 -24.813  0.00  0.00     0.138 C 
BRANCH  56  57
ATOM     57  NE  CYS d           0.206 -36.377 -25.899  0.00  0.00    -0.227 N 
ATOM     58  CZ  CYS d          -0.245 -37.622 -25.809  0.00  0.00     0.665 C 
ATOM     59  NH1 CYS d          -0.750 -38.091 -24.669  0.00  0.00    -0.235 N 
ATOM     60  NH2 CYS d          -0.203 -38.406 -26.879  0.00  0.00    -0.235 N 
ATOM     61  H42 CYS d          -1.095 -39.060 -24.619  0.00  0.00     0.174 HD
ATOM     62  H43 CYS d          -0.795 -37.484 -23.838  0.00  0.00     0.174 HD
ATOM     63  H44 CYS d           0.186 -38.050 -27.764  0.00  0.00     0.174 HD
ATOM     64  H45 CYS d          -0.560 -39.371 -26.825  0.00  0.00     0.174 HD
ATOM     65  H41 CYS d           0.586 -36.075 -26.808  0.00  0.00     0.177 HD
ENDBRANCH  56  57
ENDBRANCH  55  56
ENDBRANCH  54  55
ENDBRANCH  27  54
BRANCH  23  66
ATOM     66  CB  CYS d           5.039 -29.823 -26.059  0.00  0.00     0.199 C 
BRANCH  66  67
ATOM     67  OG  CYS d           4.527 -29.220 -24.880  0.00  0.00    -0.398 OA
ATOM     68  H32 CYS d           4.925 -29.627 -24.119  0.00  0.00     0.209 HD
ENDBRANCH  66  67
ENDBRANCH  23  66
BRANCH  31  69
ATOM     69  CB  CYS d           2.710 -27.538 -22.937  0.00  0.00     0.073 C 
BRANCH  69  70
ATOM     70  CG  CYS d           2.675 -26.207 -22.189  0.00  0.00    -0.056 A 
ATOM     71  CD1 CYS d           1.857 -26.018 -21.078  0.00  0.00     0.010 A 
ATOM     72  CE1 CYS d           1.843 -24.809 -20.402  0.00  0.00     0.037 A 
ATOM     73  CZ  CYS d           2.666 -23.772 -20.824  0.00  0.00     0.065 A 
ATOM     74  CE2 CYS d           3.497 -23.944 -21.911  0.00  0.00     0.037 A 
ATOM     75  CD2 CYS d           3.494 -25.149 -22.588  0.00  0.00     0.010 A 
BRANCH  73  76
ATOM     76  OH  CYS d           2.673 -22.560 -20.175  0.00  0.00    -0.361 OA
ATOM     77  H54 CYS d           2.057 -22.585 -19.452  0.00  0.00     0.217 HD
ENDBRANCH  73  76
ENDBRANCH  69  70
ENDBRANCH  31  69
BRANCH  19  78
ATOM     78  CB  CYS d           6.188 -35.179 -28.742  0.00  0.00     0.073 C 
BRANCH  78  79
ATOM     79  CG  CYS d           6.721 -35.888 -29.979  0.00  0.00    -0.056 A 
ATOM     80  CD1 CYS d           6.363 -35.487 -31.271  0.00  0.00     0.010 A 
ATOM     81  CE1 CYS d           6.841 -36.154 -32.387  0.00  0.00     0.037 A 
ATOM     82  CZ  CYS d           7.665 -37.256 -32.228  0.00  0.00     0.065 A 
ATOM     83  CE2 CYS d           8.018 -37.687 -30.959  0.00  0.00     0.037 A 
ATOM     84  CD2 CYS d           7.539 -37.009 -29.846  0.00  0.00     0.010 A 
BRANCH  82  85
ATOM     85  OH  CYS d           8.132 -37.931 -33.337  0.00  0.00    -0.361 OA
ATOM     86  H27 CYS d           7.802 -37.513 -34.123  0.00  0.00     0.217 HD
ENDBRANCH  82  85
ENDBRANCH  78  79
ENDBRANCH  19  78
BRANCH  35  87
ATOM     87  CB  CYS d          -2.126 -24.788 -22.994  0.00  0.00     0.013 C 
ATOM     88  CG2 CYS d          -2.497 -23.365 -23.414  0.00  0.00     0.012 C 
BRANCH  87  89
ATOM     89  CG1 CYS d          -3.401 -25.587 -22.810  0.00  0.00     0.002 C 
ATOM     90  CD1 CYS d          -4.261 -25.116 -21.663  0.00  0.00     0.005 C 
ENDBRANCH  87  89
ENDBRANCH  35  87
BRANCH  43  91
ATOM     91  C   CYS d           1.953 -25.392 -28.415  0.00  0.00     0.197 C 
ATOM     92  O   CYS d           2.051 -25.095 -29.606  0.00  0.00    -0.646 OA
ATOM     93  OXT CYS d           0.967 -26.022 -28.032  0.00  0.00    -0.646 OA
ENDBRANCH  43  91
BRANCH   1  94
ATOM     94  N   CYS d           9.932 -25.495 -26.711  0.00  0.00    -0.066 N 
ATOM     95  H1  CYS d           9.615 -24.708 -26.167  0.00  0.00     0.275 HD
ATOM     96  H2  CYS d          10.403 -25.164 -27.538  0.00  0.00     0.275 HD
ATOM     97  H3  CYS d          10.570 -26.049 -26.161  0.00  0.00     0.275 HD
ENDBRANCH   1  94
TORSDOF 16
