REMARK  5 active torsions:
REMARK  status: ('A' for Active; 'I' for Inactive)
REMARK    1  A    between atoms: C1'_10  and  C8_9 
REMARK    2  A    between atoms: C1B_22  and  C5'_14 
REMARK    3  A    between atoms: C6'_15  and  O6'_16 
REMARK    4  A    between atoms: C51_17  and  N52_18 
REMARK    5  A    between atoms: C5B_26  and  C51_17 
REMARK       I    between atoms: N52_18  and  C53_19 
REMARK       I    between atoms: C53_19  and  N54_21 
ROOT
ATOM      1  C1' MOL d          51.512  -8.300   9.414  0.00  0.00     0.025 A 
ATOM      2  C2' MOL d          52.293  -9.438   9.218  0.00  0.00     0.016 A 
ATOM      3  C3' MOL d          53.465  -9.389   8.504  0.00  0.00     0.002 A 
ATOM      4  C4' MOL d          53.878  -8.188   7.971  0.00  0.00     0.015 A 
ATOM      5  C5' MOL d          53.133  -7.010   8.137  0.00  0.00     0.008 A 
ATOM      6  C6' MOL d          51.953  -7.097   8.859  0.00  0.00     0.089 A 
ENDROOT
BRANCH   5   7
ATOM      7  C1B MOL d          53.604  -5.831   7.591  0.00  0.00    -0.023 A 
ATOM      8  C2B MOL d          52.756  -4.944   6.921  0.00  0.00     0.012 A 
ATOM      9  C3B MOL d          53.237  -3.776   6.344  0.00  0.00     0.001 A 
ATOM     10  C4B MOL d          54.591  -3.482   6.435  0.00  0.00     0.009 A 
ATOM     11  C5B MOL d          55.454  -4.346   7.094  0.00  0.00    -0.040 A 
ATOM     12  C6B MOL d          54.959  -5.504   7.667  0.00  0.00     0.021 A 
BRANCH  11  13
ATOM     13  C51 MOL d          56.938  -4.035   7.166  0.00  0.00     0.162 C 
BRANCH  13  14
ATOM     14  N52 MOL d          57.503  -4.337   8.511  0.00  0.00    -0.339 N 
ATOM     15  C53 MOL d          58.349  -5.315   8.690  0.00  0.00     0.314 C 
ATOM     16  O53 MOL d          58.714  -6.048   7.796  0.00  0.00    -0.248 OA
ATOM     17  N54 MOL d          58.819  -5.523   9.890  0.00  0.00    -0.352 N 
ATOM     18  H13 MOL d          59.468  -6.266  10.051  0.00  0.00     0.160 HD
ATOM     19  H14 MOL d          58.530  -4.939  10.648  0.00  0.00     0.160 HD
ATOM     20  H12 MOL d          57.228  -3.779   9.294  0.00  0.00     0.164 HD
ENDBRANCH  13  14
ENDBRANCH  11  13
ENDBRANCH   5   7
BRANCH   6  21
ATOM     21  O6' MOL d          51.182  -5.968   9.009  0.00  0.00    -0.359 OA
ATOM     22  H9  MOL d          50.411  -6.178   9.522  0.00  0.00     0.217 HD
ENDBRANCH   6  21
BRANCH   1  23
ATOM     23  C8  MOL d          50.355  -8.416  10.149  0.00  0.00     0.046 A 
ATOM     24  N3  MOL d          49.516  -7.403  10.296  0.00  0.00    -0.355 N 
ATOM     25  C4  MOL d          48.461  -7.744  11.012  0.00  0.00     0.045 A 
ATOM     26  H4  MOL d          49.668  -6.464   9.900  0.00  0.00     0.166 HD
ATOM     27  C3  MOL d          47.403  -6.986  11.362  0.00  0.00     0.049 A 
ATOM     28  C5  MOL d          48.606  -9.028  11.354  0.00  0.00     0.010 A 
ATOM     29  C2  MOL d          46.413  -7.611  12.128  0.00  0.00     0.118 A 
ATOM     30  N1  MOL d          46.613  -8.903  12.441  0.00  0.00    -0.272 NA
ATOM     31  C6  MOL d          47.649  -9.667  12.106  0.00  0.00     0.130 A 
ATOM     32  CN4 MOL d          49.764  -9.456  10.835  0.00  0.00     0.045 A 
ENDBRANCH   1  23
TORSDOF 5
