REMARK  8 active torsions:
REMARK  status: ('A' for Active; 'I' for Inactive)
REMARK    1  A    between atoms: CAK_11  and  CAJ_10 
REMARK    2  A    between atoms: CAJ_10  and  CAL_12 
REMARK    3  A    between atoms: NAN_14  and  CAK_11 
REMARK    4  A    between atoms: CAL_12  and  NAV_22 
REMARK    5  A    between atoms: CAR_18  and  NAN_14 
REMARK    6  A    between atoms: CAS_19  and  NAO_15 
REMARK    7  A    between atoms: CAT_20  and  OAP_16 
REMARK    8  A    between atoms: OAQ_17  and  CAU_21 
ROOT
ATOM      1  SAC PBD d         -30.434  -2.074  37.749  0.00  0.00    -0.041 SA
ATOM      2  NAO PBD d         -31.932  -3.758  39.153  0.00  0.00    -0.333 N 
ATOM      3  CAR PBD d         -30.960  -2.838  39.205  0.00  0.00     0.172 C 
ATOM      4  H20 PBD d         -32.336  -3.979  38.265  0.00  0.00     0.168 HD
ENDROOT
BRANCH   2   5
ATOM      5  CAS PBD d         -32.385  -4.394  40.240  0.00  0.00     0.037 A 
ATOM      6  CAE PBD d         -33.100  -3.722  41.224  0.00  0.00     0.032 A 
ATOM      7  CAF PBD d         -33.556  -4.408  42.332  0.00  0.00     0.042 A 
ATOM      8  CAT PBD d         -33.336  -5.784  42.460  0.00  0.00     0.101 A 
ATOM      9  CAU PBD d         -32.639  -6.459  41.463  0.00  0.00     0.103 A 
ATOM     10  CAI PBD d         -32.170  -5.755  40.366  0.00  0.00     0.069 A 
BRANCH   8  11
ATOM     11  OAP PBD d         -33.805  -6.490  43.542  0.00  0.00    -0.353 OA
ATOM     12  CAA PBD d         -34.720  -5.695  44.366  0.00  0.00     0.210 C 
ENDBRANCH   8  11
BRANCH   9  13
ATOM     13  OAQ PBD d         -32.427  -7.809  41.608  0.00  0.00    -0.353 OA
ATOM     14  CAB PBD d         -31.624  -8.464  40.586  0.00  0.00     0.210 C 
ENDBRANCH   9  13
ENDBRANCH   2   5
BRANCH   3  15
ATOM     15  NAN PBD d         -30.376  -2.536  40.374  0.00  0.00    -0.367 N 
ATOM     16  H19 PBD d         -30.674  -3.029  41.191  0.00  0.00     0.161 HD
BRANCH  15  17
ATOM     17  CAK PBD d         -29.334  -1.531  40.520  0.00  0.00     0.123 C 
BRANCH  17  18
ATOM     18  CAJ PBD d         -28.959  -1.494  42.016  0.00  0.00     0.040 C 
BRANCH  18  19
ATOM     19  CAL PBD d         -28.126  -0.288  42.423  0.00  0.00     0.131 C 
BRANCH  19  20
ATOM     20  NAV PBD d         -27.818  -0.360  43.887  0.00  0.00    -0.350 N 
ATOM     21  CAG PBD d         -26.932  -1.199  44.471  0.00  0.00     0.111 A 
ATOM     22  CAD PBD d         -26.941  -0.949  45.790  0.00  0.00     0.135 A 
ATOM     23  NAM PBD d         -27.840   0.053  46.017  0.00  0.00    -0.255 NA
ATOM     24  CAH PBD d         -28.373   0.396  44.833  0.00  0.00     0.209 A 
ENDBRANCH  19  20
ENDBRANCH  18  19
ENDBRANCH  17  18
ENDBRANCH  15  17
ENDBRANCH   3  15
TORSDOF 8
