REMARK  13 active torsions:
REMARK  status: ('A' for Active; 'I' for Inactive)
REMARK    1  A    between atoms: CAK_10  and  CBH_9 
REMARK    2  A    between atoms: CAI_11  and  CAK_10 
REMARK    3  A    between atoms: CAH_12  and  CAI_11 
REMARK    4  A    between atoms: CAJ_13  and  CAH_12 
REMARK    5  A    between atoms: CAZ_14  and  CAJ_13 
REMARK       I    between atoms: NAV_16  and  CAZ_14 
REMARK    6  A    between atoms: SBK_17  and  NAV_16 
REMARK    7  A    between atoms: OAW_20  and  SBK_17 
REMARK    8  A    between atoms: CAN_21  and  OAW_20 
REMARK    9  A    between atoms: CBE_22  and  CAN_21 
REMARK   10  A    between atoms: CAL_24  and  OAL_25 
REMARK   11  A    between atoms: N8Q_40  and  CAM_26 
REMARK   12  A    between atoms: CBG_27  and  N9_28 
REMARK   13  A    between atoms: C6_36  and  N6_37 
ROOT
ATOM      1  N5  MOL d          -0.719   0.953  11.045  0.00  0.00     0.068 N 
ATOM      2  N2  MOL d          -1.713   1.278  10.547  0.00  0.00    -0.167 NA
ATOM      3  N8Q MOL d          -2.894   1.708   9.986  0.00  0.00    -0.103 NA
ENDROOT
BRANCH   3   4
ATOM      4  CAM MOL d          -3.567   0.926   8.968  0.00  0.00     0.225 C 
ATOM      5  CAL MOL d          -2.711  -0.225   8.486  0.00  0.00     0.181 C 
ATOM      6  CBE MOL d          -3.737  -1.191   7.919  0.00  0.00     0.180 C 
ATOM      7  OAX MOL d          -4.947  -0.959   8.651  0.00  0.00    -0.354 OA
ATOM      8  CBG MOL d          -4.877   0.260   9.399  0.00  0.00     0.261 C 
BRANCH   5   9
ATOM      9  OAL MOL d          -1.815   0.210   7.462  0.00  0.00    -0.391 OA
ATOM     10  H21 MOL d          -1.181   0.812   7.833  0.00  0.00     0.210 HD
ENDBRANCH   5   9
BRANCH   6  11
ATOM     11  CAN MOL d          -3.307  -2.658   7.979  0.00  0.00     0.226 C 
BRANCH  11  12
ATOM     12  OAW MOL d          -4.347  -3.476   7.440  0.00  0.00    -0.257 OA
BRANCH  12  13
ATOM     13  SBK MOL d          -4.036  -4.755   6.646  0.00  0.00     0.364 S 
ATOM     14  OAD MOL d          -5.153  -5.059   5.796  0.00  0.00    -0.175 OA
ATOM     15  OAE MOL d          -2.878  -4.532   5.826  0.00  0.00    -0.175 OA
BRANCH  13  16
ATOM     16  NAV MOL d          -3.763  -5.924   7.585  0.00  0.00    -0.231 N 
ATOM     17  CAZ MOL d          -4.707  -6.397   8.398  0.00  0.00     0.232 C 
ATOM     18  OAB MOL d          -5.835  -5.935   8.453  0.00  0.00    -0.273 OA
ATOM     19  H16 MOL d          -2.856  -6.345   7.591  0.00  0.00     0.183 HD
BRANCH  17  20
ATOM     20  CAJ MOL d          -4.326  -7.564   9.278  0.00  0.00     0.104 C 
BRANCH  20  21
ATOM     21  CAH MOL d          -3.874  -7.099  10.656  0.00  0.00     0.009 C 
BRANCH  21  22
ATOM     22  CAI MOL d          -3.714  -8.308  11.568  0.00  0.00     0.002 C 
BRANCH  22  23
ATOM     23  CAK MOL d          -3.383  -7.907  13.000  0.00  0.00     0.017 C 
BRANCH  23  24
ATOM     24  CBH MOL d          -3.473  -9.105  13.936  0.00  0.00     0.072 C 
ATOM     25  CBI MOL d          -2.270 -10.040  13.858  0.00  0.00     0.123 A 
ATOM     26  NAU MOL d          -1.120  -9.186  13.594  0.00  0.00    -0.335 N 
ATOM     27  CBF MOL d          -1.923 -10.618  15.246  0.00  0.00     0.119 A 
ATOM     28  CBA MOL d          -0.173  -9.313  14.510  0.00  0.00     0.316 A 
ATOM     29  H2  MOL d          -1.053  -8.572  12.808  0.00  0.00     0.164 HD
ATOM     30  OAC MOL d           0.918  -8.767  14.469  0.00  0.00    -0.247 OA
ATOM     31  NAT MOL d          -0.576 -10.120  15.474  0.00  0.00    -0.336 N 
ATOM     32  H3  MOL d          -0.019 -10.361  16.269  0.00  0.00     0.164 HD
ATOM     33  CAO MOL d          -2.750  -9.968  16.351  0.00  0.00     0.101 C 
ATOM     34  SAY MOL d          -3.484  -8.563  15.603  0.00  0.00    -0.160 SA
ENDBRANCH  23  24
ENDBRANCH  22  23
ENDBRANCH  21  22
ENDBRANCH  20  21
ENDBRANCH  17  20
ENDBRANCH  13  16
ENDBRANCH  12  13
ENDBRANCH  11  12
ENDBRANCH   6  11
BRANCH   8  35
ATOM     35  N9  MOL d          -5.004  -0.079  10.848  0.00  0.00    -0.294 N 
ATOM     36  C8  MOL d          -4.028  -0.246  11.753  0.00  0.00     0.214 A 
ATOM     37  N7  MOL d          -4.569  -0.555  12.951  0.00  0.00    -0.236 NA
ATOM     38  C5  MOL d          -5.905  -0.602  12.791  0.00  0.00     0.149 A 
ATOM     39  C4  MOL d          -6.170  -0.307  11.465  0.00  0.00     0.167 A 
ATOM     40  C6  MOL d          -6.962  -0.873  13.651  0.00  0.00     0.155 A 
ATOM     41  N3  MOL d          -7.454  -0.286  11.033  0.00  0.00    -0.222 NA
ATOM     42  C2  MOL d          -8.455  -0.553  11.880  0.00  0.00     0.237 A 
ATOM     43  N1  MOL d          -8.222  -0.839  13.169  0.00  0.00    -0.222 NA
BRANCH  40  44
ATOM     44  N6  MOL d          -6.741  -1.168  14.955  0.00  0.00    -0.382 N 
ATOM     45  H26 MOL d          -7.535  -1.367  15.580  0.00  0.00     0.157 HD
ATOM     46  H27 MOL d          -5.779  -1.194  15.321  0.00  0.00     0.157 HD
ENDBRANCH  40  44
ENDBRANCH   8  35
ENDBRANCH   3   4
TORSDOF 13
