REMARK  7 active torsions:
REMARK  status: ('A' for Active; 'I' for Inactive)
REMARK    1  A    between atoms: N2_2  and  C13_9 
REMARK    2  A    between atoms: C5_5  and  C8_6 
REMARK       I    between atoms: C8_6  and  N10_8 
REMARK    3  A    between atoms: C13_9  and  C14_10 
REMARK    4  A    between atoms: C13_9  and  C18_12 
REMARK    5  A    between atoms: C14_10  and  O15_11 
REMARK    6  A    between atoms: C18_12  and  C19_13 
REMARK    7  A    between atoms: C19_13  and  C22_14 
ROOT
ATOM      1  C13 FR6 d          51.552  56.991  21.856  0.00  0.00     0.119 C 
ENDROOT
BRANCH   1   2
ATOM      2  N2  FR6 d          51.464  55.544  22.034  0.00  0.00    -0.342 N 
ATOM      3  C1  FR6 d          51.527  54.519  20.979  0.00  0.00     0.129 C 
ATOM      4  C5  FR6 d          51.536  53.332  21.609  0.00  0.00     0.141 C 
ATOM      5  N4  FR6 d          51.481  53.584  23.065  0.00  0.00    -0.237 NA
ATOM      6  C3  FR6 d          51.338  54.918  23.205  0.00  0.00     0.210 C 
BRANCH   4   7
ATOM      7  C8  FR6 d          51.570  51.965  21.007  0.00  0.00     0.269 C 
ATOM      8  O9  FR6 d          52.065  51.694  19.923  0.00  0.00    -0.266 OA
ATOM      9  N10 FR6 d          51.120  50.980  21.751  0.00  0.00    -0.365 N 
ATOM     10  H3  FR6 d          51.120  50.045  21.396  0.00  0.00     0.159 HD
ATOM     11  H4  FR6 d          50.777  51.165  22.672  0.00  0.00     0.159 HD
ENDBRANCH   4   7
ENDBRANCH   1   2
BRANCH   1  12
ATOM     12  C14 FR6 d          53.051  57.533  21.827  0.00  0.00     0.137 C 
ATOM     13  C9  FR6 d          53.814  57.318  20.492  0.00  0.00     0.041 C 
BRANCH  12  14
ATOM     14  O15 FR6 d          53.969  57.211  22.931  0.00  0.00    -0.394 OA
ATOM     15  H7  FR6 d          54.816  57.606  22.762  0.00  0.00     0.210 HD
ENDBRANCH  12  14
ENDBRANCH   1  12
BRANCH   1  16
ATOM     16  C18 FR6 d          50.671  57.460  20.678  0.00  0.00     0.033 C 
BRANCH  16  17
ATOM     17  C19 FR6 d          49.130  57.358  20.884  0.00  0.00     0.041 C 
BRANCH  17  18
ATOM     18  C22 FR6 d          48.417  57.836  19.626  0.00  0.00    -0.047 A 
ATOM     19  C25 FR6 d          48.022  59.182  19.517  0.00  0.00     0.008 A 
ATOM     20  C26 FR6 d          47.518  59.700  18.322  0.00  0.00     0.001 A 
ATOM     21  C27 FR6 d          47.504  58.903  17.176  0.00  0.00     0.012 A 
ATOM     22  C28 FR6 d          47.903  57.559  17.259  0.00  0.00    -0.025 A 
ATOM     23  C29 FR6 d          48.388  57.027  18.465  0.00  0.00    -0.020 A 
ATOM     24  C2  FR6 d          47.762  56.765  16.108  0.00  0.00     0.012 A 
ATOM     25  C4  FR6 d          48.678  55.642  18.524  0.00  0.00     0.013 A 
ATOM     26  C7  FR6 d          48.520  54.842  17.377  0.00  0.00     0.001 A 
ATOM     27  C6  FR6 d          48.098  55.413  16.171  0.00  0.00     0.001 A 
ENDBRANCH  17  18
ENDBRANCH  16  17
ENDBRANCH   1  16
TORSDOF 7
