REMARK  5 active torsions:
REMARK  status: ('A' for Active; 'I' for Inactive)
REMARK    1  A    between atoms: C2_2  and  O2_3 
REMARK    2  A    between atoms: C3_4  and  O3_5 
REMARK    3  A    between atoms: C4_6  and  O4_7 
REMARK    4  A    between atoms: C5_8  and  C6_10 
REMARK    5  A    between atoms: C6_10  and  O6_11 
ROOT
ATOM      1  C1  DGJ d          39.165  16.031  31.351  0.00  0.00     0.267 C 
ATOM      2  C2  DGJ d          39.953  16.196  30.062  0.00  0.00     0.175 C 
ATOM      3  C3  DGJ d          39.014  16.746  28.992  0.00  0.00     0.179 C 
ATOM      4  C4  DGJ d          37.945  15.700  28.712  0.00  0.00     0.182 C 
ATOM      5  C5  DGJ d          37.199  15.278  29.984  0.00  0.00     0.240 C 
ATOM      6  N5  DGJ d          38.134  15.060  31.069  0.00  0.00    -0.064 N 
ATOM      7  H10 DGJ d          37.585  14.968  31.910  0.00  0.00     0.277 HD
ATOM      8  H11 DGJ d          38.602  14.188  30.877  0.00  0.00     0.277 HD
ENDROOT
BRANCH   5   9
ATOM      9  C6  DGJ d          36.392  14.007  29.767  0.00  0.00     0.199 C 
BRANCH   9  10
ATOM     10  O6  DGJ d          35.489  13.804  30.851  0.00  0.00    -0.399 OA
ATOM     11  H14 DGJ d          34.992  13.008  30.703  0.00  0.00     0.209 HD
ENDBRANCH   9  10
ENDBRANCH   5   9
BRANCH   4  12
ATOM     12  O4  DGJ d          38.584  14.565  28.119  0.00  0.00    -0.391 OA
ATOM     13  H8  DGJ d          39.007  14.828  27.310  0.00  0.00     0.210 HD
ENDBRANCH   4  12
BRANCH   3  14
ATOM     14  O3  DGJ d          39.744  17.068  27.799  0.00  0.00    -0.390 OA
ATOM     15  H6  DGJ d          40.166  16.285  27.466  0.00  0.00     0.210 HD
ENDBRANCH   3  14
BRANCH   2  16
ATOM     16  O2  DGJ d          41.094  17.027  30.277  0.00  0.00    -0.391 OA
ATOM     17  H4  DGJ d          41.575  17.120  29.463  0.00  0.00     0.210 HD
ENDBRANCH   2  16
TORSDOF 5
