REMARK WARNING: 32 MAX_TORS EXCEEDED!!!
REMARK  34 active torsions:
REMARK  status: ('A' for Active; 'I' for Inactive)
REMARK    1  A    between atoms: N_1  and  CA_2 
REMARK    2  A    between atoms: CA_2  and  C_3 
REMARK    3  A    between atoms: CA_2  and  CB_5 
REMARK       I    between atoms: C_3  and  N_7 
REMARK    4  A    between atoms: CB_5  and  OG_6 
REMARK    5  A    between atoms: N_7  and  CA_8 
REMARK    6  A    between atoms: CA_8  and  C_9 
REMARK    7  A    between atoms: CA_8  and  CB_11 
REMARK       I    between atoms: C_9  and  N_15 
REMARK    8  A    between atoms: CB_11  and  CG1_12 
REMARK    9  A    between atoms: N_15  and  CA_16 
REMARK   10  A    between atoms: CA_16  and  C_17 
REMARK   11  A    between atoms: CA_16  and  CB_19 
REMARK       I    between atoms: C_17  and  N_23 
REMARK   12  A    between atoms: CB_19  and  CG1_20 
REMARK   13  A    between atoms: N_23  and  CA_24 
REMARK   14  A    between atoms: CA_24  and  C_25 
REMARK       I    between atoms: C_25  and  N_27 
REMARK   15  A    between atoms: N_27  and  CA_28 
REMARK   16  A    between atoms: CA_28  and  C_29 
REMARK   17  A    between atoms: CA_28  and  CB_31 
REMARK       I    between atoms: C_29  and  N_38 
REMARK   18  A    between atoms: CB_31  and  CG_32 
REMARK   19  A    between atoms: N_38  and  CA_39 
REMARK   20  A    between atoms: CA_39  and  C_40 
REMARK   21  A    between atoms: CA_39  and  CB_42 
REMARK       I    between atoms: C_40  and  N_47 
REMARK   22  A    between atoms: CB_42  and  CG_43 
REMARK   23  A    between atoms: CG_43  and  CD_44 
REMARK   24  A    between atoms: N_47  and  CA_48 
REMARK   25  A    between atoms: CA_48  and  C_49 
REMARK   26  A    between atoms: CA_48  and  CB_51 
REMARK       I    between atoms: C_49  and  N_56 
REMARK   27  A    between atoms: CB_51  and  CG_52 
REMARK   28  A    between atoms: CG_52  and  CD_53 
REMARK   29  A    between atoms: CD_53  and  CE_54 
REMARK   30  A    between atoms: CE_54  and  NZ_55 
REMARK   31  A    between atoms: N_56  and  CA_57 
REMARK   32  A    between atoms: CA_57  and  C_58 
REMARK   33  A    between atoms: CA_57  and  CB_60 
REMARK   34  A    between atoms: CB_60  and  CG_61 
ROOT
ATOM      1  CA  SER d          -3.218   8.217  -7.338  0.00  0.00     0.180 C 
ENDROOT
BRANCH   1   2
ATOM      2  N   SER d          -3.592   6.815  -7.172  0.00  0.00    -0.346 N 
ATOM      3  C   SER d          -3.678   6.291  -5.956  0.00  0.00     0.236 C 
ATOM      4  O   SER d          -3.519   6.960  -4.935  0.00  0.00    -0.272 OA
ATOM      5  H33 SER d          -3.783   6.250  -7.975  0.00  0.00     0.163 HD
BRANCH   3   6
ATOM      6  CA  SER d          -3.952   4.808  -5.853  0.00  0.00     0.225 C 
BRANCH   6   7
ATOM      7  N   SER d          -2.904   4.279  -4.996  0.00  0.00    -0.351 N 
ATOM      8  C   SER d          -1.743   3.866  -5.490  0.00  0.00     0.241 C 
ATOM      9  O   SER d          -1.552   3.718  -6.694  0.00  0.00    -0.271 OA
ATOM     10  H30 SER d          -3.061   4.225  -4.010  0.00  0.00     0.163 HD
BRANCH   8  11
ATOM     11  CA  SER d          -0.649   3.532  -4.478  0.00  0.00     0.180 C 
BRANCH  11  12
ATOM     12  N   SER d           0.369   2.680  -5.081  0.00  0.00    -0.346 N 
ATOM     13  C   SER d           0.101   1.438  -5.478  0.00  0.00     0.241 C 
ATOM     14  O   SER d          -0.993   0.909  -5.304  0.00  0.00    -0.271 OA
ATOM     15  H19 SER d           1.295   3.039  -5.200  0.00  0.00     0.163 HD
BRANCH  13  16
ATOM     16  CA  SER d           1.242   0.677  -6.172  0.00  0.00     0.180 C 
BRANCH  16  17
ATOM     17  N   SER d           1.111  -0.757  -5.949  0.00  0.00    -0.346 N 
ATOM     18  C   SER d           1.445  -1.293  -4.782  0.00  0.00     0.251 C 
ATOM     19  O   SER d           1.879  -0.616  -3.839  0.00  0.00    -0.271 OA
ATOM     20  H8  SER d           0.766  -1.343  -6.682  0.00  0.00     0.163 HD
BRANCH  18  21
ATOM     21  CA  SER d           1.293  -2.809  -4.658  0.00  0.00     0.297 C 
BRANCH  21  22
ATOM     22  N   SER d           2.538  -3.374  -4.164  0.00  0.00    -0.064 N 
ATOM     23  H1  SER d           2.443  -4.374  -4.080  0.00  0.00     0.275 HD
ATOM     24  H2  SER d           2.751  -2.980  -3.261  0.00  0.00     0.275 HD
ATOM     25  H3  SER d           3.283  -3.160  -4.808  0.00  0.00     0.275 HD
ENDBRANCH  21  22
BRANCH  21  26
ATOM     26  CB  SER d           0.127  -3.158  -3.718  0.00  0.00     0.206 C 
BRANCH  26  27
ATOM     27  OG  SER d          -1.117  -2.851  -4.330  0.00  0.00    -0.398 OA
ATOM     28  H7  SER d          -1.824  -3.073  -3.736  0.00  0.00     0.209 HD
ENDBRANCH  26  27
ENDBRANCH  21  26
ENDBRANCH  18  21
ENDBRANCH  16  17
BRANCH  16  29
ATOM     29  CB  SER d           1.259   0.980  -7.679  0.00  0.00     0.013 C 
ATOM     30  CG2 SER d          -0.115   0.797  -8.273  0.00  0.00     0.012 C 
BRANCH  29  31
ATOM     31  CG1 SER d           1.767   2.390  -7.967  0.00  0.00     0.002 C 
ATOM     32  CD1 SER d           2.004   2.632  -9.482  0.00  0.00     0.005 C 
ENDBRANCH  29  31
ENDBRANCH  16  29
ENDBRANCH  13  16
ENDBRANCH  11  12
BRANCH  11  33
ATOM     33  CB  SER d          -0.026   4.836  -3.925  0.00  0.00     0.013 C 
ATOM     34  CG2 SER d           0.389   5.778  -5.066  0.00  0.00     0.012 C 
BRANCH  33  35
ATOM     35  CG1 SER d          -0.985   5.535  -2.954  0.00  0.00     0.002 C 
ATOM     36  CD1 SER d          -0.307   6.633  -2.105  0.00  0.00     0.005 C 
ENDBRANCH  33  35
ENDBRANCH  11  33
ENDBRANCH   8  11
ENDBRANCH   6   7
ENDBRANCH   3   6
ENDBRANCH   1   2
BRANCH   1  37
ATOM     37  C   SER d          -4.398   9.193  -7.193  0.00  0.00     0.241 C 
ATOM     38  O   SER d          -5.552   8.838  -7.437  0.00  0.00    -0.271 OA
ATOM     39  N   SER d          -4.092  10.413  -6.758  0.00  0.00    -0.346 N 
ATOM     40  H42 SER d          -3.143  10.612  -6.515  0.00  0.00     0.163 HD
BRANCH  39  41
ATOM     41  CA  SER d          -5.090  11.474  -6.622  0.00  0.00     0.177 C 
BRANCH  41  42
ATOM     42  C   SER d          -4.883  12.531  -7.701  0.00  0.00     0.241 C 
ATOM     43  O   SER d          -3.757  12.791  -8.103  0.00  0.00    -0.271 OA
ATOM     44  N   SER d          -5.974  13.153  -8.140  0.00  0.00    -0.346 N 
ATOM     45  H48 SER d          -6.851  12.963  -7.698  0.00  0.00     0.163 HD
BRANCH  44  46
ATOM     46  CA  SER d          -5.931  14.103  -9.246  0.00  0.00     0.176 C 
BRANCH  46  47
ATOM     47  C   SER d          -5.077  15.351  -9.023  0.00  0.00     0.241 C 
ATOM     48  O   SER d          -4.959  15.853  -7.907  0.00  0.00    -0.271 OA
ATOM     49  N   SER d          -4.486  15.828 -10.116  0.00  0.00    -0.345 N 
ATOM     50  H61 SER d          -4.667  15.371 -10.987  0.00  0.00     0.163 HD
BRANCH  49  51
ATOM     51  CA  SER d          -3.590  16.979 -10.118  0.00  0.00     0.185 C 
BRANCH  51  52
ATOM     52  C   SER d          -4.383  18.273 -10.183  0.00  0.00     0.196 C 
ATOM     53  O   SER d          -5.514  18.258 -10.660  0.00  0.00    -0.646 OA
ATOM     54  OXT SER d          -3.888  19.344  -9.815  0.00  0.00    -0.646 OA
ENDBRANCH  51  52
BRANCH  51  55
ATOM     55  CB  SER d          -2.674  16.930 -11.352  0.00  0.00     0.040 C 
BRANCH  55  56
ATOM     56  CG  SER d          -1.636  15.813 -11.379  0.00  0.00    -0.020 C 
ATOM     57  CD1 SER d          -0.752  15.956 -12.595  0.00  0.00     0.009 C 
ATOM     58  CD2 SER d          -0.813  15.846 -10.105  0.00  0.00     0.009 C 
ENDBRANCH  55  56
ENDBRANCH  51  55
ENDBRANCH  49  51
ENDBRANCH  46  47
BRANCH  46  59
ATOM     59  CB  SER d          -7.346  14.457  -9.699  0.00  0.00     0.035 C 
BRANCH  59  60
ATOM     60  CG  SER d          -7.983  13.295 -10.465  0.00  0.00     0.004 C 
BRANCH  60  61
ATOM     61  CD  SER d          -9.409  13.559 -10.865  0.00  0.00     0.027 C 
BRANCH  61  62
ATOM     62  CE  SER d         -10.023  12.290 -11.412  0.00  0.00     0.229 C 
BRANCH  62  63
ATOM     63  NZ  SER d          -9.894  11.187 -10.410  0.00  0.00    -0.079 N 
ATOM     64  H58 SER d         -10.305  10.345 -10.782  0.00  0.00     0.274 HD
ATOM     65  H59 SER d         -10.371  11.447  -9.561  0.00  0.00     0.274 HD
ATOM     66  H60 SER d          -8.919  11.025 -10.212  0.00  0.00     0.274 HD
ENDBRANCH  62  63
ENDBRANCH  61  62
ENDBRANCH  60  61
ENDBRANCH  59  60
ENDBRANCH  46  59
ENDBRANCH  44  46
ENDBRANCH  41  42
BRANCH  41  67
ATOM     67  CB  SER d          -4.987  12.135  -5.250  0.00  0.00     0.045 C 
BRANCH  67  68
ATOM     68  CG  SER d          -5.515  11.283  -4.120  0.00  0.00     0.116 C 
BRANCH  68  69
ATOM     69  CD  SER d          -7.023  11.089  -4.213  0.00  0.00     0.172 C 
ATOM     70  OE1 SER d          -7.494   9.935  -4.110  0.00  0.00    -0.648 OA
ATOM     71  OE2 SER d          -7.733  12.100  -4.395  0.00  0.00    -0.648 OA
ENDBRANCH  68  69
ENDBRANCH  67  68
ENDBRANCH  41  67
ENDBRANCH  39  41
ENDBRANCH   1  37
BRANCH   1  72
ATOM     72  CB  SER d          -2.457   8.423  -8.659  0.00  0.00     0.073 C 
BRANCH  72  73
ATOM     73  CG  SER d          -1.156   7.681  -8.713  0.00  0.00    -0.056 A 
ATOM     74  CD1 SER d          -0.011   8.226  -8.160  0.00  0.00     0.007 A 
ATOM     75  CE1 SER d           1.187   7.530  -8.191  0.00  0.00     0.001 A 
ATOM     76  CZ  SER d           1.246   6.291  -8.773  0.00  0.00     0.000 A 
ATOM     77  CE2 SER d           0.114   5.733  -9.323  0.00  0.00     0.001 A 
ATOM     78  CD2 SER d          -1.083   6.429  -9.286  0.00  0.00     0.007 A 
ENDBRANCH  72  73
ENDBRANCH   1  72
TORSDOF 34
