REMARK  10 active torsions:
REMARK  status: ('A' for Active; 'I' for Inactive)
REMARK    1  A    between atoms: C3_3  and  C10_10 
REMARK    2  A    between atoms: C6_6  and  N7_7 
REMARK    3  A    between atoms: C10_10  and  N11_11 
REMARK    4  A    between atoms: N11_11  and  C17_17 
REMARK    5  A    between atoms: N11_11  and  C12_12 
REMARK    6  A    between atoms: C12_12  and  P13_13 
REMARK    7  A    between atoms: C17_17  and  C18_18 
REMARK    8  A    between atoms: C18_18  and  C19_19 
REMARK    9  A    between atoms: C19_19  and  C20_20 
REMARK   10  A    between atoms: C20_20  and  C21_21 
ROOT
ATOM      1  N11 AAH d         -24.281  40.291  16.314  0.00  0.00    -0.055 N 
ATOM      2  H7  AAH d         -24.533  39.824  17.171  0.00  0.00     0.281 HD
ENDROOT
BRANCH   1   3
ATOM      3  C10 AAH d         -22.886  39.850  16.092  0.00  0.00     0.274 C 
BRANCH   3   4
ATOM      4  C3  AAH d         -22.627  38.367  16.352  0.00  0.00    -0.032 C 
ATOM      5  C2  AAH d         -23.563  37.628  17.124  0.00  0.00     0.011 C 
ATOM      6  C1  AAH d         -23.417  36.240  17.230  0.00  0.00     0.037 C 
ATOM      7  C6  AAH d         -22.245  35.621  16.775  0.00  0.00     0.102 C 
ATOM      8  C5  AAH d         -21.298  36.354  16.073  0.00  0.00     0.037 C 
ATOM      9  C4  AAH d         -21.513  37.728  15.843  0.00  0.00     0.011 C 
BRANCH   7  10
ATOM     10  N7  AAH d         -22.031  34.162  17.039  0.00  0.00    -0.116 N 
ATOM     11  O9  AAH d         -21.231  33.543  16.413  0.00  0.00    -0.532 OA
ATOM     12  O8  AAH d         -22.800  33.563  17.699  0.00  0.00    -0.532 OA
ENDBRANCH   7  10
ENDBRANCH   3   4
ENDBRANCH   1   3
BRANCH   1  13
ATOM     13  C17 AAH d         -24.495  41.785  16.652  0.00  0.00     0.236 C 
BRANCH  13  14
ATOM     14  C18 AAH d         -24.073  42.130  18.090  0.00  0.00     0.028 C 
BRANCH  14  15
ATOM     15  C19 AAH d         -24.476  41.004  19.058  0.00  0.00     0.012 C 
BRANCH  15  16
ATOM     16  C20 AAH d         -24.359  41.506  20.504  0.00  0.00     0.113 C 
BRANCH  16  17
ATOM     17  C21 AAH d         -25.506  42.452  20.813  0.00  0.00     0.172 C 
ATOM     18  O23 AAH d         -25.267  43.505  21.394  0.00  0.00    -0.648 OA
ATOM     19  O22 AAH d         -26.801  42.136  20.454  0.00  0.00    -0.648 OA
ENDBRANCH  16  17
ENDBRANCH  15  16
ENDBRANCH  14  15
ENDBRANCH  13  14
ENDBRANCH   1  13
BRANCH   1  20
ATOM     20  C12 AAH d         -25.273  39.750  15.307  0.00  0.00     0.380 C 
BRANCH  20  21
ATOM     21  P13 AAH d         -27.084  39.797  15.694  0.00  0.00     0.286 P 
ATOM     22  O16 AAH d         -27.745  39.405  14.466  0.00  0.00    -0.638 OA
ATOM     23  O15 AAH d         -27.615  41.258  16.136  0.00  0.00    -0.638 OA
ATOM     24  O14 AAH d         -27.469  38.812  16.846  0.00  0.00    -0.638 OA
ENDBRANCH  20  21
ENDBRANCH   1  20
TORSDOF 10
