REMARK  3 active torsions:
REMARK  status: ('A' for Active; 'I' for Inactive)
REMARK    1  A    between atoms: C17_17  and  C20_20 
REMARK    2  A    between atoms: C20_20  and  C21_21 
REMARK    3  A    between atoms: C21_21  and  O4_25 
ROOT
ATOM      1  C1  C0R d          21.886   9.797  -7.078  0.00  0.00     0.022 C 
ATOM      2  C2  C0R d          21.716  10.868  -8.135  0.00  0.00     0.084 C 
ATOM      3  C3  C0R d          22.134  10.353  -9.464  0.00  0.00     0.149 C 
ATOM      4  C4  C0R d          21.818   8.950  -9.799  0.00  0.00     0.053 C 
ATOM      5  C5  C0R d          21.554   8.076  -8.806  0.00  0.00    -0.067 C 
ATOM      6  C6  C0R d          21.584   6.614  -9.184  0.00  0.00     0.035 C 
ATOM      7  C7  C0R d          21.781   5.671  -8.055  0.00  0.00     0.010 C 
ATOM      8  C8  C0R d          21.245   6.156  -6.719  0.00  0.00     0.003 C 
ATOM      9  C9  C0R d          21.618   7.538  -6.292  0.00  0.00     0.072 C 
ATOM     10  C10 C0R d          21.209   8.538  -7.397  0.00  0.00    -0.009 C 
ATOM     11  C11 C0R d          21.187   7.914  -4.815  0.00  0.00     0.133 C 
ATOM     12  C12 C0R d          20.517   6.780  -3.984  0.00  0.00     0.089 C 
ATOM     13  C13 C0R d          20.490   5.353  -4.554  0.00  0.00    -0.023 C 
ATOM     14  C14 C0R d          21.577   5.236  -5.595  0.00  0.00    -0.000 C 
ATOM     15  C15 C0R d          21.819   3.822  -5.887  0.00  0.00     0.006 C 
ATOM     16  C16 C0R d          22.020   3.522  -4.465  0.00  0.00     0.013 C 
ATOM     17  C17 C0R d          20.849   4.098  -3.736  0.00  0.00     0.066 C 
ATOM     18  C18 C0R d          19.119   5.278  -5.142  0.00  0.00     0.016 C 
ATOM     19  C19 C0R d          20.000   8.883  -8.088  0.00  0.00     0.021 C 
ATOM     20  O1  C0R d          22.628  11.119 -10.230  0.00  0.00    -0.293 OA
ATOM     21  O2  C0R d          20.822   9.147  -4.711  0.00  0.00    -0.297 OA
ENDROOT
BRANCH  17  22
ATOM     22  C20 C0R d          20.090   2.787  -3.735  0.00  0.00     0.154 C 
ATOM     23  O3  C0R d          20.430   1.920  -3.002  0.00  0.00    -0.295 OA
BRANCH  22  24
ATOM     24  C21 C0R d          18.946   2.376  -4.579  0.00  0.00     0.242 C 
BRANCH  24  25
ATOM     25  O4  C0R d          18.938   0.960  -4.546  0.00  0.00    -0.394 OA
ATOM     26  H   C0R d          18.831   0.666  -3.649  0.00  0.00     0.209 HD
ENDBRANCH  24  25
ENDBRANCH  22  24
ENDBRANCH  17  22
TORSDOF 3
