REMARK  9 active torsions:
REMARK  status: ('A' for Active; 'I' for Inactive)
REMARK    1  A    between atoms: NP1_1  and  C02_2 
REMARK    2  A    between atoms: C02_2  and  C03_3 
REMARK    3  A    between atoms: C02_2  and  C06_6 
REMARK    4  A    between atoms: C06_6  and  C07_7 
REMARK    5  A    between atoms: C07_7  and  C08_8 
REMARK    6  A    between atoms: C08_8  and  C09_9 
REMARK    7  A    between atoms: C09_9  and  C10_10 
REMARK    8  A    between atoms: C10_10  and  O1_11 
REMARK    9  A    between atoms: C10_10  and  O2_12 
ROOT
ATOM      1  C06 DHH d          86.873  43.520  -8.144  0.00  0.00     0.044 C 
ENDROOT
BRANCH   1   2
ATOM      2  C02 DHH d          88.375  43.924  -7.806  0.00  0.00     0.283 C 
BRANCH   2   3
ATOM      3  NP1 DHH d          88.570  43.842  -6.292  0.00  0.00    -0.065 N 
ATOM      4  H1  DHH d          88.250  42.946  -5.960  0.00  0.00     0.275 HD
ATOM      5  H2  DHH d          88.041  44.574  -5.845  0.00  0.00     0.275 HD
ATOM      6  H3  DHH d          89.548  43.952  -6.073  0.00  0.00     0.275 HD
ENDBRANCH   2   3
BRANCH   2   7
ATOM      7  C03 DHH d          88.826  45.229  -8.385  0.00  0.00     0.204 C 
ATOM      8  O04 DHH d          88.968  45.482  -9.561  0.00  0.00    -0.646 OA
ATOM      9  O05 DHH d          88.960  46.131  -7.417  0.00  0.00    -0.646 OA
ENDBRANCH   2   7
ENDBRANCH   1   2
BRANCH   1  10
ATOM     10  C07 DHH d          85.927  44.767  -8.239  0.00  0.00     0.003 C 
BRANCH  10  11
ATOM     11  C08 DHH d          84.526  44.226  -8.556  0.00  0.00     0.005 C 
BRANCH  11  12
ATOM     12  C09 DHH d          83.555  44.991  -7.706  0.00  0.00     0.060 C 
BRANCH  12  13
ATOM     13  C10 DHH d          82.114  44.839  -8.150  0.00  0.00     0.253 C 
BRANCH  13  14
ATOM     14  O1  DHH d          81.376  44.679  -6.992  0.00  0.00    -0.371 OA
ATOM     15  H14 DHH d          80.456  44.597  -7.213  0.00  0.00     0.212 HD
ENDBRANCH  13  14
BRANCH  13  16
ATOM     16  O2  DHH d          81.548  46.025  -8.664  0.00  0.00    -0.371 OA
ATOM     17  H15 DHH d          80.620  45.891  -8.819  0.00  0.00     0.212 HD
ENDBRANCH  13  16
ENDBRANCH  12  13
ENDBRANCH  11  12
ENDBRANCH  10  11
ENDBRANCH   1  10
TORSDOF 9
