REMARK  15 active torsions:
REMARK  status: ('A' for Active; 'I' for Inactive)
REMARK    1  A    between atoms: O2_20  and  C1_1 
REMARK    2  A    between atoms: C2_2  and  O2_7 
REMARK    3  A    between atoms: C3_3  and  O3_8 
REMARK    4  A    between atoms: C4_4  and  O4_9 
REMARK    5  A    between atoms: C5_5  and  C6_6 
REMARK    6  A    between atoms: C6_6  and  O6_11 
REMARK    7  A    between atoms: C1_12  and  O1_19 
REMARK    8  A    between atoms: C2_13  and  O2_20 
REMARK    9  A    between atoms: O3_21  and  C3_14 
REMARK   10  A    between atoms: C4_15  and  O4_22 
REMARK   11  A    between atoms: C5_16  and  C6_17 
REMARK   12  A    between atoms: C6_17  and  O6_24 
REMARK   13  A    between atoms: O3_21  and  C1_25 
REMARK   14  A    between atoms: C2_26  and  O2_31 
REMARK   15  A    between atoms: C4_28  and  O4_32 
ROOT
ATOM      1  C1  MOL d          10.194 -11.642  63.138  0.00  0.00     0.291 C 
ATOM      2  C2  MOL d          11.077 -10.446  62.891  0.00  0.00     0.211 C 
ATOM      3  C3  MOL d          12.294 -10.807  62.050  0.00  0.00     0.190 C 
ATOM      4  C4  MOL d          13.042 -12.017  62.633  0.00  0.00     0.181 C 
ATOM      5  C5  MOL d          12.061 -13.180  62.867  0.00  0.00     0.179 C 
ATOM      6  O5  MOL d          10.985 -12.709  63.670  0.00  0.00    -0.349 OA
ENDROOT
BRANCH   2   7
ATOM      7  O2  MOL d          11.517  -9.966  64.146  0.00  0.00    -0.346 OA
BRANCH   7   8
ATOM      8  C1  MOL d          10.706  -8.905  64.676  0.00  0.00     0.292 C 
ATOM      9  O5  MOL d           9.496  -9.446  65.223  0.00  0.00    -0.348 OA
ATOM     10  C5  MOL d           9.671 -10.203  66.440  0.00  0.00     0.179 C 
ATOM     11  C4  MOL d          10.294  -9.245  67.484  0.00  0.00     0.180 C 
ATOM     12  C3  MOL d          11.675  -8.803  67.006  0.00  0.00     0.183 C 
ATOM     13  C2  MOL d          11.550  -8.139  65.661  0.00  0.00     0.204 C 
BRANCH  10  14
ATOM     14  C6  MOL d           8.320 -10.798  66.899  0.00  0.00     0.198 C 
BRANCH  14  15
ATOM     15  O6  MOL d           8.007 -11.968  66.150  0.00  0.00    -0.398 OA
ATOM     16  H11 MOL d           7.175 -12.319  66.446  0.00  0.00     0.209 HD
ENDBRANCH  14  15
ENDBRANCH  10  14
BRANCH  11  17
ATOM     17  O4  MOL d           9.494  -8.075  67.635  0.00  0.00    -0.390 OA
ATOM     18  H10 MOL d           9.896  -7.498  68.273  0.00  0.00     0.210 HD
ENDBRANCH  11  17
BRANCH  12  19
ATOM     19  O3  MOL d          12.240  -7.849  67.882  0.00  0.00    -0.390 OA
ATOM     20  H9  MOL d          11.671  -7.090  67.932  0.00  0.00     0.210 HD
ENDBRANCH  12  19
BRANCH  13  21
ATOM     21  O2  MOL d          12.848  -8.060  65.163  0.00  0.00    -0.388 OA
ATOM     22  H8  MOL d          13.196  -8.937  65.049  0.00  0.00     0.210 HD
ENDBRANCH  13  21
ENDBRANCH   7   8
ENDBRANCH   2   7
BRANCH   1  23
ATOM     23  O1  MOL d           9.611 -12.002  61.899  0.00  0.00    -0.363 OA
ATOM     24  C7  MOL d           8.488 -12.895  61.917  0.00  0.00     0.204 C 
ENDBRANCH   1  23
BRANCH   3  25
ATOM     25  O3  MOL d          13.177  -9.668  62.031  0.00  0.00    -0.348 OA
BRANCH  25  26
ATOM     26  C1  MOL d          13.727  -9.324  60.732  0.00  0.00     0.289 C 
ATOM     27  O5  MOL d          12.736  -8.770  59.890  0.00  0.00    -0.351 OA
ATOM     28  C5  MOL d          12.217  -7.492  60.277  0.00  0.00     0.149 C 
ATOM     29  C4  MOL d          13.388  -6.513  60.376  0.00  0.00     0.149 C 
ATOM     30  C6  MOL d          11.194  -7.030  59.224  0.00  0.00     0.042 C 
ATOM     31  C3  MOL d          14.386  -7.023  61.420  0.00  0.00     0.071 C 
ATOM     32  C2  MOL d          14.894  -8.388  60.961  0.00  0.00     0.175 C 
BRANCH  29  33
ATOM     33  O4  MOL d          14.026  -6.378  59.100  0.00  0.00    -0.393 OA
ATOM     34  H34 MOL d          14.360  -7.223  58.823  0.00  0.00     0.210 HD
ENDBRANCH  29  33
BRANCH  32  35
ATOM     35  O2  MOL d          15.716  -8.973  61.951  0.00  0.00    -0.391 OA
ATOM     36  H33 MOL d          15.216  -9.084  62.751  0.00  0.00     0.210 HD
ENDBRANCH  32  35
ENDBRANCH  25  26
ENDBRANCH   3  25
BRANCH   4  37
ATOM     37  O4  MOL d          14.083 -12.422  61.760  0.00  0.00    -0.390 OA
ATOM     38  H22 MOL d          14.695 -11.705  61.645  0.00  0.00     0.210 HD
ENDBRANCH   4  37
BRANCH   5  39
ATOM     39  C6  MOL d          12.643 -14.411  63.574  0.00  0.00     0.198 C 
BRANCH  39  40
ATOM     40  O6  MOL d          13.176 -14.025  64.843  0.00  0.00    -0.398 OA
ATOM     41  H23 MOL d          12.484 -13.651  65.376  0.00  0.00     0.209 HD
ENDBRANCH  39  40
ENDBRANCH   5  39
TORSDOF 15
