REMARK  18 active torsions:
REMARK  status: ('A' for Active; 'I' for Inactive)
REMARK       I    between atoms: N_4  and  C_2 
REMARK    1  A    between atoms: CA_5  and  N_4 
REMARK    2  A    between atoms: CA_5  and  C_6 
REMARK    3  A    between atoms: CB_8  and  CA_5 
REMARK       I    between atoms: C_6  and  N_16 
REMARK    4  A    between atoms: CG_9  and  CB_8 
REMARK    5  A    between atoms: OH_15  and  CZ_14 
REMARK    6  A    between atoms: OH_15  and  P_39 
REMARK    7  A    between atoms: N_16  and  CA_17 
REMARK    8  A    between atoms: CA_17  and  C_18 
REMARK    9  A    between atoms: CA_17  and  CB_20 
REMARK       I    between atoms: C_18  and  N_25 
REMARK   10  A    between atoms: CB_20  and  CG_21 
REMARK   11  A    between atoms: CG_21  and  CD_22 
REMARK   12  A    between atoms: N_25  and  CA_26 
REMARK   13  A    between atoms: CA_26  and  C_27 
REMARK   14  A    between atoms: CA_26  and  CB_29 
REMARK       I    between atoms: C_27  and  N_34 
REMARK   15  A    between atoms: CB_29  and  CG_30 
REMARK   16  A    between atoms: CG_30  and  CD_31 
REMARK   17  A    between atoms: N_34  and  CA_35 
REMARK   18  A    between atoms: CA_35  and  C_36 
ROOT
ATOM      1  CA  MOL d          24.769  -1.640   0.882  0.00  0.00     0.177 C 
ENDROOT
BRANCH   1   2
ATOM      2  C   MOL d          24.547  -0.142   0.941  0.00  0.00     0.241 C 
ATOM      3  O   MOL d          25.503   0.628   0.976  0.00  0.00    -0.271 OA
ATOM      4  N   MOL d          23.286   0.270   0.908  0.00  0.00    -0.346 N 
ATOM      5  H18 MOL d          22.557  -0.410   0.834  0.00  0.00     0.163 HD
BRANCH   4   6
ATOM      6  CA  MOL d          22.930   1.680   0.976  0.00  0.00     0.177 C 
BRANCH   6   7
ATOM      7  C   MOL d          22.367   1.939   2.369  0.00  0.00     0.240 C 
ATOM      8  O   MOL d          21.629   1.104   2.904  0.00  0.00    -0.271 OA
ATOM      9  N   MOL d          22.701   3.093   2.933  0.00  0.00    -0.349 N 
ATOM     10  H24 MOL d          23.305   3.720   2.441  0.00  0.00     0.163 HD
BRANCH   9  11
ATOM     11  CA  MOL d          22.210   3.468   4.247  0.00  0.00     0.235 C 
BRANCH  11  12
ATOM     12  C   MOL d          21.160   4.554   4.096  0.00  0.00     0.191 C 
ATOM     13  OXT MOL d          21.131   5.488   4.927  0.00  0.00    -0.647 OA
ATOM     14  O   MOL d          20.385   4.487   3.111  0.00  0.00    -0.647 OA
ENDBRANCH  11  12
ENDBRANCH   9  11
ENDBRANCH   6   7
BRANCH   6  15
ATOM     15  CB  MOL d          21.840   2.002  -0.050  0.00  0.00     0.045 C 
BRANCH  15  16
ATOM     16  CG  MOL d          22.222   1.721  -1.492  0.00  0.00     0.116 C 
BRANCH  16  17
ATOM     17  CD  MOL d          23.209   2.733  -2.056  0.00  0.00     0.172 C 
ATOM     18  OE1 MOL d          23.118   3.932  -1.697  0.00  0.00    -0.648 OA
ATOM     19  OE2 MOL d          24.063   2.337  -2.887  0.00  0.00    -0.648 OA
ENDBRANCH  16  17
ENDBRANCH  15  16
ENDBRANCH   6  15
ENDBRANCH   4   6
ENDBRANCH   1   2
BRANCH   1  20
ATOM     20  CB  MOL d          24.690  -2.232   2.288  0.00  0.00     0.045 C 
BRANCH  20  21
ATOM     21  CG  MOL d          24.302  -3.680   2.299  0.00  0.00     0.116 C 
BRANCH  21  22
ATOM     22  CD  MOL d          22.880  -3.891   1.791  0.00  0.00     0.172 C 
ATOM     23  OE1 MOL d          21.933  -3.372   2.430  0.00  0.00    -0.648 OA
ATOM     24  OE2 MOL d          22.712  -4.565   0.756  0.00  0.00    -0.648 OA
ENDBRANCH  21  22
ENDBRANCH  20  21
ENDBRANCH   1  20
BRANCH   1  25
ATOM     25  N   MOL d          26.094  -1.817   0.348  0.00  0.00    -0.346 N 
ATOM     26  C   MOL d          26.336  -1.977  -0.945  0.00  0.00     0.241 C 
ATOM     27  O   MOL d          25.456  -2.090  -1.805  0.00  0.00    -0.271 OA
ATOM     28  H12 MOL d          26.867  -1.819   0.982  0.00  0.00     0.163 HD
BRANCH  26  29
ATOM     29  CA  MOL d          27.808  -2.081  -1.308  0.00  0.00     0.180 C 
BRANCH  29  30
ATOM     30  CB  MOL d          28.357  -0.679  -1.593  0.00  0.00     0.073 C 
BRANCH  30  31
ATOM     31  CG  MOL d          29.872  -0.626  -1.667  0.00  0.00    -0.056 A 
ATOM     32  CD2 MOL d          30.539  -0.655  -2.898  0.00  0.00     0.010 A 
ATOM     33  CE2 MOL d          31.937  -0.553  -2.963  0.00  0.00     0.038 A 
ATOM     34  CZ  MOL d          32.665  -0.418  -1.785  0.00  0.00     0.082 A 
ATOM     35  CE1 MOL d          32.019  -0.396  -0.557  0.00  0.00     0.038 A 
ATOM     36  CD1 MOL d          30.632  -0.503  -0.507  0.00  0.00     0.010 A 
BRANCH  34  37
ATOM     37  OH  MOL d          34.028  -0.259  -1.833  0.00  0.00    -0.240 OA
BRANCH  37  38
ATOM     38  P   MOL d          35.092  -1.433  -1.551  0.00  0.00     0.427 P 
ATOM     39  O3P MOL d          36.115  -0.710  -0.765  0.00  0.00    -0.617 OA
ATOM     40  O2P MOL d          34.490  -2.496  -0.748  0.00  0.00    -0.617 OA
ATOM     41  O1P MOL d          35.600  -1.987  -2.821  0.00  0.00    -0.617 OA
ENDBRANCH  37  38
ENDBRANCH  34  37
ENDBRANCH  30  31
ENDBRANCH  29  30
BRANCH  29  42
ATOM     42  N   MOL d          28.040  -2.951  -2.439  0.00  0.00    -0.348 N 
ATOM     43  C   MOL d          28.721  -4.085  -2.330  0.00  0.00     0.214 C 
ATOM     44  CA  MOL d          28.927  -4.924  -3.580  0.00  0.00     0.117 C 
ATOM     45  O   MOL d          29.173  -4.497  -1.256  0.00  0.00    -0.274 OA
ATOM     46  H4  MOL d          27.675  -2.690  -3.333  0.00  0.00     0.163 HD
ENDBRANCH  29  42
ENDBRANCH  26  29
ENDBRANCH   1  25
TORSDOF 18
