REMARK  3 active torsions:
REMARK  status: ('A' for Active; 'I' for Inactive)
REMARK    1  A    between atoms: P_1  and  O1P_2 
REMARK    2  A    between atoms: O1P_2  and  C2_6 
REMARK    3  A    between atoms: C2_6  and  C1_7 
ROOT
ATOM      1  O1P PGA d          -2.244 -18.325 -35.520  0.00  0.00    -0.272 OA
ENDROOT
BRANCH   1   2
ATOM      2  P   PGA d          -1.693 -19.840 -35.563  0.00  0.00     0.422 P 
ATOM      3  O2P PGA d          -2.546 -20.600 -36.542  0.00  0.00    -0.617 OA
ATOM      4  O3P PGA d          -0.255 -19.770 -36.021  0.00  0.00    -0.617 OA
ATOM      5  O4P PGA d          -1.765 -20.406 -34.165  0.00  0.00    -0.617 OA
ENDBRANCH   1   2
BRANCH   1   6
ATOM      6  C2  PGA d          -3.522 -18.018 -34.998  0.00  0.00     0.295 C 
BRANCH   6   7
ATOM      7  C1  PGA d          -3.907 -16.628 -35.450  0.00  0.00     0.198 C 
ATOM      8  O1  PGA d          -5.094 -16.322 -35.650  0.00  0.00    -0.646 OA
ATOM      9  O2  PGA d          -3.032 -15.758 -35.630  0.00  0.00    -0.646 OA
ENDBRANCH   6   7
ENDBRANCH   1   6
TORSDOF 3
