3sbh_ligand

Created by X-TOOL on Fri Sep 26 17:34:54 2014
 37 38  0  0  0  0  0  0  0  0999 V2000
   -1.3560    9.0120   11.4600  N 0  0  0  1  0  2
   -1.5440    7.8500   12.1120  C 0  0  0  1  0  3
   -1.4420    7.9540   13.4360  N 0  0  0  1  0  2
   -1.1900    9.0050   14.1490  C 0  0  0  1  0  3
   -1.0020   10.2410   13.5110  C 0  0  0  2  0  3
   -1.0940   10.1920   12.1250  C 0  0  0  1  0  3
   -1.8870    6.1790   11.4530  S 0  0  0  1  0  2
   -2.0450    5.1780   12.9480  C 0  0  0  3  0  4
   -3.5030    5.2490   13.3330  C 0  0  0  1  0  3
   -4.1950    6.0990   12.8090  O 0  0  0  1  0  1
   -1.1360    8.7320   15.5790  C 0  0  0  4  0  4
   -0.8980   11.4970   11.3900  C 0  0  0  4  0  4
   -4.1800    4.2360   14.2170  C 0  0  0  1  0  3
   -3.3950    3.1790   14.5780  C 0  0  0  2  0  3
   -3.9210    2.1820   15.4310  C 0  0  0  2  0  3
   -5.2530    2.2380   15.7830  C 0  0  0  1  0  3
   -6.0630    3.2960   15.3870  C 0  0  0  2  0  3
   -5.5460    4.3270   14.5820  C 0  0  0  2  0  3
   -5.9030    0.8760   16.7610  S 0  0  0  1  0  4
   -7.3790    0.8960   16.5530  O 0  0  0  1  0  1
   -5.3080    1.0000   18.0900  O 0  0  0  1  0  1
   -5.2190   -0.4730   16.0140  N 0  0  0  3  0  3
   -0.8017   11.1575   14.0540  H 0  0  0  1  0  1
   -1.4154    5.5869   13.7520  H 0  0  0  1  0  1
   -1.7517    4.1373   12.7459  H 0  0  0  1  0  1
   -0.9192    9.6636   16.1222  H 0  0  0  1  0  1
   -0.3439    7.9963   15.7822  H 0  0  0  1  0  1
   -2.1041    8.3300   15.9124  H 0  0  0  1  0  1
   -0.7022   12.3005   12.1153  H 0  0  0  1  0  1
   -1.8058   11.7345   10.8159  H 0  0  0  1  0  1
   -0.0433   11.4065   10.7036  H 0  0  0  1  0  1
   -2.3768    3.1049   14.2136  H 0  0  0  1  0  1
   -3.2867    1.3854   15.8028  H 0  0  0  1  0  1
   -7.1002    3.3267   15.7007  H 0  0  0  1  0  1
   -6.1652    5.1546   14.2553  H 0  0  0  1  0  1
   -5.4156   -1.3900   16.3610  H 0  0  0  1  0  1
   -4.6170   -0.3556   15.2242  H 0  0  0  1  0  1
  1  2  4  0  0  1
  1  6  4  0  0  1
  2  3  4  0  0  1
  2  7  1  0  0  2
  3  4  4  0  0  1
  4  5  4  0  0  1
  4 11  1  0  0  2
  5  6  4  0  0  1
  6 12  1  0  0  2
  7  8  1  0  0  2
  8  9  1  0  0  2
  9 10  2  0  0  2
  9 13  1  0  0  2
 13 14  4  0  0  1
 13 18  4  0  0  1
 14 15  4  0  0  1
 15 16  4  0  0  1
 16 17  4  0  0  1
 16 19  1  0  0  2
 17 18  4  0  0  1
 19 20  2  0  0  2
 19 21  2  0  0  2
 19 22  1  0  0  2
  5 23  1  0  0  2
  8 24  1  0  0  2
  8 25  1  0  0  2
 11 26  1  0  0  2
 11 27  1  0  0  2
 11 28  1  0  0  2
 12 29  1  0  0  2
 12 30  1  0  0  2
 12 31  1  0  0  2
 14 32  1  0  0  2
 15 33  1  0  0  2
 17 34  1  0  0  2
 18 35  1  0  0  2
 22 36  1  0  0  2
 22 37  1  0  0  2
M  END
> <MOLECULAR_FORMULA>
C14H15N3O3S2

> <MOLECULAR_WEIGHT>
337.3

> <NUM_HB_ATOMS>
7  

> <NUM_ROTOR>
4  

> <XLOGP2>
1.73 

$$$$
