REMARK  9 active torsions:
REMARK  status: ('A' for Active; 'I' for Inactive)
REMARK    1  A    between atoms: CAR_18  and  SAC_3 
REMARK    2  A    between atoms: CAK_11  and  CAJ_10 
REMARK    3  A    between atoms: CAJ_10  and  CAL_12 
REMARK    4  A    between atoms: NAN_14  and  CAK_11 
REMARK    5  A    between atoms: CAL_12  and  NAV_22 
REMARK    6  A    between atoms: CAR_18  and  NAN_14 
REMARK    7  A    between atoms: CAS_19  and  NAO_15 
REMARK    8  A    between atoms: CAT_20  and  OAP_16 
REMARK    9  A    between atoms: OAQ_17  and  CAU_21 
ROOT
ATOM      1  NAO PBD d           2.297  74.918   6.908  0.00  0.00    -0.225 NA
ATOM      2  CAR PBD d           1.086  75.113   7.494  0.00  0.00     0.160 C 
ENDROOT
BRANCH   2   3
ATOM      3  SAC PBD d           0.977  74.884   9.229  0.00  0.00    -0.105 SA
ATOM      4  H7  PBD d           1.883  74.633   9.591  0.00  0.00     0.110 HD
ENDBRANCH   2   3
BRANCH   2   5
ATOM      5  NAN PBD d          -0.012  75.461   6.755  0.00  0.00    -0.369 N 
ATOM      6  H20 PBD d           0.123  75.626   5.747  0.00  0.00     0.161 HD
BRANCH   5   7
ATOM      7  CAK PBD d          -1.371  75.617   7.296  0.00  0.00     0.123 C 
BRANCH   7   8
ATOM      8  CAJ PBD d          -2.266  75.621   6.055  0.00  0.00     0.040 C 
BRANCH   8   9
ATOM      9  CAL PBD d          -3.663  76.000   6.541  0.00  0.00     0.131 C 
BRANCH   9  10
ATOM     10  NAV PBD d          -4.507  75.995   5.330  0.00  0.00    -0.350 N 
ATOM     11  CAG PBD d          -4.994  74.875   4.741  0.00  0.00     0.111 A 
ATOM     12  CAD PBD d          -5.627  75.309   3.637  0.00  0.00     0.135 A 
ATOM     13  NAM PBD d          -5.521  76.673   3.620  0.00  0.00    -0.255 NA
ATOM     14  CAH PBD d          -4.771  77.100   4.612  0.00  0.00     0.209 A 
ENDBRANCH   9  10
ENDBRANCH   8   9
ENDBRANCH   7   8
ENDBRANCH   5   7
ENDBRANCH   2   5
BRANCH   1  15
ATOM     15  CAS PBD d           2.542  75.016   5.616  0.00  0.00     0.062 A 
ATOM     16  CAE PBD d           2.405  76.267   4.999  0.00  0.00     0.034 A 
ATOM     17  CAF PBD d           2.698  76.412   3.643  0.00  0.00     0.042 A 
ATOM     18  CAT PBD d           3.092  75.272   2.933  0.00  0.00     0.101 A 
ATOM     19  CAU PBD d           3.239  74.032   3.505  0.00  0.00     0.103 A 
ATOM     20  CAI PBD d           2.957  73.886   4.868  0.00  0.00     0.071 A 
BRANCH  18  21
ATOM     21  OAP PBD d           3.384  75.260   1.616  0.00  0.00    -0.353 OA
ATOM     22  CAA PBD d           3.404  76.531   1.034  0.00  0.00     0.210 C 
ENDBRANCH  18  21
BRANCH  19  23
ATOM     23  OAQ PBD d           3.661  73.025   2.641  0.00  0.00    -0.353 OA
ATOM     24  CAB PBD d           3.619  71.674   3.284  0.00  0.00     0.210 C 
ENDBRANCH  19  23
ENDBRANCH   1  15
TORSDOF 9
