REMARK  5 active torsions:
REMARK  status: ('A' for Active; 'I' for Inactive)
REMARK    1  A    between atoms: C03_3  and  S11_11 
REMARK    2  A    between atoms: C06_6  and  C07_7 
REMARK       I    between atoms: C07_7  and  N09_9 
REMARK    3  A    between atoms: N09_9  and  C10_10 
REMARK    4  A    between atoms: C10_10  and  C15_15 
REMARK    5  A    between atoms: S11_11  and  NP2_12 
ROOT
ATOM      1  C07 F2B d          -4.199   5.715  13.500  0.00  0.00     0.251 C 
ATOM      2  O08 F2B d          -4.977   6.623  13.303  0.00  0.00    -0.268 OA
ATOM      3  N09 F2B d          -2.891   5.760  13.011  0.00  0.00    -0.353 N 
ATOM      4  H5  F2B d          -2.323   4.963  13.217  0.00  0.00     0.163 HD
ENDROOT
BRANCH   1   5
ATOM      5  C06 F2B d          -4.678   4.526  14.297  0.00  0.00     0.032 A 
ATOM      6  C01 F2B d          -3.821   3.448  14.538  0.00  0.00     0.018 A 
ATOM      7  C02 F2B d          -4.218   2.309  15.275  0.00  0.00     0.026 A 
ATOM      8  C03 F2B d          -5.538   2.265  15.792  0.00  0.00     0.079 A 
ATOM      9  C04 F2B d          -6.382   3.364  15.537  0.00  0.00     0.026 A 
ATOM     10  C05 F2B d          -5.953   4.479  14.795  0.00  0.00     0.018 A 
BRANCH   8  11
ATOM     11  S11 F2B d          -6.000   0.771  16.737  0.00  0.00     0.256 S 
ATOM     12  O14 F2B d          -5.426   1.053  18.077  0.00  0.00    -0.201 OA
ATOM     13  O13 F2B d          -7.505   1.054  16.838  0.00  0.00    -0.201 OA
BRANCH  11  14
ATOM     14  NP2 F2B d          -5.522  -0.523  16.045  0.00  0.00    -0.324 N 
ATOM     15  H8  F2B d          -5.712  -1.412  16.461  0.00  0.00     0.169 HD
ATOM     16  H9  F2B d          -5.022  -0.472  15.180  0.00  0.00     0.169 HD
ENDBRANCH  11  14
ENDBRANCH   8  11
ENDBRANCH   1   5
BRANCH   3  17
ATOM     17  C10 F2B d          -2.237   6.827  12.232  0.00  0.00     0.164 C 
BRANCH  17  18
ATOM     18  C15 F2B d          -1.869   8.032  12.906  0.00  0.00     0.001 A 
ATOM     19  C20 F2B d          -1.823   9.293  12.236  0.00  0.00     0.162 A 
ATOM     20  C19 F2B d          -1.448  10.472  12.982  0.00  0.00     0.155 A 
ATOM     21  F22 F2B d          -2.122   9.396  10.934  0.00  0.00    -0.202 F 
ATOM     22  C18 F2B d          -1.129  10.351  14.376  0.00  0.00     0.045 A 
ATOM     23  F21 F2B d          -1.393  11.672  12.388  0.00  0.00    -0.203 F 
ATOM     24  C17 F2B d          -1.174   9.107  15.043  0.00  0.00     0.004 A 
ATOM     25  C16 F2B d          -1.547   7.960  14.286  0.00  0.00     0.012 A 
ENDBRANCH  17  18
ENDBRANCH   3  17
TORSDOF 5
