REMARK  6 active torsions:
REMARK  status: ('A' for Active; 'I' for Inactive)
REMARK    1  A    between atoms: C13_1  and  C17_2 
REMARK    2  A    between atoms: C17_2  and  N18_22 
REMARK    3  A    between atoms: C19_5  and  C21_6 
REMARK       I    between atoms: N18_22  and  C19_5 
REMARK    4  A    between atoms: C21_6  and  O22_24 
REMARK    5  A    between atoms: C9_18  and  C11_8 
REMARK    6  A    between atoms: C25_26  and  N26_27 
ROOT
ATOM      1  N1  MOL d           9.409  -3.935   2.191  0.00  0.00    -0.343 N 
ATOM      2  C2  MOL d           9.210  -5.260   1.968  0.00  0.00     0.210 A 
ATOM      3  N3  MOL d           9.988  -5.786   1.052  0.00  0.00    -0.238 NA
ATOM      4  C4  MOL d          10.760  -4.719   0.620  0.00  0.00     0.131 A 
ATOM      5  C5  MOL d          10.415  -3.558   1.332  0.00  0.00     0.082 A 
ATOM      6  C6  MOL d          11.003  -2.303   1.113  0.00  0.00     0.042 A 
ATOM      7  C7  MOL d          11.956  -2.328   0.083  0.00  0.00     0.143 A 
ATOM      8  N8  MOL d          12.439  -1.050  -0.096  0.00  0.00    -0.338 N 
ATOM      9  C9  MOL d          11.847  -0.223   0.843  0.00  0.00     0.063 A 
ATOM     10  C10 MOL d          10.960  -0.954   1.582  0.00  0.00     0.049 A 
ATOM     11  N24 MOL d          12.326  -3.418  -0.617  0.00  0.00    -0.210 NA
ATOM     12  C25 MOL d          11.759  -4.615  -0.382  0.00  0.00     0.157 A 
ATOM     13  C28 MOL d           8.727  -3.081   3.159  0.00  0.00     0.157 C 
ATOM     14  H   MOL d          13.124  -0.759  -0.808  0.00  0.00     0.167 HD
ENDROOT
BRANCH   9  15
ATOM     15  C11 MOL d          12.071   1.228   0.883  0.00  0.00     0.084 A 
ATOM     16  C16 MOL d          11.588   2.011   1.918  0.00  0.00     0.034 A 
ATOM     17  C15 MOL d          11.868   3.370   1.897  0.00  0.00     0.004 A 
ATOM     18  C14 MOL d          12.560   3.916   0.826  0.00  0.00     0.029 A 
ATOM     19  C13 MOL d          12.960   3.074  -0.204  0.00  0.00     0.053 A 
ATOM     20  N12 MOL d          12.727   1.742  -0.170  0.00  0.00    -0.250 NA
BRANCH  19  21
ATOM     21  C17 MOL d          13.646   3.597  -1.444  0.00  0.00     0.181 C 
BRANCH  21  22
ATOM     22  N18 MOL d          14.953   2.998  -1.671  0.00  0.00    -0.354 N 
ATOM     23  C19 MOL d          15.430   2.692  -2.884  0.00  0.00     0.241 C 
ATOM     24  O20 MOL d          14.810   2.878  -3.930  0.00  0.00    -0.271 OA
ATOM     25  H   MOL d          15.527   2.804  -0.876  0.00  0.00     0.162 HD
BRANCH  23  26
ATOM     26  C21 MOL d          16.813   2.089  -2.944  0.00  0.00     0.269 C 
BRANCH  26  27
ATOM     27  O22 MOL d          16.579   0.690  -2.961  0.00  0.00    -0.387 OA
ATOM     28  C23 MOL d          17.246  -0.024  -1.923  0.00  0.00     0.202 C 
ENDBRANCH  26  27
ENDBRANCH  23  26
ENDBRANCH  21  22
ENDBRANCH  19  21
ENDBRANCH   9  15
BRANCH  12  29
ATOM     29  N26 MOL d          12.123  -5.671  -1.122  0.00  0.00    -0.377 N 
ATOM     30  C27 MOL d          13.145  -5.611  -2.147  0.00  0.00     0.148 C 
ATOM     31  H   MOL d          11.652  -6.571  -0.954  0.00  0.00     0.160 HD
ENDBRANCH  12  29
TORSDOF 6
