1tcw_ligand

Created by X-TOOL on Fri Sep 26 17:34:12 2014
 81 83  0  0  0  0  0  0  0  0999 V2000
   65.6370   22.3890   28.2640  C 0  0  0  1  0  4
   66.4690   22.3900   29.5510  C 0  0  0  4  0  4
   64.9440   23.7470   28.1780  C 0  0  0  4  0  4
   66.5690   22.2510   27.0450  C 0  0  0  4  0  4
   63.4510   21.2840   27.7980  C 0  0  0  1  0  3
   62.0830   21.3250   25.7240  C 0  0  0  2  0  4
   61.9880   22.4480   24.6670  C 0  0  0  3  0  4
   60.6020   23.0890   24.6590  C 0  0  0  1  0  3
   60.0290   23.5620   25.8610  C 0  0  0  2  0  3
   58.7370   24.1140   25.8670  C 0  0  0  2  0  3
   58.0150   24.1990   24.6770  C 0  0  0  2  0  3
   58.5790   23.7350   23.4860  C 0  0  0  2  0  3
   59.8660   23.1830   23.4720  C 0  0  0  2  0  3
   61.8830   19.9970   25.0350  C 0  0  0  2  0  4
   62.4620   19.7030   23.6640  C 0  0  0  3  0  4
   61.9020   18.3270   23.3700  C 0  0  0  2  0  4
   61.3720   18.1750   21.9860  C 0  0  0  3  0  4
   62.1540   18.5930   20.8150  C 0  0  0  1  0  3
   63.0280   17.6860   20.2520  C 0  0  0  2  0  3
   63.6660   18.0540   19.0690  C 0  0  0  2  0  3
   63.4180   19.3030   18.4860  C 0  0  0  2  0  3
   62.5310   20.2060   19.0850  C 0  0  0  2  0  3
   61.8930   19.8490   20.2640  C 0  0  0  2  0  3
   62.7460   17.1140   23.5930  C 0  0  0  1  0  3
   62.5800   14.9710   24.5610  C 0  0  0  2  0  4
   62.6790   14.9710   26.1200  C 0  0  0  2  0  4
   63.6280   13.8950   26.5310  C 0  0  0  4  0  4
   63.3690   16.2190   26.6700  C 0  0  0  4  0  4
   61.7940   13.8380   23.9510  C 0  0  0  1  0  3
   61.5510   12.2910   22.4790  C 0  0  0  2  0  3
   60.4080   12.4230   23.2800  C 0  0  0  2  0  3
   63.3410   21.3520   26.4480  N 0  0  0  2  0  3
   61.9740   16.2250   24.1970  N 0  0  0  2  0  3
   62.4300   13.2360   22.9460  N 0  0  0  2  0  3
   60.5870   13.4280   24.2190  N 0  0  0  1  0  2
   64.7250   21.3180   28.3790  O 0  0  0  1  0  2
   62.5170   21.1780   28.6050  O 0  0  0  1  0  1
   60.4760   19.7980   24.9850  O 0  0  0  2  0  2
   63.9440   16.9470   23.3270  O 0  0  0  1  0  1
   67.2007   23.2105   29.5139  H 0  0  0  1  0  1
   66.9986   21.4306   29.6460  H 0  0  0  1  0  1
   65.8050   22.5297   30.4168  H 0  0  0  1  0  1
   65.7012   24.5401   28.0902  H 0  0  0  1  0  1
   64.3448   23.9111   29.0858  H 0  0  0  1  0  1
   64.2869   23.7682   27.2961  H 0  0  0  1  0  1
   67.2541   23.1108   27.0081  H 0  0  0  1  0  1
   65.9672   22.2219   26.1247  H 0  0  0  1  0  1
   67.1512   21.3218   27.1319  H 0  0  0  1  0  1
   61.2717   21.4673   26.4530  H 0  0  0  1  0  1
   62.1913   22.0225   23.6732  H 0  0  0  1  0  1
   62.7379   23.2195   24.8959  H 0  0  0  1  0  1
   60.5908   23.4984   26.7859  H 0  0  0  1  0  1
   58.3030   24.4725   26.7934  H 0  0  0  1  0  1
   57.0179   24.6243   24.6761  H 0  0  0  1  0  1
   58.0145   23.8030   22.5631  H 0  0  0  1  0  1
   60.2927   22.8281   22.5409  H 0  0  0  1  0  1
   62.3215   19.2419   25.7040  H 0  0  0  1  0  1
   63.5616   19.6891   23.6898  H 0  0  0  1  0  1
   62.1219   20.4393   22.9209  H 0  0  0  1  0  1
   61.0482   18.2304   24.0567  H 0  0  0  1  0  1
   60.4310   18.7434   21.9498  H 0  0  0  1  0  1
   61.1591   17.1043   21.8509  H 0  0  0  1  0  1
   63.2117   16.7223   20.7131  H 0  0  0  1  0  1
   64.3597   17.3681   18.5963  H 0  0  0  1  0  1
   63.9173   19.5732   17.5625  H 0  0  0  1  0  1
   62.3450   21.1733   18.6324  H 0  0  0  1  0  1
   61.2048   20.5323   20.7483  H 0  0  0  1  0  1
   63.6003   14.9243   24.1527  H 0  0  0  1  0  1
   61.6803   14.8378   26.5615  H 0  0  0  1  0  1
   63.7114   13.8790   27.6277  H 0  0  0  1  0  1
   64.6170   14.0905   26.0909  H 0  0  0  1  0  1
   63.2551   12.9224   26.1774  H 0  0  0  1  0  1
   62.7643   17.1068   26.4331  H 0  0  0  1  0  1
   64.3638   16.3201   26.2116  H 0  0  0  1  0  1
   63.4754   16.1284   27.7611  H 0  0  0  1  0  1
   61.7078   11.5890   21.6614  H 0  0  0  1  0  1
   59.5062   11.8210   23.1791  H 0  0  0  1  0  1
   64.1839   21.4258   25.9150  H 0  0  0  1  0  1
   61.0120   16.4159   24.3920  H 0  0  0  1  0  1
   63.3774   13.4368   22.5953  H 0  0  0  1  0  1
   60.2894   18.9702   24.5579  H 0  0  0  1  0  1
  1 36  1  0  0  2
  1  4  1  0  0  2
  1  3  1  0  0  2
  1  2  1  0  0  2
 36  5  1  0  0  2
  5 37  2  0  0  2
  5 32  1  0  0  2
 32  6  1  0  0  2
  6 14  1  0  0  2
  6  7  1  0  0  2
  7  8  1  0  0  2
  8 13  4  0  0  1
  8  9  4  0  0  1
  9 10  4  0  0  1
 10 11  4  0  0  1
 11 12  4  0  0  1
 12 13  4  0  0  1
 14 38  1  0  0  2
 14 15  1  0  0  2
 15 16  1  0  0  2
 16 24  1  0  0  2
 16 17  1  0  0  2
 17 18  1  0  0  2
 18 23  4  0  0  1
 18 19  4  0  0  1
 19 20  4  0  0  1
 20 21  4  0  0  1
 21 22  4  0  0  1
 22 23  4  0  0  1
 24 39  2  0  0  2
 24 33  1  0  0  2
 33 25  1  0  0  2
 25 29  1  0  0  2
 25 26  1  0  0  2
 26 28  1  0  0  2
 26 27  1  0  0  2
 29 35  2  0  0  1
 29 34  1  0  0  1
 34 30  1  0  0  1
 30 31  2  0  0  1
 31 35  1  0  0  1
  2 40  1  0  0  2
  2 41  1  0  0  2
  2 42  1  0  0  2
  3 43  1  0  0  2
  3 44  1  0  0  2
  3 45  1  0  0  2
  4 46  1  0  0  2
  4 47  1  0  0  2
  4 48  1  0  0  2
  6 49  1  0  0  2
  7 50  1  0  0  2
  7 51  1  0  0  2
  9 52  1  0  0  2
 10 53  1  0  0  2
 11 54  1  0  0  2
 12 55  1  0  0  2
 13 56  1  0  0  2
 14 57  1  0  0  2
 15 58  1  0  0  2
 15 59  1  0  0  2
 16 60  1  0  0  2
 17 61  1  0  0  2
 17 62  1  0  0  2
 19 63  1  0  0  2
 20 64  1  0  0  2
 21 65  1  0  0  2
 22 66  1  0  0  2
 23 67  1  0  0  2
 25 68  1  0  0  2
 26 69  1  0  0  2
 27 70  1  0  0  2
 27 71  1  0  0  2
 27 72  1  0  0  2
 28 73  1  0  0  2
 28 74  1  0  0  2
 28 75  1  0  0  2
 30 76  1  0  0  2
 31 77  1  0  0  2
 32 78  1  0  0  2
 33 79  1  0  0  2
 34 80  1  0  0  2
 38 81  1  0  0  2
M  END
> <MOLECULAR_FORMULA>
C31H42N4O4

> <MOLECULAR_WEIGHT>
534.4

> <NUM_HB_ATOMS>
8  

> <NUM_ROTOR>
13 

> <XLOGP2>
4.97 

$$$$
