REMARK  10 active torsions:
REMARK  status: ('A' for Active; 'I' for Inactive)
REMARK    1  A    between atoms: CBB_3  and  CAV_4 
REMARK    2  A    between atoms: CBB_3  and  NAT_7 
REMARK       I    between atoms: NAT_7  and  CAW_8 
REMARK       I    between atoms: CAW_8  and  N_10 
REMARK    3  A    between atoms: N_10  and  CA_11 
REMARK    4  A    between atoms: CA_11  and  C_12 
REMARK    5  A    between atoms: CA_11  and  CB_15 
REMARK    6  A    between atoms: CB_15  and  CAM_16 
REMARK    7  A    between atoms: CAM_16  and  CAL_17 
REMARK    8  A    between atoms: CAL_17  and  CAN_18 
REMARK    9  A    between atoms: CAN_18  and  NAR_19 
REMARK       I    between atoms: NAR_19  and  CAX_20 
REMARK   10  A    between atoms: CAX_20  and  CAZ_22 
ROOT
ATOM      1  CA  MOL d          19.971  44.707  44.371  0.00  0.00     0.187 C 
ENDROOT
BRANCH   1   2
ATOM      2  N   MOL d          18.720  45.150  43.800  0.00  0.00    -0.329 N 
ATOM      3  CAW MOL d          18.074  44.597  42.760  0.00  0.00     0.317 C 
ATOM      4  NAT MOL d          16.950  45.259  42.369  0.00  0.00    -0.324 N 
ATOM      5  OAC MOL d          18.424  43.510  42.271  0.00  0.00    -0.247 OA
ATOM      6  H   MOL d          16.636  46.035  42.916  0.00  0.00     0.165 HD
ATOM      7  H   MOL d          18.292  45.949  44.222  0.00  0.00     0.165 HD
BRANCH   4   8
ATOM      8  CBB MOL d          16.167  44.873  41.156  0.00  0.00     0.123 A 
ATOM      9  CAP MOL d          15.297  43.663  41.387  0.00  0.00     0.045 A 
ATOM     10  CAQ MOL d          14.750  45.058  41.155  0.00  0.00     0.045 A 
BRANCH   8  11
ATOM     11  CAV MOL d          17.099  44.722  40.065  0.00  0.00     0.202 C 
ATOM     12  OAF MOL d          16.808  43.855  39.195  0.00  0.00    -0.646 OA
ATOM     13  OAB MOL d          18.102  45.451  40.041  0.00  0.00    -0.646 OA
ENDBRANCH   8  11
ENDBRANCH   4   8
ENDBRANCH   1   2
BRANCH   1  14
ATOM     14  C   MOL d          20.115  45.436  45.736  0.00  0.00     0.196 C 
ATOM     15  OXT MOL d          20.664  44.728  46.637  0.00  0.00    -0.646 OA
ATOM     16  O   MOL d          19.671  46.655  45.823  0.00  0.00    -0.646 OA
ENDBRANCH   1  14
BRANCH   1  17
ATOM     17  CB  MOL d          20.999  45.315  43.335  0.00  0.00     0.036 C 
BRANCH  17  18
ATOM     18  CAM MOL d          22.493  45.311  43.672  0.00  0.00     0.004 C 
BRANCH  18  19
ATOM     19  CAL MOL d          23.289  45.960  42.491  0.00  0.00     0.020 C 
BRANCH  19  20
ATOM     20  CAN MOL d          23.496  47.496  42.650  0.00  0.00     0.123 C 
BRANCH  20  21
ATOM     21  NAR MOL d          23.670  47.902  44.075  0.00  0.00    -0.357 N 
ATOM     22  CAX MOL d          23.219  49.061  44.592  0.00  0.00     0.251 C 
ATOM     23  OAD MOL d          22.578  49.873  43.910  0.00  0.00    -0.268 OA
ATOM     24  H   MOL d          24.152  47.273  44.685  0.00  0.00     0.162 HD
BRANCH  22  25
ATOM     25  CAZ MOL d          23.359  49.283  46.142  0.00  0.00     0.032 A 
ATOM     26  CAJ MOL d          23.368  50.589  46.686  0.00  0.00     0.018 A 
ATOM     27  CAH MOL d          23.466  50.809  48.084  0.00  0.00     0.019 A 
ATOM     28  CAY MOL d          23.535  49.762  49.018  0.00  0.00     0.006 A 
ATOM     29  IAG MOL d          23.663  50.140  51.187  0.00  0.00    -0.045 I 
ATOM     30  CAI MOL d          23.513  48.464  48.471  0.00  0.00     0.019 A 
ATOM     31  CAK MOL d          23.422  48.222  47.068  0.00  0.00     0.018 A 
ENDBRANCH  22  25
ENDBRANCH  20  21
ENDBRANCH  19  20
ENDBRANCH  18  19
ENDBRANCH  17  18
ENDBRANCH   1  17
TORSDOF 10
