REMARK  6 active torsions:
REMARK  status: ('A' for Active; 'I' for Inactive)
REMARK    1  A    between atoms: O5'_1  and  C5'_2 
REMARK    2  A    between atoms: C5'_2  and  C4'_3 
REMARK    3  A    between atoms: C1'_5  and  N1_6 
REMARK    4  A    between atoms: C2'_14  and  O2'_15 
REMARK    5  A    between atoms: O2'_15  and  P_16 
REMARK    6  A    between atoms: C3'_20  and  O3'_21 
ROOT
ATOM      1  C4' U2P d          39.194   0.569  23.538  0.00  0.00     0.179 C 
ATOM      2  O4' U2P d          38.419   1.229  24.571  0.00  0.00    -0.353 OA
ATOM      3  C1' U2P d          37.047   0.886  24.436  0.00  0.00     0.264 C 
ATOM      4  C2' U2P d          36.951  -0.168  23.326  0.00  0.00     0.216 C 
ATOM      5  C3' U2P d          38.170   0.194  22.479  0.00  0.00     0.183 C 
ENDROOT
BRANCH   3   6
ATOM      6  N1  U2P d          36.288   2.130  24.215  0.00  0.00    -0.280 N 
ATOM      7  C6  U2P d          36.754   3.113  23.370  0.00  0.00     0.104 A 
ATOM      8  C5  U2P d          36.112   4.270  23.180  0.00  0.00     0.092 A 
ATOM      9  C4  U2P d          34.887   4.523  23.870  0.00  0.00     0.250 A 
ATOM     10  O4  U2P d          34.224   5.558  23.805  0.00  0.00    -0.268 OA
ATOM     11  N3  U2P d          34.463   3.495  24.688  0.00  0.00    -0.275 N 
ATOM     12  C2  U2P d          35.091   2.293  24.900  0.00  0.00     0.331 A 
ATOM     13  H8  U2P d          33.605   3.642  25.180  0.00  0.00     0.173 HD
ATOM     14  O2  U2P d          34.620   1.440  25.636  0.00  0.00    -0.246 OA
ENDBRANCH   3   6
BRANCH   4  15
ATOM     15  O2' U2P d          37.061  -1.436  23.955  0.00  0.00    -0.270 OA
BRANCH  15  16
ATOM     16  P   U2P d          36.475  -2.759  23.247  0.00  0.00     0.422 P 
ATOM     17  O1P U2P d          37.230  -2.947  21.940  0.00  0.00    -0.617 OA
ATOM     18  O2P U2P d          36.757  -3.876  24.238  0.00  0.00    -0.617 OA
ATOM     19  O3P U2P d          34.983  -2.535  23.043  0.00  0.00    -0.617 OA
ENDBRANCH  15  16
ENDBRANCH   4  15
BRANCH   1  20
ATOM     20  C5' U2P d          40.314   1.479  23.084  0.00  0.00     0.198 C 
BRANCH  20  21
ATOM     21  O5' U2P d          39.783   2.730  22.605  0.00  0.00    -0.398 OA
ATOM     22  H1  U2P d          39.301   3.157  23.304  0.00  0.00     0.209 HD
ENDBRANCH  20  21
ENDBRANCH   1  20
BRANCH   5  23
ATOM     23  O3' U2P d          38.649  -0.897  21.699  0.00  0.00    -0.390 OA
ATOM     24  H11 U2P d          38.898  -1.611  22.274  0.00  0.00     0.210 HD
ENDBRANCH   5  23
TORSDOF 6
