REMARK  11 active torsions:
REMARK  status: ('A' for Active; 'I' for Inactive)
REMARK    1  A    between atoms: O3B_8  and  PG_1 
REMARK    2  A    between atoms: PB_5  and  O3B_8 
REMARK    3  A    between atoms: O3A_12  and  PB_5 
REMARK    4  A    between atoms: PA_9  and  O3A_12 
REMARK    5  A    between atoms: PA_9  and  O5_13 
REMARK    6  A    between atoms: O5_13  and  C5_14 
REMARK    7  A    between atoms: C5_14  and  C4_15 
REMARK    8  A    between atoms: C3_17  and  O3_18 
REMARK    9  A    between atoms: C2_19  and  O2_20 
REMARK   10  A    between atoms: C1_21  and  N9_22 
REMARK   11  A    between atoms: C6_26  and  N6_27 
ROOT
ATOM      1  C4  ATP d           0.147  24.224   9.353  0.00  0.00     0.180 C 
ATOM      2  O4  ATP d           0.267  25.324   8.443  0.00  0.00    -0.353 OA
ATOM      3  C3  ATP d           1.002  24.581  10.574  0.00  0.00     0.182 C 
ATOM      4  C2  ATP d           1.157  26.137  10.454  0.00  0.00     0.198 C 
ATOM      5  C1  ATP d           1.104  26.330   8.923  0.00  0.00     0.262 C 
ENDROOT
BRANCH   1   6
ATOM      6  C5  ATP d          -1.323  24.047   9.756  0.00  0.00     0.216 C 
BRANCH   6   7
ATOM      7  O5  ATP d          -1.528  25.116  10.700  0.00  0.00    -0.287 OA
BRANCH   7   8
ATOM      8  PA  ATP d          -2.808  25.087  11.645  0.00  0.00     0.417 P 
ATOM      9  O1A ATP d          -3.918  24.413  10.871  0.00  0.00    -0.624 OA
ATOM     10  O2A ATP d          -3.073  26.408  12.152  0.00  0.00    -0.624 OA
BRANCH   8  11
ATOM     11  O3A ATP d          -2.494  23.945  12.771  0.00  0.00    -0.180 OA
BRANCH  11  12
ATOM     12  PB  ATP d          -1.539  24.124  14.051  0.00  0.00     0.428 P 
ATOM     13  O1B ATP d          -1.019  25.507  14.007  0.00  0.00    -0.624 OA
ATOM     14  O2B ATP d          -0.564  23.045  14.136  0.00  0.00    -0.624 OA
BRANCH  12  15
ATOM     15  O3B ATP d          -2.713  23.985  15.119  0.00  0.00    -0.173 OA
BRANCH  15  16
ATOM     16  PG  ATP d          -3.904  24.971  15.435  0.00  0.00     0.431 P 
ATOM     17  O1G ATP d          -4.443  24.771  16.773  0.00  0.00    -0.616 OA
ATOM     18  O2G ATP d          -3.510  26.367  15.111  0.00  0.00    -0.616 OA
ATOM     19  O3G ATP d          -5.021  24.580  14.486  0.00  0.00    -0.616 OA
ENDBRANCH  15  16
ENDBRANCH  12  15
ENDBRANCH  11  12
ENDBRANCH   8  11
ENDBRANCH   7   8
ENDBRANCH   6   7
ENDBRANCH   1   6
BRANCH   3  20
ATOM     20  O3  ATP d           2.298  23.979  10.395  0.00  0.00    -0.390 OA
ATOM     21  H5  ATP d           2.848  24.186  11.141  0.00  0.00     0.210 HD
ENDBRANCH   3  20
BRANCH   5  22
ATOM     22  N9  ATP d           0.481  27.594   8.542  0.00  0.00    -0.294 N 
ATOM     23  C8  ATP d          -0.528  28.141   9.258  0.00  0.00     0.214 A 
ATOM     24  N7  ATP d          -0.708  29.377   9.057  0.00  0.00    -0.236 NA
ATOM     25  C5  ATP d           0.200  29.740   8.175  0.00  0.00     0.149 A 
ATOM     26  C6  ATP d           0.435  30.983   7.580  0.00  0.00     0.155 A 
ATOM     27  C4  ATP d           0.963  28.657   7.804  0.00  0.00     0.167 A 
ATOM     28  N1  ATP d           1.453  31.003   6.691  0.00  0.00    -0.222 NA
ATOM     29  C2  ATP d           2.120  29.859   6.398  0.00  0.00     0.237 A 
ATOM     30  N3  ATP d           1.978  28.672   6.931  0.00  0.00    -0.222 NA
BRANCH  26  31
ATOM     31  N6  ATP d          -0.195  32.128   7.775  0.00  0.00    -0.382 N 
ATOM     32  H10 ATP d           0.095  32.970   7.257  0.00  0.00     0.157 HD
ATOM     33  H11 ATP d          -0.976  32.179   8.445  0.00  0.00     0.157 HD
ENDBRANCH  26  31
ENDBRANCH   5  22
BRANCH   4  34
ATOM     34  O2  ATP d           2.524  26.414  10.854  0.00  0.00    -0.388 OA
ATOM     35  H7  ATP d           3.121  25.957  10.274  0.00  0.00     0.210 HD
ENDBRANCH   4  34
TORSDOF 11
