REMARK  5 active torsions:
REMARK  status: ('A' for Active; 'I' for Inactive)
REMARK    1  A    between atoms: C01_1  and  S01_4 
REMARK    2  A    between atoms: S01_4  and  N01_2 
REMARK    3  A    between atoms: C04_8  and  N07_11 
REMARK       I    between atoms: N07_11  and  C08_12 
REMARK    4  A    between atoms: C08_12  and  C09_14 
REMARK    5  A    between atoms: C09_14  and  C10_15 
ROOT
ATOM      1  C01 MOL d          16.172   1.895  15.737  0.00  0.00     0.079 A 
ATOM      2  C02 MOL d          17.536   1.843  15.521  0.00  0.00     0.027 A 
ATOM      3  C03 MOL d          18.156   2.829  14.785  0.00  0.00     0.031 A 
ATOM      4  C04 MOL d          17.420   3.879  14.268  0.00  0.00     0.034 A 
ATOM      5  C05 MOL d          16.045   3.943  14.486  0.00  0.00     0.031 A 
ATOM      6  C06 MOL d          15.415   2.945  15.224  0.00  0.00     0.027 A 
ENDROOT
BRANCH   4   7
ATOM      7  N07 MOL d          18.173   4.844  13.526  0.00  0.00    -0.327 N 
ATOM      8  C08 MOL d          17.664   6.007  12.875  0.00  0.00     0.226 C 
ATOM      9  O08 MOL d          16.486   6.311  12.903  0.00  0.00    -0.273 OA
ATOM     10  H7  MOL d          19.158   4.687  13.457  0.00  0.00     0.169 HD
BRANCH   8  11
ATOM     11  C09 MOL d          18.649   6.872  12.162  0.00  0.00     0.149 C 
BRANCH  11  12
ATOM     12  C10 MOL d          19.212   7.964  13.000  0.00  0.00    -0.009 A 
ATOM     13  C11 MOL d          19.211   9.326  12.720  0.00  0.00     0.015 A 
ATOM     14  C12 MOL d          19.788  10.128  13.692  0.00  0.00     0.008 A 
ATOM     15  C13 MOL d          20.293   9.458  14.798  0.00  0.00     0.050 A 
ATOM     16  S14 MOL d          19.973   7.793  14.532  0.00  0.00    -0.106 SA
ENDBRANCH  11  12
ENDBRANCH   8  11
ENDBRANCH   4   7
BRANCH   1  17
ATOM     17  S01 MOL d          15.439   0.610  16.692  0.00  0.00     0.256 S 
ATOM     18  O01 MOL d          15.871   0.763  18.061  0.00  0.00    -0.201 OA
ATOM     19  O02 MOL d          14.013   0.763  16.633  0.00  0.00    -0.201 OA
BRANCH  17  20
ATOM     20  N01 MOL d          15.935  -0.804  16.072  0.00  0.00    -0.324 N 
ATOM     21  H1  MOL d          15.626  -1.664  16.478  0.00  0.00     0.169 HD
ATOM     22  H2  MOL d          16.550  -0.816  15.283  0.00  0.00     0.169 HD
ENDBRANCH  17  20
ENDBRANCH   1  17
TORSDOF 5
