REMARK  6 active torsions:
REMARK  status: ('A' for Active; 'I' for Inactive)
REMARK    1  A    between atoms: C13_8  and  O2_10 
REMARK    2  A    between atoms: O2_10  and  C7_11 
REMARK    3  A    between atoms: C7_11  and  C9_13 
REMARK    4  A    between atoms: C9_13  and  C8_14 
REMARK    5  A    between atoms: C9_13  and  C6_16 
REMARK    6  A    between atoms: C8_14  and  OH_15 
ROOT
ATOM      1  C7  OIN d          10.338  26.192   3.149  0.00  0.00     0.270 C 
ATOM      2  O3  OIN d          10.444  25.473   4.136  0.00  0.00    -0.264 OA
ENDROOT
BRANCH   1   3
ATOM      3  O2  OIN d          11.572  26.825   2.627  0.00  0.00    -0.315 OA
BRANCH   3   4
ATOM      4  C13 OIN d          12.412  25.940   1.798  0.00  0.00     0.136 C 
ATOM      5  C14 OIN d          11.773  24.690   1.264  0.00  0.00     0.065 C 
ATOM      6  C15 OIN d          12.631  24.165   0.147  0.00  0.00     0.190 C 
ATOM      7  N   OIN d          13.953  23.798   0.323  0.00  0.00    -0.066 N 
ATOM      8  C16 OIN d          12.667  24.807  -1.200  0.00  0.00     0.035 C 
ATOM      9  C10 OIN d          14.350  22.890   1.409  0.00  0.00     0.270 C 
ATOM     10  C11 OIN d          14.244  25.158   0.370  0.00  0.00     0.190 C 
ATOM     11  H4  OIN d          14.327  23.377  -0.513  0.00  0.00     0.280 HD
ATOM     12  C17 OIN d          13.974  25.584  -1.031  0.00  0.00     0.035 C 
ATOM     13  C12 OIN d          13.918  26.049   1.545  0.00  0.00     0.065 C 
ENDBRANCH   3   4
ENDBRANCH   1   3
BRANCH   1  14
ATOM     14  C9  OIN d           8.963  26.451   2.529  0.00  0.00     0.142 C 
BRANCH  14  15
ATOM     15  C8  OIN d           7.855  26.285   3.561  0.00  0.00     0.183 C 
BRANCH  15  16
ATOM     16  OH  OIN d           7.942  27.237   4.607  0.00  0.00    -0.400 OA
ATOM     17  H19 OIN d           8.775  27.140   5.053  0.00  0.00     0.209 HD
ENDBRANCH  15  16
ENDBRANCH  14  15
BRANCH  14  18
ATOM     18  C6  OIN d           8.698  25.610   1.317  0.00  0.00    -0.043 A 
ATOM     19  C5  OIN d           8.362  26.233   0.121  0.00  0.00     0.008 A 
ATOM     20  C4  OIN d           8.138  25.489  -1.028  0.00  0.00     0.001 A 
ATOM     21  C3  OIN d           8.240  24.110  -0.995  0.00  0.00     0.000 A 
ATOM     22  C2  OIN d           8.578  23.479   0.187  0.00  0.00     0.001 A 
ATOM     23  C1  OIN d           8.800  24.223   1.338  0.00  0.00     0.008 A 
ENDBRANCH  14  18
ENDBRANCH   1  14
TORSDOF 6
