REMARK  5 active torsions:
REMARK  status: ('A' for Active; 'I' for Inactive)
REMARK    1  A    between atoms: S1_4  and  N1_2 
REMARK    2  A    between atoms: O3_8  and  S1_4 
REMARK    3  A    between atoms: C2_5  and  O3_8 
REMARK    4  A    between atoms: C3_7  and  C19_25 
REMARK    5  A    between atoms: C17_22  and  O17_23 
ROOT
ATOM      1  C1  VZ5 d          -3.586   1.263  13.810  0.00  0.00     0.046 A 
ATOM      2  C2  VZ5 d          -4.428   1.993  14.651  0.00  0.00     0.098 A 
ATOM      3  C3  VZ5 d          -5.130   3.121  14.152  0.00  0.00    -0.023 A 
ATOM      4  C4  VZ5 d          -4.999   3.447  12.788  0.00  0.00     0.018 A 
ATOM      5  C5  VZ5 d          -4.118   2.729  11.937  0.00  0.00    -0.047 A 
ATOM      6  C6  VZ5 d          -3.427   1.627  12.436  0.00  0.00    -0.049 A 
ATOM      7  C7  VZ5 d          -2.446   0.847  11.586  0.00  0.00     0.039 C 
ATOM      8  C8  VZ5 d          -2.228   1.326  10.177  0.00  0.00     0.010 C 
ATOM      9  C9  VZ5 d          -2.498   2.793  10.075  0.00  0.00    -0.001 C 
ATOM     10  C10 VZ5 d          -3.920   3.139  10.504  0.00  0.00     0.024 C 
ATOM     11  C11 VZ5 d          -4.365   4.545  10.112  0.00  0.00     0.010 C 
ATOM     12  C12 VZ5 d          -3.312   5.457   9.602  0.00  0.00     0.013 C 
ATOM     13  C13 VZ5 d          -2.303   4.826   8.600  0.00  0.00    -0.014 C 
ATOM     14  C14 VZ5 d          -2.256   3.352   8.665  0.00  0.00     0.001 C 
ATOM     15  C15 VZ5 d          -0.954   3.060   7.992  0.00  0.00     0.008 C 
ATOM     16  C16 VZ5 d          -0.948   4.073   6.870  0.00  0.00     0.033 C 
ATOM     17  C17 VZ5 d          -2.138   5.012   7.158  0.00  0.00     0.126 C 
ATOM     18  C18 VZ5 d          -1.117   5.439   9.200  0.00  0.00     0.018 C 
ENDROOT
BRANCH   2  19
ATOM     19  O3  VZ5 d          -4.531   1.620  15.996  0.00  0.00    -0.216 OA
BRANCH  19  20
ATOM     20  S1  VZ5 d          -5.482   0.630  16.559  0.00  0.00     0.360 S 
ATOM     21  O1  VZ5 d          -5.240   0.665  17.991  0.00  0.00    -0.176 OA
ATOM     22  O2  VZ5 d          -6.860   1.074  16.298  0.00  0.00    -0.176 OA
BRANCH  20  23
ATOM     23  N1  VZ5 d          -5.103  -0.831  15.980  0.00  0.00    -0.305 N 
ATOM     24  H2  VZ5 d          -5.639  -1.631  16.251  0.00  0.00     0.171 HD
ATOM     25  H3  VZ5 d          -4.333  -0.935  15.351  0.00  0.00     0.171 HD
ENDBRANCH  20  23
ENDBRANCH  19  20
ENDBRANCH   2  19
BRANCH   3  26
ATOM     26  C19 VZ5 d          -6.052   3.911  15.008  0.00  0.00     0.037 C 
ATOM     27  C20 VZ5 d          -5.763   5.381  15.074  0.00  0.00     0.010 C 
ENDBRANCH   3  26
BRANCH  17  28
ATOM     28  O17 VZ5 d          -1.830   6.290   6.777  0.00  0.00    -0.395 OA
ATOM     29  H21 VZ5 d          -2.568   6.860   6.958  0.00  0.00     0.210 HD
ENDBRANCH  17  28
TORSDOF 5
