REMARK  20 active torsions:
REMARK  status: ('A' for Active; 'I' for Inactive)
REMARK       I    between atoms: N1_29  and  C2_2 
REMARK    1  A    between atoms: C3_3  and  C4_4 
REMARK    2  A    between atoms: C11_11  and  C3_3 
REMARK    3  A    between atoms: C3_3  and  N1_29 
REMARK    4  A    between atoms: C4_4  and  C5_5 
REMARK    5  A    between atoms: C12_12  and  C11_11 
REMARK    6  A    between atoms: C11_11  and  O2_38 
REMARK    7  A    between atoms: C13_13  and  C12_12 
REMARK    8  A    between atoms: C13_13  and  C14_14 
REMARK    9  A    between atoms: C17_17  and  C13_13 
REMARK       I    between atoms: N2_30  and  C17_17 
REMARK   10  A    between atoms: C18_18  and  C19_19 
REMARK   11  A    between atoms: C22_22  and  C18_18 
REMARK   12  A    between atoms: C18_18  and  N2_30 
REMARK   13  A    between atoms: C19_19  and  C20_20 
REMARK   14  A    between atoms: C20_20  and  C21_21 
REMARK       I    between atoms: C21_21  and  N3_31 
REMARK       I    between atoms: N4_32  and  C22_22 
REMARK   15  A    between atoms: C23_23  and  C24_24 
REMARK   16  A    between atoms: C25_25  and  C23_23 
REMARK   17  A    between atoms: C23_23  and  N4_32 
REMARK       I    between atoms: C24_24  and  N5_33 
REMARK   18  A    between atoms: C26_26  and  C25_25 
REMARK   19  A    between atoms: C27_27  and  C26_26 
REMARK   20  A    between atoms: N6_34  and  C27_27 
REMARK       I    between atoms: C28_28  and  N7_35 
REMARK       I    between atoms: N6_34  and  C28_28 
ROOT
ATOM      1  C18 U0E d          -7.669  16.941  23.340  0.00  0.00     0.177 C 
ENDROOT
BRANCH   1   2
ATOM      2  C19 U0E d          -9.013  16.713  22.653  0.00  0.00     0.044 C 
BRANCH   2   3
ATOM      3  C20 U0E d          -8.909  15.790  21.439  0.00  0.00     0.105 C 
BRANCH   3   4
ATOM      4  C21 U0E d          -8.703  16.557  20.135  0.00  0.00     0.215 C 
ATOM      5  N3  U0E d          -7.947  16.048  19.181  0.00  0.00    -0.370 N 
ATOM      6  H43 U0E d          -7.813  16.551  18.327  0.00  0.00     0.159 HD
ATOM      7  H44 U0E d          -7.508  15.159  19.312  0.00  0.00     0.159 HD
ATOM      8  O4  U0E d          -9.244  17.651  19.977  0.00  0.00    -0.274 OA
ENDBRANCH   3   4
ENDBRANCH   2   3
ENDBRANCH   1   2
BRANCH   1   9
ATOM      9  C22 U0E d          -6.703  17.657  22.402  0.00  0.00     0.241 C 
ATOM     10  N4  U0E d          -5.611  16.972  22.140  0.00  0.00    -0.346 N 
ATOM     11  H45 U0E d          -5.507  16.064  22.547  0.00  0.00     0.163 HD
ATOM     12  O5  U0E d          -6.962  18.788  21.964  0.00  0.00    -0.271 OA
BRANCH  10  13
ATOM     13  C23 U0E d          -4.539  17.479  21.278  0.00  0.00     0.176 C 
BRANCH  13  14
ATOM     14  C24 U0E d          -4.540  16.732  19.944  0.00  0.00     0.238 C 
ATOM     15  N5  U0E d          -5.264  17.175  18.909  0.00  0.00    -0.368 N 
ATOM     16  H46 U0E d          -5.255  16.676  18.042  0.00  0.00     0.159 HD
ATOM     17  H47 U0E d          -5.814  18.005  19.002  0.00  0.00     0.159 HD
ATOM     18  O6  U0E d          -3.870  15.701  19.791  0.00  0.00    -0.271 OA
ENDBRANCH  13  14
BRANCH  13  19
ATOM     19  C25 U0E d          -3.186  17.278  21.960  0.00  0.00     0.036 C 
BRANCH  19  20
ATOM     20  C26 U0E d          -2.163  18.350  21.584  0.00  0.00     0.023 C 
BRANCH  20  21
ATOM     21  C27 U0E d          -1.018  18.458  22.592  0.00  0.00     0.138 C 
BRANCH  21  22
ATOM     22  N6  U0E d          -1.051  19.707  23.366  0.00  0.00    -0.227 N 
ATOM     23  C28 U0E d           0.043  20.351  23.796  0.00  0.00     0.665 C 
ATOM     24  N8  U0E d           0.058  21.636  24.174  0.00  0.00    -0.235 N 
ATOM     25  N7  U0E d           1.226  19.723  23.875  0.00  0.00    -0.235 N 
ATOM     26  H51 U0E d           0.936  22.068  24.494  0.00  0.00     0.174 HD
ATOM     27  H52 U0E d          -0.809  22.192  24.144  0.00  0.00     0.174 HD
ATOM     28  H49 U0E d           2.058  20.231  24.207  0.00  0.00     0.174 HD
ATOM     29  H50 U0E d           1.302  18.732  23.603  0.00  0.00     0.174 HD
ATOM     30  H48 U0E d          -1.971  20.112  23.592  0.00  0.00     0.177 HD
ENDBRANCH  21  22
ENDBRANCH  20  21
ENDBRANCH  19  20
ENDBRANCH  13  19
ENDBRANCH  10  13
ENDBRANCH   1   9
BRANCH   1  31
ATOM     31  N2  U0E d          -7.842  17.761  24.534  0.00  0.00    -0.347 N 
ATOM     32  C17 U0E d          -7.846  17.262  25.743  0.00  0.00     0.223 C 
ATOM     33  O3  U0E d          -7.747  16.058  26.018  0.00  0.00    -0.273 OA
ATOM     34  H42 U0E d          -7.963  18.747  24.423  0.00  0.00     0.163 HD
BRANCH  32  35
ATOM     35  C13 U0E d          -7.983  18.316  26.837  0.00  0.00     0.083 C 
BRANCH  35  36
ATOM     36  C12 U0E d          -8.893  17.821  27.952  0.00  0.00     0.048 C 
BRANCH  36  37
ATOM     37  C11 U0E d         -10.367  17.530  27.737  0.00  0.00     0.141 C 
BRANCH  37  38
ATOM     38  C3  U0E d         -10.823  16.204  28.379  0.00  0.00     0.113 C 
BRANCH  38  39
ATOM     39  C4  U0E d         -12.313  16.021  28.054  0.00  0.00     0.032 C 
BRANCH  39  40
ATOM     40  C5  U0E d         -12.750  14.695  28.684  0.00  0.00    -0.013 C 
ATOM     41  C6  U0E d         -14.243  14.738  29.018  0.00  0.00     0.005 C 
ATOM     42  C7  U0E d         -14.692  13.387  29.571  0.00  0.00     0.000 C 
ATOM     43  C8  U0E d         -14.422  12.269  28.558  0.00  0.00     0.000 C 
ATOM     44  C9  U0E d         -12.935  12.218  28.188  0.00  0.00     0.000 C 
ATOM     45  C10 U0E d         -12.461  13.579  27.663  0.00  0.00     0.005 C 
ENDBRANCH  39  40
ENDBRANCH  38  39
BRANCH  38  46
ATOM     46  N1  U0E d         -10.616  16.222  29.836  0.00  0.00    -0.354 N 
ATOM     47  C2  U0E d          -9.891  15.315  30.474  0.00  0.00     0.214 C 
ATOM     48  C1  U0E d          -9.787  15.550  31.981  0.00  0.00     0.117 C 
ATOM     49  O1  U0E d          -9.317  14.354  29.940  0.00  0.00    -0.274 OA
ATOM     50  H41 U0E d         -11.042  16.953  30.369  0.00  0.00     0.162 HD
ENDBRANCH  38  46
ENDBRANCH  37  38
BRANCH  37  51
ATOM     51  O2  U0E d         -11.113  18.606  28.280  0.00  0.00    -0.393 OA
ATOM     52  H53 U0E d         -12.040  18.442  28.155  0.00  0.00     0.210 HD
ENDBRANCH  37  51
ENDBRANCH  36  37
ENDBRANCH  35  36
BRANCH  35  53
ATOM     53  C14 U0E d          -6.588  18.594  27.380  0.00  0.00    -0.010 C 
ATOM     54  C15 U0E d          -5.875  17.326  27.857  0.00  0.00     0.010 C 
ATOM     55  C16 U0E d          -5.661  19.226  26.341  0.00  0.00     0.010 C 
ENDBRANCH  35  53
ENDBRANCH  32  35
ENDBRANCH   1  31
TORSDOF 20
