REMARK  8 active torsions:
REMARK  status: ('A' for Active; 'I' for Inactive)
REMARK    1  A    between atoms: C14_2  and  C5_3 
REMARK       I    between atoms: C14_2  and  N1_10 
REMARK    2  A    between atoms: C5_3  and  O21_4 
REMARK    3  A    between atoms: O21_4  and  C44_5 
REMARK    4  A    between atoms: C1_11  and  C7_15 
REMARK       I    between atoms: C7_15  and  N23_17 
REMARK    5  A    between atoms: N23_17  and  C24_18 
REMARK    6  A    between atoms: C24_18  and  C25_19 
REMARK    7  A    between atoms: C28_22  and  C21_23 
REMARK    8  A    between atoms: C21_23  and  N46_24 
ROOT
ATOM      1  C7  MOL d         -26.588   1.607  14.567  0.00  0.00     0.240 C 
ATOM      2  O22 MOL d         -26.765   2.784  14.801  0.00  0.00    -0.271 OA
ATOM      3  N23 MOL d         -25.448   1.195  14.089  0.00  0.00    -0.355 N 
ATOM      4  H19 MOL d         -25.295   0.207  14.081  0.00  0.00     0.162 HD
ENDROOT
BRANCH   1   5
ATOM      5  C1  MOL d         -27.631   0.537  14.742  0.00  0.00     0.179 C 
ATOM      6  N1  MOL d         -28.600   1.076  15.680  0.00  0.00    -0.337 N 
ATOM      7  C14 MOL d         -28.289   1.268  16.975  0.00  0.00     0.244 C 
ATOM      8  C4  MOL d         -30.045   1.076  15.160  0.00  0.00     0.127 C 
ATOM      9  O32 MOL d         -27.114   1.250  17.312  0.00  0.00    -0.271 OA
ATOM     10  C3  MOL d         -29.810   1.051  13.661  0.00  0.00     0.022 C 
ATOM     11  C2  MOL d         -28.442   0.419  13.456  0.00  0.00     0.037 C 
BRANCH   7  12
ATOM     12  C5  MOL d         -29.201   1.524  18.166  0.00  0.00     0.271 C 
BRANCH  12  13
ATOM     13  O21 MOL d         -30.210   0.579  18.295  0.00  0.00    -0.377 OA
BRANCH  13  14
ATOM     14  C44 MOL d         -30.421  -0.513  19.154  0.00  0.00     0.122 C 
ATOM     15  C49 MOL d         -29.046  -1.222  19.219  0.00  0.00     0.032 C 
ATOM     16  C48 MOL d         -29.277  -2.699  19.530  0.00  0.00     0.002 C 
ATOM     17  C47 MOL d         -30.717  -2.998  19.228  0.00  0.00     0.002 C 
ATOM     18  C45 MOL d         -31.239  -1.715  18.513  0.00  0.00     0.032 C 
ENDBRANCH  13  14
ENDBRANCH  12  13
ENDBRANCH   7  12
ENDBRANCH   1   5
BRANCH   3  19
ATOM     19  C24 MOL d         -24.367   2.032  13.562  0.00  0.00     0.161 C 
BRANCH  19  20
ATOM     20  C25 MOL d         -23.271   1.866  14.635  0.00  0.00    -0.040 A 
ATOM     21  C26 MOL d         -22.006   1.378  14.365  0.00  0.00     0.010 A 
ATOM     22  C27 MOL d         -20.968   1.207  15.315  0.00  0.00     0.016 A 
ATOM     23  C28 MOL d         -21.035   1.497  16.672  0.00  0.00     0.007 A 
ATOM     24  C29 MOL d         -22.287   1.978  16.934  0.00  0.00     0.016 A 
ATOM     25  C30 MOL d         -23.358   2.161  15.991  0.00  0.00     0.010 A 
BRANCH  23  26
ATOM     26  C21 MOL d         -19.877   1.289  17.645  0.00  0.00     0.102 C 
ATOM     27  N47 MOL d         -19.714   2.050  18.720  0.00  0.00    -0.385 N 
ATOM     28  H26 MOL d         -20.380   2.810  18.919  0.00  0.00     0.157 HD
ATOM     29  H27 MOL d         -18.922   1.880  19.356  0.00  0.00     0.157 HD
BRANCH  26  30
ATOM     30  N46 MOL d         -19.061   0.287  17.318  0.00  0.00    -0.385 N 
ATOM     31  H24 MOL d         -18.250   0.068  17.913  0.00  0.00     0.157 HD
ATOM     32  H25 MOL d         -19.242  -0.269  16.470  0.00  0.00     0.157 HD
ENDBRANCH  26  30
ENDBRANCH  23  26
ENDBRANCH  19  20
ENDBRANCH   3  19
TORSDOF 8
