REMARK  8 active torsions:
REMARK  status: ('A' for Active; 'I' for Inactive)
REMARK    1  A    between atoms: O6_1  and  C6_2 
REMARK    2  A    between atoms: C6_2  and  C5_3 
REMARK    3  A    between atoms: C4_4  and  O4_5 
REMARK    4  A    between atoms: C3_6  and  O3_7 
REMARK    5  A    between atoms: C2_8  and  O2_9 
REMARK    6  A    between atoms: C7_12  and  C9_15 
REMARK    7  A    between atoms: C9_15  and  C10_16 
REMARK    8  A    between atoms: C10_16  and  C14_17 
ROOT
ATOM      1  C5  PGI d          -2.313  10.473   8.629  0.00  0.00     0.145 C 
ATOM      2  C4  PGI d          -1.103  10.642   7.694  0.00  0.00     0.175 C 
ATOM      3  C3  PGI d          -0.266  11.838   8.192  0.00  0.00     0.185 C 
ATOM      4  C2  PGI d           0.364  11.558   9.549  0.00  0.00     0.219 C 
ATOM      5  N1  PGI d          -1.729  10.215   9.971  0.00  0.00    -0.332 N 
ATOM      6  C8  PGI d          -2.213   9.423  10.942  0.00  0.00     0.120 A 
ATOM      7  C7  PGI d          -1.287   9.460  11.973  0.00  0.00     0.052 A 
ATOM      8  N2  PGI d          -0.280  10.254  11.588  0.00  0.00    -0.235 NA
ATOM      9  C1  PGI d          -0.552  10.717  10.368  0.00  0.00     0.138 A 
ENDROOT
BRANCH   7  10
ATOM     10  C9  PGI d          -1.376   8.766  13.313  0.00  0.00     0.065 C 
BRANCH  10  11
ATOM     11  C10 PGI d          -0.090   7.979  13.577  0.00  0.00     0.044 C 
BRANCH  11  12
ATOM     12  C14 PGI d           0.221   6.855  12.588  0.00  0.00    -0.058 A 
ATOM     13  C13 PGI d           1.189   7.031  11.585  0.00  0.00     0.007 A 
ATOM     14  C12 PGI d           1.500   6.000  10.679  0.00  0.00     0.001 A 
ATOM     15  C11 PGI d           0.859   4.760  10.771  0.00  0.00     0.000 A 
ATOM     16  C16 PGI d          -0.105   4.586  11.773  0.00  0.00     0.001 A 
ATOM     17  C15 PGI d          -0.421   5.613  12.680  0.00  0.00     0.007 A 
ENDBRANCH  11  12
ENDBRANCH  10  11
ENDBRANCH   7  10
BRANCH   1  18
ATOM     18  C6  PGI d          -3.267   9.363   8.200  0.00  0.00     0.192 C 
BRANCH  18  19
ATOM     19  O6  PGI d          -2.775   8.045   8.480  0.00  0.00    -0.399 OA
ATOM     20  H1  PGI d          -2.633   7.953   9.415  0.00  0.00     0.209 HD
ENDBRANCH  18  19
ENDBRANCH   1  18
BRANCH   4  21
ATOM     21  O2  PGI d           0.743  12.785  10.155  0.00  0.00    -0.385 OA
ATOM     22  H10 PGI d           1.371  13.231   9.599  0.00  0.00     0.210 HD
ENDBRANCH   4  21
BRANCH   2  23
ATOM     23  O4  PGI d          -1.516  10.841   6.337  0.00  0.00    -0.391 OA
ATOM     24  H6  PGI d          -0.749  10.942   5.785  0.00  0.00     0.210 HD
ENDBRANCH   2  23
BRANCH   3  25
ATOM     25  O3  PGI d           0.814  12.211   7.337  0.00  0.00    -0.390 OA
ATOM     26  H8  PGI d           1.275  12.951   7.715  0.00  0.00     0.210 HD
ENDBRANCH   3  25
TORSDOF 8
