REMARK  2 active torsions:
REMARK  status: ('A' for Active; 'I' for Inactive)
REMARK    1  A    between atoms: C4_5  and  C1_8 
REMARK    2  A    between atoms: C2_10  and  C3_13 
ROOT
ATOM      1  C1  S45 d          -2.660   9.847  31.104  0.00  0.00     0.189 A 
ATOM      2  N1  S45 d          -3.152  11.090  30.826  0.00  0.00    -0.203 NA
ATOM      3  C2  S45 d          -2.361  12.030  31.367  0.00  0.00     0.178 A 
ATOM      4  O1  S45 d          -1.342  11.391  32.009  0.00  0.00    -0.195 OA
ATOM      5  N2  S45 d          -1.522   9.969  31.851  0.00  0.00    -0.106 NA
ENDROOT
BRANCH   3   6
ATOM      6  C3  S45 d          -2.432  13.517  31.376  0.00  0.00     0.091 C 
ATOM      7  C11 S45 d          -3.521  13.957  30.378  0.00  0.00     0.016 C 
ATOM      8  C13 S45 d          -3.055  14.031  28.911  0.00  0.00     0.028 C 
ATOM      9  C12 S45 d          -1.823  14.934  28.767  0.00  0.00     0.232 C 
ATOM     10  N3  S45 d          -1.235  15.234  30.071  0.00  0.00    -0.074 N 
ATOM     11  C8  S45 d          -1.081  14.168  31.055  0.00  0.00     0.245 C 
ATOM     12  H12 S45 d          -1.812  15.943  30.496  0.00  0.00     0.277 HD
ATOM     13  H13 S45 d          -0.315  15.608  29.898  0.00  0.00     0.277 HD
ENDBRANCH   3   6
BRANCH   1  14
ATOM     14  C4  S45 d          -3.332   8.596  30.621  0.00  0.00     0.014 A 
ATOM     15  C6  S45 d          -4.697   8.424  30.842  0.00  0.00     0.017 A 
ATOM     16  C10 S45 d          -5.358   7.279  30.388  0.00  0.00     0.025 A 
ATOM     17  C7  S45 d          -4.650   6.283  29.706  0.00  0.00     0.034 A 
ATOM     18 CL1  S45 d          -5.498   4.817  29.104  0.00  0.00    -0.084 Cl
ATOM     19  C9  S45 d          -3.278   6.457  29.492  0.00  0.00     0.025 A 
ATOM     20  C5  S45 d          -2.621   7.611  29.940  0.00  0.00     0.017 A 
ENDBRANCH   1  14
TORSDOF 2
