REMARK  5 active torsions:
REMARK  status: ('A' for Active; 'I' for Inactive)
REMARK    1  A    between atoms: CA_2  and  N_1 
REMARK    2  A    between atoms: CA_2  and  C_3 
REMARK    3  A    between atoms: CA_2  and  CB_5 
REMARK    4  A    between atoms: CB_5  and  CG_6 
REMARK    5  A    between atoms: CZ_11  and  OH_12 
ROOT
ATOM      1  CB  TYR d          13.286   3.766  28.184  0.00  0.00     0.082 C 
ENDROOT
BRANCH   1   2
ATOM      2  CA  TYR d          14.370   2.747  28.672  0.00  0.00     0.287 C 
BRANCH   2   3
ATOM      3  C   TYR d          13.696   1.403  29.005  0.00  0.00     0.204 C 
ATOM      4  OXT TYR d          13.916   0.408  28.303  0.00  0.00    -0.646 OA
ATOM      5  O   TYR d          12.901   1.409  29.976  0.00  0.00    -0.646 OA
ENDBRANCH   2   3
BRANCH   2   6
ATOM      6  N   TYR d          15.472   2.571  27.722  0.00  0.00    -0.065 N 
ATOM      7  H1  TYR d          15.892   3.466  27.525  0.00  0.00     0.275 HD
ATOM      8  H2  TYR d          15.118   2.170  26.867  0.00  0.00     0.275 HD
ATOM      9  H3  TYR d          16.164   1.956  28.120  0.00  0.00     0.275 HD
ENDBRANCH   2   6
ENDBRANCH   1   2
BRANCH   1  10
ATOM     10  CG  TYR d          13.861   5.095  27.801  0.00  0.00    -0.056 A 
ATOM     11  CD2 TYR d          13.771   5.563  26.526  0.00  0.00     0.010 A 
ATOM     12  CE2 TYR d          14.277   6.815  26.129  0.00  0.00     0.037 A 
ATOM     13  CZ  TYR d          14.927   7.577  27.080  0.00  0.00     0.065 A 
ATOM     14  CE1 TYR d          15.049   7.146  28.403  0.00  0.00     0.037 A 
ATOM     15  CD1 TYR d          14.516   5.932  28.780  0.00  0.00     0.010 A 
BRANCH  13  16
ATOM     16  OH  TYR d          15.414   8.793  26.657  0.00  0.00    -0.361 OA
ATOM     17  H11 TYR d          15.234   8.900  25.730  0.00  0.00     0.217 HD
ENDBRANCH  13  16
ENDBRANCH   1  10
TORSDOF 5
