REMARK  16 active torsions:
REMARK  status: ('A' for Active; 'I' for Inactive)
REMARK    1  A    between atoms: C1_1  and  C2_2 
REMARK    2  A    between atoms: C1_1  and  C24_15 
REMARK    3  A    between atoms: C1_1  and  O36_22 
REMARK    4  A    between atoms: C41_23  and  C1_1 
REMARK       I    between atoms: C2_2  and  N4_4 
REMARK    5  A    between atoms: N4_4  and  C5_5 
REMARK    6  A    between atoms: C13_13  and  O14_14 
REMARK    7  A    between atoms: C24_15  and  C25_16 
REMARK    8  A    between atoms: N42_24  and  C41_23 
REMARK    9  A    between atoms: N42_24  and  N43_25 
REMARK   10  A    between atoms: C44_26  and  N42_24 
REMARK       I    between atoms: N43_25  and  C45_27 
REMARK   11  A    between atoms: C78_37  and  C44_26 
REMARK   12  A    between atoms: C45_27  and  C47_29 
REMARK   13  A    between atoms: C47_29  and  C48_30 
REMARK   14  A    between atoms: C47_29  and  N51_33 
REMARK       I    between atoms: N51_33  and  C54_34 
REMARK   15  A    between atoms: C54_34  and  O56_36 
REMARK   16  A    between atoms: C95_47  and  C81_40 
ROOT
ATOM      1  N42 MOL d          12.078  23.955   4.385  0.00  0.00     0.018 N 
ATOM      2  H21 MOL d          12.679  24.689   4.045  0.00  0.00     0.309 HD
ENDROOT
BRANCH   1   3
ATOM      3  C41 MOL d          13.031  22.948   4.745  0.00  0.00     0.310 C 
BRANCH   3   4
ATOM      4  C1  MOL d          14.307  22.911   5.643  0.00  0.00     0.168 C 
BRANCH   4   5
ATOM      5  C2  MOL d          14.579  21.377   5.386  0.00  0.00     0.255 C 
ATOM      6  O3  MOL d          13.633  20.562   5.403  0.00  0.00    -0.270 OA
ATOM      7  N4  MOL d          15.833  20.926   5.189  0.00  0.00    -0.347 N 
ATOM      8  H1  MOL d          16.587  21.582   5.177  0.00  0.00     0.163 HD
BRANCH   7   9
ATOM      9  C5  MOL d          16.129  19.496   4.990  0.00  0.00     0.147 C 
ATOM     10  C6  MOL d          16.089  18.995   3.574  0.00  0.00    -0.027 A 
ATOM     11  C7  MOL d          15.250  19.411   2.489  0.00  0.00     0.010 A 
ATOM     12  C11 MOL d          17.054  17.978   3.412  0.00  0.00    -0.047 A 
ATOM     13  C8  MOL d          15.425  18.759   1.218  0.00  0.00     0.001 A 
ATOM     14  C9  MOL d          16.412  17.725   1.062  0.00  0.00     0.001 A 
ATOM     15  C10 MOL d          17.239  17.322   2.163  0.00  0.00     0.008 A 
ATOM     16  C12 MOL d          17.799  17.732   4.704  0.00  0.00     0.073 C 
ATOM     17  C13 MOL d          17.523  19.022   5.517  0.00  0.00     0.149 C 
BRANCH  17  18
ATOM     18  O14 MOL d          18.573  19.914   5.168  0.00  0.00    -0.393 OA
ATOM     19  H10 MOL d          18.461  20.732   5.637  0.00  0.00     0.210 HD
ENDBRANCH  17  18
ENDBRANCH   7   9
ENDBRANCH   4   5
BRANCH   4  20
ATOM     20  C24 MOL d          14.111  23.182   7.176  0.00  0.00     0.088 C 
BRANCH  20  21
ATOM     21  C25 MOL d          14.973  22.347   8.118  0.00  0.00    -0.055 A 
ATOM     22  C26 MOL d          14.375  21.280   8.877  0.00  0.00     0.007 A 
ATOM     23  C27 MOL d          15.173  20.477   9.745  0.00  0.00     0.001 A 
ATOM     24  C28 MOL d          16.577  20.735   9.859  0.00  0.00     0.000 A 
ATOM     25  C29 MOL d          17.178  21.798   9.106  0.00  0.00     0.001 A 
ATOM     26  C30 MOL d          16.381  22.604   8.236  0.00  0.00     0.007 A 
ENDBRANCH  20  21
ENDBRANCH   4  20
BRANCH   4  27
ATOM     27  O36 MOL d          15.412  23.717   5.222  0.00  0.00    -0.378 OA
ATOM     28  H18 MOL d          15.566  23.582   4.294  0.00  0.00     0.211 HD
ENDBRANCH   4  27
ENDBRANCH   3   4
ENDBRANCH   1   3
BRANCH   1  29
ATOM     29  N43 MOL d          11.414  24.711   5.321  0.00  0.00    -0.184 N 
ATOM     30  C45 MOL d          10.540  24.436   6.309  0.00  0.00     0.265 C 
ATOM     31  O46 MOL d          10.362  23.295   6.766  0.00  0.00    -0.269 OA
ATOM     32  H22 MOL d          11.628  25.686   5.254  0.00  0.00     0.197 HD
BRANCH  30  33
ATOM     33  C47 MOL d           9.762  25.660   6.829  0.00  0.00     0.188 C 
BRANCH  33  34
ATOM     34  C48 MOL d           9.690  25.905   8.376  0.00  0.00    -0.022 C 
ATOM     35  C49 MOL d           8.926  27.210   8.731  0.00  0.00     0.017 C 
ATOM     36  C50 MOL d          11.077  26.002   9.031  0.00  0.00     0.017 C 
ATOM     37  C92 MOL d           8.913  24.767   9.046  0.00  0.00     0.017 C 
ENDBRANCH  33  34
BRANCH  33  38
ATOM     38  N51 MOL d           8.392  25.586   6.293  0.00  0.00    -0.323 N 
ATOM     39  C54 MOL d           7.821  26.484   5.474  0.00  0.00     0.360 C 
ATOM     40  O55 MOL d           8.467  27.484   5.107  0.00  0.00    -0.239 OA
ATOM     41  H32 MOL d           7.839  24.798   6.563  0.00  0.00     0.165 HD
BRANCH  39  42
ATOM     42  O56 MOL d           6.544  26.254   5.089  0.00  0.00    -0.309 OA
ATOM     43  C91 MOL d           5.855  27.158   4.232  0.00  0.00     0.215 C 
ENDBRANCH  39  42
ENDBRANCH  33  38
ENDBRANCH  30  33
ENDBRANCH   1  29
BRANCH   1  44
ATOM     44  C44 MOL d          11.548  23.428   3.108  0.00  0.00     0.301 C 
BRANCH  44  45
ATOM     45  C78 MOL d          10.034  23.470   2.997  0.00  0.00    -0.030 A 
ATOM     46  C79 MOL d           9.422  24.451   2.158  0.00  0.00     0.010 A 
ATOM     47  C80 MOL d           7.999  24.518   2.051  0.00  0.00     0.013 A 
ATOM     48  C81 MOL d           7.166  23.603   2.791  0.00  0.00    -0.025 A 
ATOM     49  C83 MOL d           7.791  22.617   3.632  0.00  0.00     0.013 A 
ATOM     50  C82 MOL d           9.215  22.550   3.730  0.00  0.00     0.010 A 
BRANCH  48  51
ATOM     51  C95 MOL d           5.677  23.682   2.684  0.00  0.00    -0.008 A 
ATOM     52  C94 MOL d           4.841  22.786   3.432  0.00  0.00     0.015 A 
ATOM     53  C93 MOL d           3.421  22.855   3.340  0.00  0.00     0.020 A 
ATOM     54  C98 MOL d           2.816  23.824   2.495  0.00  0.00     0.116 A 
ATOM     55  N97 MOL d           3.637  24.718   1.747  0.00  0.00    -0.272 NA
ATOM     56  C96 MOL d           5.056  24.654   1.837  0.00  0.00     0.128 A 
ENDBRANCH  48  51
ENDBRANCH  44  45
ENDBRANCH   1  44
TORSDOF 16
