REMARK  8 active torsions:
REMARK  status: ('A' for Active; 'I' for Inactive)
REMARK    1  A    between atoms: CBA_2  and  CBH_4 
REMARK    2  A    between atoms: CBI_13  and  CA_14 
REMARK    3  A    between atoms: CA_14  and  C_15 
REMARK       I    between atoms: C_15  and  NAX_16 
REMARK    4  A    between atoms: NAX_16  and  CBN_17 
REMARK    5  A    between atoms: CAW_25  and  CBF_26 
REMARK    6  A    between atoms: CBG_31  and  OAZ_32 
REMARK    7  A    between atoms: OAZ_32  and  CAV_33 
REMARK    8  A    between atoms: CAV_33  and  CBE_34 
ROOT
ATOM      1  CA  Y30 d         -16.983  -5.189   4.273  0.00  0.00     0.168 A 
ATOM      2  N   Y30 d         -16.879  -6.663   4.283  0.00  0.00    -0.201 NA
ATOM      3  CAJ Y30 d         -18.033  -7.427   4.364  0.00  0.00     0.234 A 
ATOM      4  OAD Y30 d         -18.431  -8.557   4.422  0.00  0.00    -0.277 OA
ATOM      5  CAW Y30 d         -18.214  -6.067   3.822  0.00  0.00     0.160 A 
ENDROOT
BRANCH   1   6
ATOM      6  CBI Y30 d         -16.225  -4.642   3.108  0.00  0.00     0.024 A 
ATOM      7  CBH Y30 d         -15.095  -5.013   2.369  0.00  0.00     0.120 A 
ATOM      8  NAY Y30 d         -14.996  -4.177   1.329  0.00  0.00    -0.349 N 
ATOM      9  CBJ Y30 d         -16.033  -3.319   1.350  0.00  0.00     0.045 A 
ATOM     10  H1  Y30 d         -14.245  -4.188   0.624  0.00  0.00     0.166 HD
ATOM     11  CAU Y30 d         -16.362  -2.297   0.499  0.00  0.00     0.054 A 
ATOM     12  CBK Y30 d         -16.836  -3.594   2.447  0.00  0.00     0.002 A 
ATOM     13  CBD Y30 d         -17.497  -1.564   0.740  0.00  0.00     0.036 A 
ATOM     14 CLI  Y30 d         -17.863  -0.283  -0.423  0.00  0.00    -0.084 Cl
ATOM     15  CAQ Y30 d         -18.313  -1.820   1.837  0.00  0.00     0.025 A 
ATOM     16  CAT Y30 d         -17.977  -2.850   2.707  0.00  0.00     0.016 A 
BRANCH   7  17
ATOM     17  CBA Y30 d         -14.110  -6.090   2.645  0.00  0.00     0.227 C 
ATOM     18  OAE Y30 d         -13.188  -6.228   1.805  0.00  0.00    -0.643 OA
ATOM     19  OAG Y30 d         -14.220  -6.824   3.644  0.00  0.00    -0.643 OA
ENDBRANCH   7  17
ENDBRANCH   1   6
BRANCH   1  20
ATOM     20  C   Y30 d         -17.288  -4.325   5.483  0.00  0.00     0.249 C 
ATOM     21  NAX Y30 d         -16.353  -3.471   5.930  0.00  0.00    -0.351 N 
ATOM     22  H5  Y30 d         -15.468  -3.467   5.464  0.00  0.00     0.163 HD
ATOM     23  O   Y30 d         -18.397  -4.416   5.959  0.00  0.00    -0.271 OA
BRANCH  21  24
ATOM     24  CBN Y30 d         -16.534  -2.543   7.052  0.00  0.00     0.022 C 
ATOM     25  CAA Y30 d         -17.719  -1.616   6.813  0.00  0.00     0.037 C 
ATOM     26  CAC Y30 d         -15.326  -1.626   7.119  0.00  0.00     0.037 C 
ATOM     27  CAB Y30 d         -16.719  -3.236   8.399  0.00  0.00     0.037 C 
ENDBRANCH  21  24
ENDBRANCH   1  20
BRANCH   5  28
ATOM     28  CBF Y30 d         -18.558  -6.219   2.309  0.00  0.00    -0.023 A 
ATOM     29  CAP Y30 d         -17.660  -6.737   1.375  0.00  0.00     0.012 A 
ATOM     30  CAS Y30 d         -17.962  -6.875   0.011  0.00  0.00     0.037 A 
ATOM     31  CBG Y30 d         -19.195  -6.512  -0.525  0.00  0.00     0.069 A 
ATOM     32  CAR Y30 d         -20.134  -6.020   0.395  0.00  0.00     0.037 A 
ATOM     33  CAO Y30 d         -19.816  -5.891   1.772  0.00  0.00     0.012 A 
BRANCH  31  34
ATOM     34  OAZ Y30 d         -19.382  -6.724  -1.900  0.00  0.00    -0.347 OA
BRANCH  34  35
ATOM     35  CAV Y30 d         -20.500  -6.339  -2.744  0.00  0.00     0.214 C 
BRANCH  35  36
ATOM     36  CBE Y30 d         -20.078  -6.608  -4.180  0.00  0.00    -0.034 A 
ATOM     37  CAM Y30 d         -19.918  -7.922  -4.625  0.00  0.00     0.011 A 
ATOM     38  CAK Y30 d         -19.499  -8.191  -5.925  0.00  0.00     0.024 A 
ATOM     39  CBC Y30 d         -19.250  -7.122  -6.780  0.00  0.00     0.034 A 
ATOM     40  CAL Y30 d         -19.417  -5.803  -6.357  0.00  0.00     0.024 A 
ATOM     41 CLH  Y30 d         -18.703  -7.432  -8.452  0.00  0.00    -0.084 Cl
ATOM     42  CAN Y30 d         -19.831  -5.555  -5.053  0.00  0.00     0.011 A 
ENDBRANCH  35  36
ENDBRANCH  34  35
ENDBRANCH  31  34
ENDBRANCH   5  28
TORSDOF 8
