REMARK  12 active torsions:
REMARK  status: ('A' for Active; 'I' for Inactive)
REMARK    1  A    between atoms: N7_7  and  C18_18 
REMARK    2  A    between atoms: C8_8  and  C11_11 
REMARK       I    between atoms: C11_11  and  N12_12 
REMARK    3  A    between atoms: N12_12  and  C13_13 
REMARK    4  A    between atoms: C18_18  and  C19_19 
REMARK    5  A    between atoms: C19_19  and  C20_20 
REMARK    6  A    between atoms: C19_19  and  O21_21 
REMARK    7  A    between atoms: C20_20  and  N22_22 
REMARK    8  A    between atoms: C20_20  and  C23_23 
REMARK       I    between atoms: N22_22  and  C24_24 
REMARK    9  A    between atoms: C23_23  and  S74_34 
REMARK   10  A    between atoms: C24_24  and  C29_26 
REMARK   11  A    between atoms: C33_30  and  O38_32 
REMARK   12  A    between atoms: S74_34  and  C77_35 
ROOT
ATOM      1  C19 MOL d          -9.756  16.765  26.671  0.00  0.00     0.167 C 
ENDROOT
BRANCH   1   2
ATOM      2  C18 MOL d         -10.287  16.297  28.025  0.00  0.00     0.269 C 
BRANCH   2   3
ATOM      3  N7  MOL d         -10.709  14.884  27.950  0.00  0.00    -0.055 N 
ATOM      4  C8  MOL d         -10.667  14.268  29.294  0.00  0.00     0.279 C 
ATOM      5  C9  MOL d         -11.081  12.796  29.249  0.00  0.00     0.048 C 
ATOM      6  C2  MOL d         -12.448  12.613  28.590  0.00  0.00    -0.006 C 
ATOM      7  C1  MOL d         -12.540  13.338  27.240  0.00  0.00     0.016 C 
ATOM      8  C3  MOL d         -12.770  11.117  28.487  0.00  0.00     0.005 C 
ATOM      9  C6  MOL d         -11.794  12.605  26.116  0.00  0.00     0.007 C 
ATOM     10  C10 MOL d         -12.063  14.793  27.353  0.00  0.00     0.241 C 
ATOM     11  C5  MOL d         -12.216  11.138  26.040  0.00  0.00     0.000 C 
ATOM     12  C4  MOL d         -11.982  10.427  27.372  0.00  0.00     0.000 C 
ATOM     13  H11 MOL d         -10.066  14.387  27.354  0.00  0.00     0.281 HD
BRANCH   4  14
ATOM     14  C11 MOL d          -9.277  14.295  29.853  0.00  0.00     0.249 C 
ATOM     15  N12 MOL d          -9.213  14.775  31.090  0.00  0.00    -0.351 N 
ATOM     16  H17 MOL d         -10.062  15.156  31.456  0.00  0.00     0.163 HD
ATOM     17  O17 MOL d          -8.333  13.884  29.188  0.00  0.00    -0.271 OA
BRANCH  15  18
ATOM     18  C13 MOL d          -8.061  14.816  31.980  0.00  0.00     0.022 C 
ATOM     19  C14 MOL d          -7.070  15.835  31.445  0.00  0.00     0.037 C 
ATOM     20  C15 MOL d          -7.429  13.439  32.120  0.00  0.00     0.037 C 
ATOM     21  C16 MOL d          -8.549  15.246  33.360  0.00  0.00     0.037 C 
ENDBRANCH  15  18
ENDBRANCH   4  14
ENDBRANCH   2   3
ENDBRANCH   1   2
BRANCH   1  22
ATOM     22  C20 MOL d          -8.280  16.427  26.476  0.00  0.00     0.124 C 
BRANCH  22  23
ATOM     23  N22 MOL d          -7.976  16.625  25.075  0.00  0.00    -0.349 N 
ATOM     24  C24 MOL d          -7.875  15.640  24.182  0.00  0.00     0.252 C 
ATOM     25  O25 MOL d          -8.071  14.460  24.429  0.00  0.00    -0.268 OA
ATOM     26  H32 MOL d          -7.832  17.562  24.756  0.00  0.00     0.163 HD
BRANCH  24  27
ATOM     27  C29 MOL d          -7.477  16.043  22.802  0.00  0.00     0.040 A 
ATOM     28  C30 MOL d          -6.273  16.728  22.616  0.00  0.00     0.018 A 
ATOM     29  C31 MOL d          -5.860  17.128  21.348  0.00  0.00     0.004 A 
ATOM     30  C32 MOL d          -6.635  16.863  20.218  0.00  0.00     0.037 A 
ATOM     31  C33 MOL d          -7.848  16.188  20.309  0.00  0.00     0.072 A 
ATOM     32  C34 MOL d          -8.342  15.745  21.633  0.00  0.00    -0.013 A 
ATOM     33  C39 MOL d          -9.655  15.001  21.772  0.00  0.00     0.052 C 
BRANCH  31  34
ATOM     34  O38 MOL d          -8.576  15.954  19.189  0.00  0.00    -0.360 OA
ATOM     35  H38 MOL d          -8.115  16.302  18.435  0.00  0.00     0.217 HD
ENDBRANCH  31  34
ENDBRANCH  24  27
ENDBRANCH  22  23
BRANCH  22  36
ATOM     36  C23 MOL d          -7.332  17.257  27.341  0.00  0.00     0.107 C 
BRANCH  36  37
ATOM     37  S74 MOL d          -5.761  16.459  27.451  0.00  0.00    -0.128 SA
BRANCH  37  38
ATOM     38  C77 MOL d          -4.791  17.102  26.205  0.00  0.00     0.000 A 
ATOM     39  C78 MOL d          -3.720  16.367  25.693  0.00  0.00     0.018 A 
ATOM     40  C79 MOL d          -2.928  16.895  24.670  0.00  0.00     0.001 A 
ATOM     41  C80 MOL d          -3.199  18.161  24.151  0.00  0.00     0.000 A 
ATOM     42  C81 MOL d          -4.271  18.900  24.653  0.00  0.00     0.001 A 
ATOM     43  C82 MOL d          -5.057  18.373  25.680  0.00  0.00     0.018 A 
ENDBRANCH  37  38
ENDBRANCH  36  37
ENDBRANCH  22  36
ENDBRANCH   1  22
BRANCH   1  44
ATOM     44  O21 MOL d         -10.018  18.169  26.475  0.00  0.00    -0.392 OA
ATOM     45  H31 MOL d         -10.944  18.338  26.605  0.00  0.00     0.210 HD
ENDBRANCH   1  44
TORSDOF 12
