REMARK  8 active torsions:
REMARK  status: ('A' for Active; 'I' for Inactive)
REMARK    1  A    between atoms: C1_1  and  S1_4 
REMARK    2  A    between atoms: S1_4  and  N1_2 
REMARK    3  A    between atoms: C4_8  and  N7_11 
REMARK    4  A    between atoms: N7_11  and  C8_12 
REMARK    5  A    between atoms: C10_14  and  N11_15 
REMARK    6  A    between atoms: N11_15  and  C15_20 
REMARK    7  A    between atoms: C15_20  and  C16_21 
REMARK    8  A    between atoms: C16_21  and  O17_22 
ROOT
ATOM      1  N7  D9H d          -3.613   5.178  13.545  0.00  0.00    -0.188 N 
ATOM      2  H7  D9H d          -2.588   5.202  13.641  0.00  0.00     0.184 HD
ENDROOT
BRANCH   1   3
ATOM      3  C4  D9H d          -4.287   4.177  14.251  0.00  0.00     0.049 A 
ATOM      4  C3  D9H d          -5.609   4.218  14.590  0.00  0.00     0.031 A 
ATOM      5  C2  D9H d          -6.136   3.094  15.383  0.00  0.00     0.027 A 
ATOM      6  C1  D9H d          -5.332   2.058  15.770  0.00  0.00     0.079 A 
ATOM      7  C6  D9H d          -3.924   2.048  15.376  0.00  0.00     0.027 A 
ATOM      8  C5  D9H d          -3.421   3.080  14.658  0.00  0.00     0.031 A 
BRANCH   6   9
ATOM      9  S1  D9H d          -5.926   0.733  16.756  0.00  0.00     0.256 S 
ATOM     10  O1  D9H d          -7.395   0.877  16.648  0.00  0.00    -0.201 OA
ATOM     11  O2  D9H d          -5.362   0.963  18.038  0.00  0.00    -0.201 OA
BRANCH   9  12
ATOM     12  N1  D9H d          -5.428  -0.591  16.078  0.00  0.00    -0.324 N 
ATOM     13  H1  D9H d          -5.658  -1.476  16.482  0.00  0.00     0.169 HD
ATOM     14  H2  D9H d          -4.881  -0.549  15.242  0.00  0.00     0.169 HD
ENDBRANCH   9  12
ENDBRANCH   6   9
ENDBRANCH   1   3
BRANCH   1  15
ATOM     15  C8  D9H d          -4.186   6.140  12.730  0.00  0.00     0.745 A 
ATOM     16  N9  D9H d          -3.310   6.974  12.147  0.00  0.00     0.130 NA
ATOM     17  C10 D9H d          -3.765   7.952  11.366  0.00  0.00     0.741 A 
ATOM     18  N12 D9H d          -5.079   8.111  11.203  0.00  0.00    -0.030 NA
ATOM     19  C13 D9H d          -5.924   7.263  11.792  0.00  0.00     0.259 A 
ATOM     20 CL13 D9H d          -7.581   7.530  11.611  0.00  0.00    -0.040 Cl
ATOM     21  N14 D9H d          -5.498   6.274  12.573  0.00  0.00    -0.030 NA
BRANCH  17  22
ATOM     22  N11 D9H d          -2.854   8.852  10.741  0.00  0.00    -0.220 N 
ATOM     23  H8  D9H d          -3.200   9.715  10.298  0.00  0.00     0.177 HD
BRANCH  22  24
ATOM     24  C15 D9H d          -1.451   8.549  10.732  0.00  0.00     0.164 C 
BRANCH  24  25
ATOM     25  C16 D9H d          -1.151   7.751   9.502  0.00  0.00     0.184 C 
BRANCH  25  26
ATOM     26  O17 D9H d           0.154   7.291   9.532  0.00  0.00    -0.399 OA
ATOM     27  H13 D9H d           0.329   6.787   8.746  0.00  0.00     0.209 HD
ENDBRANCH  25  26
ENDBRANCH  24  25
ENDBRANCH  22  24
ENDBRANCH  17  22
ENDBRANCH   1  15
TORSDOF 8
