REMARK  10 active torsions:
REMARK  status: ('A' for Active; 'I' for Inactive)
REMARK    1  A    between atoms: NAQ_2  and  SAN_3 
REMARK    2  A    between atoms: SAN_3  and  CAK_6 
REMARK    3  A    between atoms: CAH_11  and  CAE_12 
REMARK    4  A    between atoms: CAB_17  and  O1_18 
REMARK    5  A    between atoms: O1_18  and  C1_19 
REMARK    6  A    between atoms: C5_21  and  C6_22 
REMARK    7  A    between atoms: C6_22  and  O6_23 
REMARK    8  A    between atoms: C4_24  and  O4_25 
REMARK    9  A    between atoms: C3_26  and  O3_27 
REMARK   10  A    between atoms: C2_28  and  O2_29 
ROOT
ATOM      1  CAE CWX d          -7.083  47.036 -11.269  0.00  0.00    -0.026 A 
ATOM      2  CAD CWX d          -6.394  48.236 -11.321  0.00  0.00     0.015 A 
ATOM      3  CAC CWX d          -5.031  48.300 -10.993  0.00  0.00     0.038 A 
ATOM      4  CAF CWX d          -6.392  45.873 -10.908  0.00  0.00     0.015 A 
ATOM      5  CAG CWX d          -5.017  45.923 -10.605  0.00  0.00     0.038 A 
ATOM      6  CAB CWX d          -4.357  47.131 -10.648  0.00  0.00     0.072 A 
ENDROOT
BRANCH   6   7
ATOM      7  O1  CWX d          -2.952  47.083 -10.341  0.00  0.00    -0.318 OA
BRANCH   7   8
ATOM      8  C1  CWX d          -2.191  48.162 -10.146  0.00  0.00     0.298 C 
ATOM      9  O5  CWX d          -2.711  49.155  -9.283  0.00  0.00    -0.348 OA
ATOM     10  C5  CWX d          -2.957  48.609  -7.947  0.00  0.00     0.179 C 
ATOM     11  C4  CWX d          -1.699  48.007  -7.397  0.00  0.00     0.180 C 
ATOM     12  C3  CWX d          -1.168  46.998  -8.358  0.00  0.00     0.183 C 
ATOM     13  C2  CWX d          -0.937  47.622  -9.717  0.00  0.00     0.205 C 
BRANCH  10  14
ATOM     14  C6  CWX d          -3.421  49.748  -7.115  0.00  0.00     0.198 C 
BRANCH  14  15
ATOM     15  O6  CWX d          -2.441  50.764  -7.026  0.00  0.00    -0.398 OA
ATOM     16  H17 CWX d          -2.771  51.474  -6.488  0.00  0.00     0.209 HD
ENDBRANCH  14  15
ENDBRANCH  10  14
BRANCH  11  17
ATOM     17  O4  CWX d          -1.975  47.372  -6.151  0.00  0.00    -0.390 OA
ATOM     18  H19 CWX d          -2.312  48.014  -5.537  0.00  0.00     0.210 HD
ENDBRANCH  11  17
BRANCH  12  19
ATOM     19  O3  CWX d           0.066  46.480  -7.835  0.00  0.00    -0.390 OA
ATOM     20  H21 CWX d           0.418  45.835  -8.437  0.00  0.00     0.210 HD
ENDBRANCH  12  19
BRANCH  13  21
ATOM     21  O2  CWX d           0.043  48.658  -9.646  0.00  0.00    -0.388 OA
ATOM     22  H23 CWX d           0.864  48.295  -9.334  0.00  0.00     0.210 HD
ENDBRANCH  13  21
ENDBRANCH   7   8
ENDBRANCH   6   7
BRANCH   1  23
ATOM     23  CAH CWX d          -8.514  46.972 -11.585  0.00  0.00    -0.026 A 
ATOM     24  CAI CWX d          -9.262  48.130 -11.814  0.00  0.00     0.014 A 
ATOM     25  CAJ CWX d         -10.629  48.049 -12.105  0.00  0.00     0.026 A 
ATOM     26  CAK CWX d         -11.240  46.823 -12.182  0.00  0.00     0.079 A 
ATOM     27  CAL CWX d         -10.503  45.663 -11.949  0.00  0.00     0.026 A 
ATOM     28  CAM CWX d          -9.160  45.745 -11.654  0.00  0.00     0.014 A 
BRANCH  26  29
ATOM     29  SAN CWX d         -12.951  46.668 -12.539  0.00  0.00     0.258 S 
ATOM     30  OAO CWX d         -13.132  45.567 -13.475  0.00  0.00    -0.201 OA
ATOM     31  OAP CWX d         -13.630  46.393 -11.304  0.00  0.00    -0.201 OA
BRANCH  29  32
ATOM     32  NAQ CWX d         -13.522  48.094 -13.192  0.00  0.00    -0.320 N 
ATOM     33  CAR CWX d         -13.008  48.582 -14.428  0.00  0.00     0.159 C 
ATOM     34  H4  CWX d         -14.231  48.610 -12.712  0.00  0.00     0.171 HD
ENDBRANCH  29  32
ENDBRANCH  26  29
ENDBRANCH   1  23
TORSDOF 10
