REMARK  14 active torsions:
REMARK  status: ('A' for Active; 'I' for Inactive)
REMARK    1  A    between atoms: C2_3  and  O39_1 
REMARK    2  A    between atoms: S8_9  and  C5_6 
REMARK    3  A    between atoms: N11_12  and  S8_9 
REMARK    4  A    between atoms: N11_12  and  C12_13 
REMARK    5  A    between atoms: C16_20  and  N11_12 
REMARK    6  A    between atoms: C12_13  and  C13_14 
REMARK    7  A    between atoms: C17_21  and  C16_20 
REMARK    8  A    between atoms: C17_21  and  O18_22 
REMARK    9  A    between atoms: C19_23  and  C17_21 
REMARK   10  A    between atoms: C19_23  and  N20_24 
REMARK   11  A    between atoms: C32_36  and  C19_23 
REMARK       I    between atoms: N20_24  and  C21_25 
REMARK   12  A    between atoms: C21_25  and  O23_27 
REMARK   13  A    between atoms: O23_27  and  C25_29 
REMARK   14  A    between atoms: C38_42  and  C32_36 
ROOT
ATOM      1  C17 MOL d          15.257  24.177  18.423  0.00  0.00     0.155 C 
ENDROOT
BRANCH   1   2
ATOM      2  C16 MOL d          14.474  22.935  18.785  0.00  0.00     0.141 C 
BRANCH   2   3
ATOM      3  N11 MOL d          14.747  21.888  17.804  0.00  0.00    -0.202 NA
BRANCH   3   4
ATOM      4  S8  MOL d          15.273  20.503  18.459  0.00  0.00     0.243 S 
ATOM      5  O9  MOL d          16.172  20.856  19.606  0.00  0.00    -0.206 OA
ATOM      6  O10 MOL d          16.039  19.715  17.448  0.00  0.00    -0.206 OA
BRANCH   4   7
ATOM      7  C5  MOL d          13.946  19.516  19.038  0.00  0.00     0.074 A 
ATOM      8  C4  MOL d          13.307  18.559  18.263  0.00  0.00     0.027 A 
ATOM      9  C3  MOL d          12.217  17.856  18.786  0.00  0.00     0.038 A 
ATOM     10  C2  MOL d          11.769  18.079  20.077  0.00  0.00     0.068 A 
ATOM     11  C7  MOL d          12.442  18.993  20.882  0.00  0.00     0.038 A 
ATOM     12  C6  MOL d          13.485  19.703  20.325  0.00  0.00     0.027 A 
BRANCH  10  13
ATOM     13  O39 MOL d          10.787  17.330  20.637  0.00  0.00    -0.356 OA
ATOM     14  C40 MOL d          10.033  16.701  19.606  0.00  0.00     0.210 C 
ENDBRANCH  10  13
ENDBRANCH   4   7
ENDBRANCH   3   4
BRANCH   3  15
ATOM     15  C12 MOL d          13.728  21.728  16.789  0.00  0.00     0.133 C 
BRANCH  15  16
ATOM     16  C13 MOL d          13.791  22.866  15.778  0.00  0.00     0.099 C 
ATOM     17  C14 MOL d          15.219  23.147  15.295  0.00  0.00     0.035 C 
ATOM     18  C47 MOL d          15.334  22.311  14.023  0.00  0.00     0.105 C 
ATOM     19  C45 MOL d          13.888  22.013  13.672  0.00  0.00     0.217 C 
ATOM     20  N15 MOL d          13.060  22.530  14.552  0.00  0.00    -0.355 N 
ATOM     21  O46 MOL d          13.522  21.376  12.702  0.00  0.00    -0.274 OA
ATOM     22  H13 MOL d          12.081  22.672  14.408  0.00  0.00     0.162 HD
ENDBRANCH  15  16
ENDBRANCH   3  15
ENDBRANCH   2   3
ENDBRANCH   1   2
BRANCH   1  23
ATOM     23  O18 MOL d          14.788  25.402  18.935  0.00  0.00    -0.392 OA
ATOM     24  H19 MOL d          15.356  26.105  18.642  0.00  0.00     0.210 HD
ENDBRANCH   1  23
BRANCH   1  25
ATOM     25  C19 MOL d          16.762  24.045  18.552  0.00  0.00     0.120 C 
BRANCH  25  26
ATOM     26  N20 MOL d          17.383  25.091  17.746  0.00  0.00    -0.329 N 
ATOM     27  C21 MOL d          18.266  24.967  16.770  0.00  0.00     0.361 C 
ATOM     28  O22 MOL d          18.526  23.898  16.213  0.00  0.00    -0.238 OA
ATOM     29  H21 MOL d          17.103  26.027  17.961  0.00  0.00     0.165 HD
BRANCH  27  30
ATOM     30  O23 MOL d          18.898  26.112  16.399  0.00  0.00    -0.299 OA
BRANCH  30  31
ATOM     31  C25 MOL d          19.757  25.941  15.272  0.00  0.00     0.136 C 
ATOM     32  C24 MOL d          21.074  25.283  15.673  0.00  0.00     0.040 C 
ATOM     33  C31 MOL d          22.060  26.407  15.971  0.00  0.00     0.019 C 
ATOM     34  C27 MOL d          21.323  27.716  15.729  0.00  0.00     0.128 C 
ATOM     35  C30 MOL d          22.435  26.463  17.451  0.00  0.00     0.033 C 
ATOM     36  C26 MOL d          20.174  27.341  14.796  0.00  0.00     0.065 C 
ATOM     37  O28 MOL d          20.843  28.142  17.002  0.00  0.00    -0.385 OA
ATOM     38  C29 MOL d          21.878  27.807  17.931  0.00  0.00     0.168 C 
ENDBRANCH  30  31
ENDBRANCH  27  30
ENDBRANCH  25  26
BRANCH  25  39
ATOM     39  C32 MOL d          17.187  24.191  20.013  0.00  0.00     0.066 C 
BRANCH  39  40
ATOM     40  C38 MOL d          18.686  23.925  20.140  0.00  0.00    -0.056 C 
ATOM     41  C33 MOL d          19.536  24.964  20.493  0.00  0.00     0.007 C 
ATOM     42  C34 MOL d          20.903  24.752  20.543  0.00  0.00     0.001 C 
ATOM     43  C35 MOL d          21.382  23.464  20.394  0.00  0.00     0.000 C 
ATOM     44  C36 MOL d          20.532  22.422  20.055  0.00  0.00     0.001 C 
ATOM     45  C37 MOL d          19.165  22.637  19.930  0.00  0.00     0.007 C 
ENDBRANCH  39  40
ENDBRANCH  25  39
ENDBRANCH   1  25
TORSDOF 14
