REMARK  10 active torsions:
REMARK  status: ('A' for Active; 'I' for Inactive)
REMARK    1  A    between atoms: C1_1  and  O4_12 
REMARK    2  A    between atoms: C2_2  and  O2_7 
REMARK    3  A    between atoms: C3_3  and  O3_8 
REMARK    4  A    between atoms: C4_4  and  O4_9 
REMARK    5  A    between atoms: C5_5  and  C6_6 
REMARK    6  A    between atoms: C6_6  and  O6_11 
REMARK    7  A    between atoms: O4_12  and  C4_13 
REMARK    8  A    between atoms: C3_14  and  O3_15 
REMARK    9  A    between atoms: C5_19  and  C6_20 
REMARK   10  A    between atoms: C6_20  and  O6_21 
ROOT
ATOM      1  C1  BMA d          12.249  20.344  15.044  0.00  0.00     0.292 C 
ATOM      2  C2  BMA d          13.437  19.945  15.879  0.00  0.00     0.204 C 
ATOM      3  C3  BMA d          13.032  20.021  17.345  0.00  0.00     0.183 C 
ATOM      4  C4  BMA d          12.569  21.438  17.664  0.00  0.00     0.180 C 
ATOM      5  C5  BMA d          11.497  21.916  16.674  0.00  0.00     0.179 C 
ATOM      6  O5  BMA d          11.938  21.726  15.317  0.00  0.00    -0.348 OA
ENDROOT
BRANCH   1   7
ATOM      7  O4  BMA d          12.640  20.348  13.686  0.00  0.00    -0.350 OA
BRANCH   7   8
ATOM      8  C4  BMA d          11.721  19.969  12.667  0.00  0.00     0.162 C 
ATOM      9  C3  BMA d          10.414  20.768  12.721  0.00  0.00     0.173 C 
ATOM     10  C2  BMA d           9.574  20.515  11.461  0.00  0.00     0.266 C 
ATOM     11  N   BMA d          10.344  20.778  10.238  0.00  0.00    -0.072 N 
ATOM     12  C1  BMA d          11.538  19.947  10.157  0.00  0.00     0.241 C 
ATOM     13  H   BMA d          10.621  21.747  10.229  0.00  0.00     0.277 HD
ATOM     14  H   BMA d           9.760  20.588   9.438  0.00  0.00     0.277 HD
ATOM     15  C5  BMA d          12.436  20.267  11.349  0.00  0.00     0.066 C 
BRANCH   9  16
ATOM     16  O3  BMA d           9.590  20.361  13.823  0.00  0.00    -0.391 OA
ATOM     17  H   BMA d           9.375  19.440  13.733  0.00  0.00     0.210 HD
ENDBRANCH   9  16
BRANCH  15  18
ATOM     18  C6  BMA d          13.765  19.529  11.224  0.00  0.00     0.173 C 
BRANCH  18  19
ATOM     19  O6  BMA d          13.606  18.108  11.223  0.00  0.00    -0.400 OA
ATOM     20  H   BMA d          13.196  17.836  12.035  0.00  0.00     0.209 HD
ENDBRANCH  18  19
ENDBRANCH  15  18
ENDBRANCH   7   8
ENDBRANCH   1   7
BRANCH   2  21
ATOM     21  O2  BMA d          14.557  20.814  15.645  0.00  0.00    -0.388 OA
ATOM     22  H   BMA d          15.286  20.542  16.190  0.00  0.00     0.210 HD
ENDBRANCH   2  21
BRANCH   3  23
ATOM     23  O3  BMA d          14.165  19.644  18.168  0.00  0.00    -0.390 OA
ATOM     24  H   BMA d          14.433  18.759  17.950  0.00  0.00     0.210 HD
ENDBRANCH   3  23
BRANCH   5  25
ATOM     25  C6  BMA d          11.168  23.401  16.846  0.00  0.00     0.198 C 
BRANCH  25  26
ATOM     26  O6  BMA d          12.317  24.221  16.704  0.00  0.00    -0.398 OA
ATOM     27  H   BMA d          12.959  23.981  17.362  0.00  0.00     0.209 HD
ENDBRANCH  25  26
ENDBRANCH   5  25
BRANCH   4  28
ATOM     28  O4  BMA d          12.017  21.498  18.991  0.00  0.00    -0.390 OA
ATOM     29  H   BMA d          12.668  21.205  19.617  0.00  0.00     0.210 HD
ENDBRANCH   4  28
TORSDOF 10
