4u4x_ligand

Created by X-TOOL on Sat Nov 28 16:02:34 2015
 25 26  0  0  0  0  0  0  0  0999 V2000
  -24.3710  -18.9470   18.0010  C 0  0  0  3  0  4
  -23.7260  -18.4710   16.7710  N 0  0  0  2  0  3
  -23.4560  -16.8650   16.8340  S 0  0  0  1  0  4
  -24.7540  -16.1490   16.9290  O 0  0  0  1  0  1
  -22.5900  -16.5560   15.6660  O 0  0  0  1  0  1
  -22.5940  -16.6970   18.3290  C 0  0  0  1  0  3
  -21.8460  -15.5820   18.4630  N 0  0  0  1  0  2
  -21.1330  -15.3860   19.6490  C 0  0  0  2  0  3
  -21.1940  -16.3240   20.6560  C 0  0  0  2  0  3
  -21.9670  -17.4660   20.5200  C 0  0  0  2  0  3
  -22.7000  -17.6900   19.3410  C 0  0  0  1  0  3
  -23.4880  -18.7880   19.1750  N 0  0  0  1  0  3
  -23.6070  -19.8530   20.2050  C 0  0  0  3  0  4
  -22.3180  -20.6860   20.2460  C 0  0  0  4  0  4
  -24.6209  -20.0118   17.8840  H 0  0  0  1  0  1
  -25.2928  -18.3701   18.1670  H 0  0  0  1  0  1
  -23.4841  -19.0554   15.9964  H 0  0  0  1  0  1
  -20.5306  -14.4939   19.7767  H 0  0  0  1  0  1
  -20.6293  -16.1665   21.5678  H 0  0  0  1  0  1
  -22.0068  -18.1898   21.3259  H 0  0  0  1  0  1
  -24.4561  -20.5069   19.9573  H 0  0  0  1  0  1
  -23.7745  -19.3915   21.1893  H 0  0  0  1  0  1
  -22.4133  -21.4716   21.0100  H 0  0  0  1  0  1
  -21.4678  -20.0339   20.4948  H 0  0  0  1  0  1
  -22.1494  -21.1493   19.2627  H 0  0  0  1  0  1
  1  2  1  0  0  1
  1 12  1  0  0  1
  2  3  1  0  0  1
  3  4  2  0  0  2
  3  5  2  0  0  2
  3  6  1  0  0  1
  6  7  4  0  0  1
  6 11  4  0  0  1
  7  8  4  0  0  1
  8  9  4  0  0  1
  9 10  4  0  0  1
 10 11  4  0  0  1
 11 12  1  0  0  1
 12 13  1  0  0  2
 13 14  1  0  0  2
  1 15  1  0  0  2
  1 16  1  0  0  2
  2 17  1  0  0  2
  8 18  1  0  0  2
  9 19  1  0  0  2
 10 20  1  0  0  2
 13 21  1  0  0  2
 13 22  1  0  0  2
 14 23  1  0  0  2
 14 24  1  0  0  2
 14 25  1  0  0  2
M  END
> <MOLECULAR_FORMULA>
C8H11N3O2S

> <MOLECULAR_WEIGHT>
213.2

> <NUM_HB_ATOMS>
4  

> <NUM_ROTOR>
1  

> <XLOGP2>
0.85 

$$$$
