REMARK  14 active torsions:
REMARK  status: ('A' for Active; 'I' for Inactive)
REMARK       I    between atoms: C25_2  and  N27_3 
REMARK    1  A    between atoms: C25_2  and  C24_5 
REMARK    2  A    between atoms: C24_5  and  C23_6 
REMARK    3  A    between atoms: C23_6  and  C21_7 
REMARK       I    between atoms: C21_7  and  N20_9 
REMARK    4  A    between atoms: N20_9  and  C19_10 
REMARK    5  A    between atoms: C19_10  and  C32_11 
REMARK    6  A    between atoms: C19_10  and  C17_18 
REMARK    7  A    between atoms: C32_11  and  C38_12 
REMARK    8  A    between atoms: C17_18  and  O18_19 
REMARK    9  A    between atoms: C17_18  and  C16_20 
REMARK   10  A    between atoms: C16_20  and  N11_21 
REMARK   11  A    between atoms: N11_21  and  C12_22 
REMARK   12  A    between atoms: N11_21  and  S8_26 
REMARK   13  A    between atoms: C12_22  and  C13_23 
REMARK   14  A    between atoms: S8_26  and  C5_29 
ROOT
ATOM      1  C19 MUV d          19.636  28.988  14.345  0.00  0.00     0.118 C 
ENDROOT
BRANCH   1   2
ATOM      2  N20 MUV d          20.732  28.214  13.766  0.00  0.00    -0.354 N 
ATOM      3  C21 MUV d          21.523  28.639  12.780  0.00  0.00     0.218 C 
ATOM      4  O22 MUV d          21.395  29.730  12.246  0.00  0.00    -0.274 OA
ATOM      5  H9  MUV d          20.901  27.300  14.136  0.00  0.00     0.163 HD
BRANCH   3   6
ATOM      6  C23 MUV d          22.617  27.709  12.278  0.00  0.00     0.112 C 
BRANCH   6   7
ATOM      7  C24 MUV d          21.907  26.688  11.408  0.00  0.00     0.112 C 
BRANCH   7   8
ATOM      8  C25 MUV d          22.925  25.741  10.807  0.00  0.00     0.217 C 
ATOM      9  O26 MUV d          23.679  25.125  11.556  0.00  0.00    -0.274 OA
ATOM     10  N27 MUV d          22.947  25.590   9.479  0.00  0.00    -0.365 N 
ATOM     11  C28 MUV d          23.849  24.674   8.803  0.00  0.00     0.149 C 
ATOM     12  H1  MUV d          22.314  26.132   8.926  0.00  0.00     0.161 HD
ENDBRANCH   7   8
ENDBRANCH   6   7
ENDBRANCH   3   6
ENDBRANCH   1   2
BRANCH   1  13
ATOM     13  C32 MUV d          18.370  28.131  14.254  0.00  0.00     0.066 C 
BRANCH  13  14
ATOM     14  C38 MUV d          18.104  27.770  12.798  0.00  0.00    -0.056 A 
ATOM     15  C37 MUV d          17.565  28.716  11.931  0.00  0.00     0.007 A 
ATOM     16  C36 MUV d          17.320  28.392  10.595  0.00  0.00     0.001 A 
ATOM     17  C35 MUV d          17.620  27.118  10.123  0.00  0.00     0.000 A 
ATOM     18  C34 MUV d          18.149  26.171  10.990  0.00  0.00     0.001 A 
ATOM     19  C33 MUV d          18.392  26.497  12.318  0.00  0.00     0.007 A 
ENDBRANCH  13  14
ENDBRANCH   1  13
BRANCH   1  20
ATOM     20  C17 MUV d          20.007  29.358  15.791  0.00  0.00     0.155 C 
BRANCH  20  21
ATOM     21  O18 MUV d          20.051  28.188  16.618  0.00  0.00    -0.392 OA
ATOM     22  H19 MUV d          20.281  28.437  17.505  0.00  0.00     0.210 HD
ENDBRANCH  20  21
BRANCH  20  23
ATOM     23  C16 MUV d          19.058  30.405  16.395  0.00  0.00     0.141 C 
BRANCH  23  24
ATOM     24  N11 MUV d          19.353  31.699  15.731  0.00  0.00    -0.202 NA
BRANCH  24  25
ATOM     25  C12 MUV d          20.095  32.644  16.588  0.00  0.00     0.112 C 
BRANCH  25  26
ATOM     26  C13 MUV d          21.544  32.158  16.680  0.00  0.00    -0.000 A 
ATOM     27  C14 MUV d          22.422  32.334  15.441  0.00  0.00     0.006 A 
ATOM     28  C15 MUV d          22.632  33.231  16.652  0.00  0.00     0.006 A 
ENDBRANCH  25  26
ENDBRANCH  24  25
BRANCH  24  29
ATOM     29  S8  MUV d          18.087  32.340  14.948  0.00  0.00     0.266 S 
ATOM     30  O9  MUV d          18.633  33.303  14.035  0.00  0.00    -0.204 OA
ATOM     31  O10 MUV d          17.416  31.288  14.259  0.00  0.00    -0.204 OA
BRANCH  29  32
ATOM     32  C5  MUV d          16.961  33.109  15.900  0.00  0.00     0.184 A 
ATOM     33  O4  MUV d          16.739  34.460  15.921  0.00  0.00    -0.310 OA
ATOM     34  C3  MUV d          15.693  34.658  16.819  0.00  0.00     0.143 A 
ATOM     35  C2  MUV d          15.289  33.423  17.325  0.00  0.00     0.028 A 
ATOM     36  C1  MUV d          16.105  32.418  16.707  0.00  0.00     0.053 A 
ENDBRANCH  29  32
ENDBRANCH  24  29
ENDBRANCH  23  24
ENDBRANCH  20  23
ENDBRANCH   1  20
TORSDOF 14
