REMARK  16 active torsions:
REMARK  status: ('A' for Active; 'I' for Inactive)
REMARK    1  A    between atoms: C24_2  and  C8_4 
REMARK       I    between atoms: C8_4  and  N4_6 
REMARK    2  A    between atoms: N4_6  and  C2_7 
REMARK    3  A    between atoms: N4_6  and  C26_33 
REMARK    4  A    between atoms: C5_10  and  C7_18 
REMARK    5  A    between atoms: C1_12  and  C17_13 
REMARK    6  A    between atoms: C17_13  and  C18_14 
REMARK    7  A    between atoms: C18_14  and  C19_15 
REMARK       I    between atoms: C19_15  and  N3_17 
REMARK    8  A    between atoms: C7_18  and  C9_19 
REMARK    9  A    between atoms: C9_19  and  N1_20 
REMARK   10  A    between atoms: C9_19  and  C11_25 
REMARK   11  A    between atoms: N1_20  and  S1_21 
REMARK       I    between atoms: C11_25  and  N2_27 
REMARK   12  A    between atoms: N2_27  and  C12_28 
REMARK   13  A    between atoms: C12_28  and  C13_29 
REMARK   14  A    between atoms: C13_29  and  C15_30 
REMARK   15  A    between atoms: C15_30  and  C14_31 
REMARK   16  A    between atoms: C25_38  and  C31_39 
ROOT
ATOM      1  C2  MOL d          33.433  28.684  21.024  0.00  0.00     0.049 A 
ATOM      2  C3  MOL d          32.094  29.088  21.337  0.00  0.00     0.031 A 
ATOM      3  C4  MOL d          31.490  30.177  20.705  0.00  0.00     0.009 A 
ATOM      4  C5  MOL d          32.192  30.917  19.728  0.00  0.00    -0.055 A 
ATOM      5  C6  MOL d          33.526  30.544  19.404  0.00  0.00     0.016 A 
ATOM      6  C1  MOL d          34.172  29.438  20.035  0.00  0.00    -0.030 A 
ENDROOT
BRANCH   4   7
ATOM      7  C7  MOL d          31.512  32.076  19.038  0.00  0.00     0.074 C 
BRANCH   7   8
ATOM      8  C9  MOL d          30.993  31.742  17.598  0.00  0.00     0.188 C 
BRANCH   8   9
ATOM      9  N1  MOL d          30.371  32.935  17.034  0.00  0.00    -0.306 N 
ATOM     10  H13 MOL d          29.891  33.584  17.624  0.00  0.00     0.173 HD
BRANCH   9  11
ATOM     11  S1  MOL d          30.478  33.211  15.314  0.00  0.00     0.223 S 
ATOM     12  O4  MOL d          29.382  32.467  14.782  0.00  0.00    -0.206 OA
ATOM     13  O2  MOL d          31.811  32.800  14.972  0.00  0.00    -0.206 OA
ATOM     14  C20 MOL d          30.297  34.947  15.004  0.00  0.00     0.185 C 
ENDBRANCH   9  11
ENDBRANCH   8   9
BRANCH   8  15
ATOM     15  C11 MOL d          30.007  30.540  17.600  0.00  0.00     0.241 C 
ATOM     16  O8  MOL d          30.406  29.381  17.527  0.00  0.00    -0.271 OA
ATOM     17  N2  MOL d          28.705  30.901  17.704  0.00  0.00    -0.359 N 
ATOM     18  H17 MOL d          28.477  31.873  17.762  0.00  0.00     0.162 HD
BRANCH  17  19
ATOM     19  C12 MOL d          27.617  29.915  17.734  0.00  0.00     0.122 C 
BRANCH  19  20
ATOM     20  C13 MOL d          26.496  30.405  18.660  0.00  0.00     0.020 C 
BRANCH  20  21
ATOM     21  C15 MOL d          26.905  30.372  20.142  0.00  0.00     0.001 C 
BRANCH  21  22
ATOM     22  C14 MOL d          26.210  31.458  20.963  0.00  0.00    -0.004 C 
ATOM     23  C16 MOL d          26.002  31.042  22.423  0.00  0.00     0.005 C 
ENDBRANCH  21  22
ENDBRANCH  20  21
ENDBRANCH  19  20
ENDBRANCH  17  19
ENDBRANCH   8  15
ENDBRANCH   7   8
ENDBRANCH   4   7
BRANCH   6  24
ATOM     24  C17 MOL d          35.599  29.099  19.650  0.00  0.00     0.050 C 
BRANCH  24  25
ATOM     25  C18 MOL d          35.782  28.440  18.281  0.00  0.00     0.107 C 
BRANCH  25  26
ATOM     26  C19 MOL d          37.290  28.382  17.945  0.00  0.00     0.215 C 
ATOM     27  O1  MOL d          37.749  28.972  16.983  0.00  0.00    -0.274 OA
ATOM     28  N3  MOL d          38.036  27.641  18.782  0.00  0.00    -0.370 N 
ATOM     29  H8  MOL d          39.021  27.555  18.631  0.00  0.00     0.159 HD
ATOM     30  H9  MOL d          37.606  27.176  19.556  0.00  0.00     0.159 HD
ENDBRANCH  25  26
ENDBRANCH  24  25
ENDBRANCH   6  24
BRANCH   1  31
ATOM     31  N4  MOL d          33.938  27.567  21.721  0.00  0.00    -0.272 N 
ATOM     32  C8  MOL d          34.417  27.753  23.040  0.00  0.00     0.329 C 
ATOM     33  O5  MOL d          34.591  26.800  23.810  0.00  0.00    -0.260 OA
BRANCH  32  34
ATOM     34  C24 MOL d          34.759  29.181  23.579  0.00  0.00     0.270 C 
ATOM     35  O6  MOL d          35.671  29.820  23.144  0.00  0.00    -0.640 OA
ATOM     36  O7  MOL d          33.956  29.686  24.549  0.00  0.00    -0.640 OA
ENDBRANCH  32  34
BRANCH  31  37
ATOM     37  C26 MOL d          33.916  26.260  21.086  0.00  0.00     0.060 A 
ATOM     38  C27 MOL d          32.672  25.832  20.464  0.00  0.00     0.031 A 
ATOM     39  C28 MOL d          32.523  24.592  19.816  0.00  0.00     0.002 A 
ATOM     40  C29 MOL d          33.605  23.700  19.752  0.00  0.00     0.001 A 
ATOM     41  C30 MOL d          34.837  24.055  20.335  0.00  0.00     0.021 A 
ATOM     42  C25 MOL d          35.035  25.302  21.003  0.00  0.00     0.068 A 
BRANCH  42  43
ATOM     43  C31 MOL d          36.407  25.507  21.562  0.00  0.00     0.211 C 
ATOM     44  O9  MOL d          36.911  24.606  22.186  0.00  0.00    -0.644 OA
ATOM     45  O10 MOL d          37.049  26.537  21.453  0.00  0.00    -0.644 OA
ENDBRANCH  42  43
ENDBRANCH  31  37
ENDBRANCH   1  31
TORSDOF 16
