REMARK  7 active torsions:
REMARK  status: ('A' for Active; 'I' for Inactive)
REMARK    1  A    between atoms: C1_1  and  O1_3 
REMARK    2  A    between atoms: C2_2  and  O2_6 
REMARK    3  A    between atoms: C3_5  and  O3_8 
REMARK    4  A    between atoms: C4_7  and  O4_10 
REMARK    5  A    between atoms: C5_9  and  C6_11 
REMARK    6  A    between atoms: C6_11  and  O6_12 
REMARK    7  A    between atoms: O6_12  and  P_13 
ROOT
ATOM      1  C1  BG6 d          68.795  84.734  60.606  0.00  0.00     0.288 C 
ATOM      2  C2  BG6 d          68.010  85.419  61.731  0.00  0.00     0.204 C 
ATOM      3  O5  BG6 d          69.046  83.360  60.970  0.00  0.00    -0.349 OA
ATOM      4  C3  BG6 d          68.970  85.597  62.911  0.00  0.00     0.183 C 
ATOM      5  C4  BG6 d          69.748  84.263  63.135  0.00  0.00     0.180 C 
ATOM      6  C5  BG6 d          70.113  83.361  61.926  0.00  0.00     0.180 C 
ENDROOT
BRANCH   6   7
ATOM      7  C6  BG6 d          70.470  81.943  62.400  0.00  0.00     0.217 C 
BRANCH   7   8
ATOM      8  O6  BG6 d          70.559  80.982  61.325  0.00  0.00    -0.280 OA
BRANCH   8   9
ATOM      9  P   BG6 d          70.644  79.397  61.593  0.00  0.00     0.422 P 
ATOM     10  O1P BG6 d          70.428  78.805  60.215  0.00  0.00    -0.617 OA
ATOM     11  O2P BG6 d          72.032  79.127  62.125  0.00  0.00    -0.617 OA
ATOM     12  O3P BG6 d          69.512  79.080  62.564  0.00  0.00    -0.617 OA
ENDBRANCH   8   9
ENDBRANCH   7   8
ENDBRANCH   6   7
BRANCH   5  13
ATOM     13  O4  BG6 d          70.967  84.537  63.834  0.00  0.00    -0.390 OA
ATOM     14  H9  BG6 d          70.783  85.090  64.585  0.00  0.00     0.210 HD
ENDBRANCH   5  13
BRANCH   1  15
ATOM     15  O1  BG6 d          68.156  84.897  59.353  0.00  0.00    -0.369 OA
ATOM     16  H3  BG6 d          68.025  85.823  59.184  0.00  0.00     0.212 HD
ENDBRANCH   1  15
BRANCH   4  17
ATOM     17  O3  BG6 d          68.170  85.916  64.105  0.00  0.00    -0.390 OA
ATOM     18  H7  BG6 d          67.699  86.729  63.962  0.00  0.00     0.210 HD
ENDBRANCH   4  17
BRANCH   2  19
ATOM     19  O2  BG6 d          67.442  86.678  61.314  0.00  0.00    -0.388 OA
ATOM     20  H5  BG6 d          66.853  86.532  60.583  0.00  0.00     0.210 HD
ENDBRANCH   2  19
TORSDOF 7
