3l1n_ligand

Created by X-TOOL on Fri Sep 26 17:34:47 2014
 49 48  0  0  0  0  0  0  0  0999 V2000
    8.0240   16.1360   37.0170  C 0  5  0  1  0  3
    8.8030   15.2590   37.4570  O 0  0  0  1  0  1
    8.3200   16.7100   35.9460  O 0  0  0  1  0  1
    6.7390   16.4880   37.7360  C 0  0  0  3  0  4
    6.9460   16.6960   39.2350  C 0  0  0  3  0  4
    5.6200   17.0240   39.9190  C 0  0  0  3  0  4
    5.7750   17.3450   41.4050  C 0  0  0  3  0  4
    5.4300   16.1420   42.2780  C 0  0  0  3  0  4
    5.2610   16.5080   43.7500  C 0  0  0  3  0  4
    5.1260   15.2610   44.6200  C 0  0  0  3  0  4
    5.2690   15.5870   46.1040  C 0  0  0  3  0  4
    4.6520   14.5100   46.9900  C 0  0  0  3  0  4
    4.7630   14.8790   48.4690  C 0  0  0  3  0  4
    3.5780   15.7180   48.9460  C 0  0  0  3  0  4
    2.5850   14.8820   49.7490  C 0  0  0  3  0  4
    1.3630   15.6860   50.1790  C 0  0  0  3  0  4
    0.4470   14.8510   51.0670  C 0  0  0  3  0  4
   -0.7340   15.6630   51.5840  C 0  0  0  4  0  4
    6.0175   15.6707   37.5896  H 0  0  0  1  0  1
    6.3354   17.4154   37.3036  H 0  0  0  1  0  1
    7.6490   17.5275   39.3912  H 0  0  0  1  0  1
    7.3617   15.7770   39.6738  H 0  0  0  1  0  1
    4.9494   16.1581   39.8161  H 0  0  0  1  0  1
    5.1735   17.8953   39.4175  H 0  0  0  1  0  1
    5.1034   18.1773   41.6625  H 0  0  0  1  0  1
    6.8165   17.6405   41.5998  H 0  0  0  1  0  1
    6.2384   15.4011   42.1908  H 0  0  0  1  0  1
    4.4892   15.7026   41.9150  H 0  0  0  1  0  1
    4.3570   17.1242   43.8645  H 0  0  0  1  0  1
    6.1399   17.0814   44.0798  H 0  0  0  1  0  1
    5.9091   14.5424   44.3363  H 0  0  0  1  0  1
    4.1366   14.8121   44.4479  H 0  0  0  1  0  1
    4.7663   16.5441   46.3070  H 0  0  0  1  0  1
    6.3383   15.6758   46.3462  H 0  0  0  1  0  1
    5.1774   13.5591   46.8173  H 0  0  0  1  0  1
    3.5899   14.3950   46.7279  H 0  0  0  1  0  1
    5.6882   15.4539   48.6221  H 0  0  0  1  0  1
    4.8036   13.9539   49.0627  H 0  0  0  1  0  1
    3.0634   16.1396   48.0700  H 0  0  0  1  0  1
    3.9516   16.5353   49.5803  H 0  0  0  1  0  1
    3.0906   14.4998   50.6480  H 0  0  0  1  0  1
    2.2516   14.0371   49.1286  H 0  0  0  1  0  1
    0.8068   16.0021   49.2842  H 0  0  0  1  0  1
    1.6943   16.5739   50.7374  H 0  0  0  1  0  1
    1.0257   14.4785   51.9250  H 0  0  0  1  0  1
    0.0657   13.9995   50.4844  H 0  0  0  1  0  1
   -1.3676   15.0256   52.2182  H 0  0  0  1  0  1
   -1.3235   16.0353   50.7332  H 0  0  0  1  0  1
   -0.3635   16.5143   52.1739  H 0  0  0  1  0  1
  1  2  2  0  0  2
  1  3  2  0  0  2
  1  4  1  0  0  2
  4  5  1  0  0  2
  5  6  1  0  0  2
  6  7  1  0  0  2
  7  8  1  0  0  2
  8  9  1  0  0  2
  9 10  1  0  0  2
 10 11  1  0  0  2
 11 12  1  0  0  2
 12 13  1  0  0  2
 13 14  1  0  0  2
 14 15  1  0  0  2
 15 16  1  0  0  2
 16 17  1  0  0  2
 17 18  1  0  0  2
  4 19  1  0  0  2
  4 20  1  0  0  2
  5 21  1  0  0  2
  5 22  1  0  0  2
  6 23  1  0  0  2
  6 24  1  0  0  2
  7 25  1  0  0  2
  7 26  1  0  0  2
  8 27  1  0  0  2
  8 28  1  0  0  2
  9 29  1  0  0  2
  9 30  1  0  0  2
 10 31  1  0  0  2
 10 32  1  0  0  2
 11 33  1  0  0  2
 11 34  1  0  0  2
 12 35  1  0  0  2
 12 36  1  0  0  2
 13 37  1  0  0  2
 13 38  1  0  0  2
 14 39  1  0  0  2
 14 40  1  0  0  2
 15 41  1  0  0  2
 15 42  1  0  0  2
 16 43  1  0  0  2
 16 44  1  0  0  2
 17 45  1  0  0  2
 17 46  1  0  0  2
 18 47  1  0  0  2
 18 48  1  0  0  2
 18 49  1  0  0  2
M  END
> <MOLECULAR_FORMULA>
C16H31O2

> <MOLECULAR_WEIGHT>
255.2

> <NUM_HB_ATOMS>
2  

> <NUM_ROTOR>
13 

> <XLOGP2>
5.92 

$$$$
