REMARK  1 active torsions:
REMARK  status: ('A' for Active; 'I' for Inactive)
REMARK    1  A    between atoms: C16_16  and  N18_18 
ROOT
ATOM      1  C1  VHE d         -11.718  -5.310 -10.661  0.00  0.00     0.000 A 
ATOM      2  C2  VHE d         -10.644  -6.010 -11.230  0.00  0.00    -0.049 A 
ATOM      3  C3  VHE d          -9.340  -5.739 -10.706  0.00  0.00     0.015 A 
ATOM      4  C4  VHE d          -9.106  -4.811  -9.666  0.00  0.00    -0.046 A 
ATOM      5  C5  VHE d         -10.199  -4.110  -9.147  0.00  0.00     0.038 A 
ATOM      6  C6  VHE d         -11.493  -4.368  -9.611  0.00  0.00     0.032 A 
ATOM      7  C7  VHE d         -10.127  -3.139  -8.069  0.00  0.00     0.252 C 
ATOM      8  C8  VHE d          -7.670  -4.579  -9.197  0.00  0.00     0.049 C 
ATOM      9  O9  VHE d          -9.543  -3.382  -6.973  0.00  0.00    -0.268 OA
ATOM     10  N10 VHE d         -10.775  -1.945  -8.318  0.00  0.00    -0.357 N 
ATOM     11  C11 VHE d         -10.796  -7.017 -12.392  0.00  0.00     0.049 C 
ATOM     12  C12 VHE d         -13.102  -5.409 -11.131  0.00  0.00     0.089 A 
ATOM     13  C13 VHE d         -13.784  -4.218 -11.485  0.00  0.00     0.072 A 
ATOM     14  C14 VHE d         -15.084  -4.384 -11.949  0.00  0.00     0.114 A 
ATOM     15  N15 VHE d         -15.703  -5.552 -12.055  0.00  0.00    -0.056 NA
ATOM     16  C16 VHE d         -14.966  -6.666 -11.698  0.00  0.00     0.721 A 
ATOM     17  N17 VHE d         -13.689  -6.595 -11.256  0.00  0.00    -0.062 NA
ATOM     18  C19 VHE d         -10.830  -0.871  -7.269  0.00  0.00     0.124 C 
ATOM     19  C20 VHE d         -11.979   0.101  -7.652  0.00  0.00     0.039 C 
ATOM     20  C21 VHE d         -13.350  -0.411  -7.221  0.00  0.00     0.124 C 
ATOM     21  N22 VHE d         -14.044  -1.339  -8.165  0.00  0.00    -0.361 N 
ATOM     22  C23 VHE d         -14.891  -0.860  -9.153  0.00  0.00     0.218 C 
ATOM     23  C24 VHE d         -15.570  -1.879 -10.013  0.00  0.00     0.113 C 
ATOM     24  O25 VHE d         -15.091   0.372  -9.317  0.00  0.00    -0.274 OA
ATOM     25  C26 VHE d         -15.354  -1.612 -11.532  0.00  0.00     0.090 C 
ATOM     26  S27 VHE d         -16.099  -3.034 -12.450  0.00  0.00    -0.109 SA
ATOM     27  H6  VHE d         -11.212  -1.794  -9.205  0.00  0.00     0.162 HD
ATOM     28  H19 VHE d         -13.895  -2.324  -8.082  0.00  0.00     0.162 HD
ENDROOT
BRANCH  16  29
ATOM     29  N18 VHE d         -15.544  -7.948 -11.756  0.00  0.00    -0.231 N 
ATOM     30  H11 VHE d         -16.514  -8.061 -12.085  0.00  0.00     0.174 HD
ATOM     31  H12 VHE d         -14.998  -8.773 -11.470  0.00  0.00     0.174 HD
ENDBRANCH  16  29
TORSDOF 1
