REMARK  14 active torsions:
REMARK  status: ('A' for Active; 'I' for Inactive)
REMARK    1  A    between atoms: C2_2  and  N1_1 
REMARK    2  A    between atoms: S8_8  and  C5_5 
REMARK    3  A    between atoms: N11_11  and  S8_8 
REMARK    4  A    between atoms: N11_11  and  C12_12 
REMARK    5  A    between atoms: C16_16  and  N11_11 
REMARK    6  A    between atoms: C12_12  and  C13_13 
REMARK    7  A    between atoms: C17_17  and  C16_16 
REMARK    8  A    between atoms: C17_17  and  O18_18 
REMARK    9  A    between atoms: C19_19  and  C17_17 
REMARK   10  A    between atoms: C19_19  and  N20_20 
REMARK   11  A    between atoms: C32_32  and  C19_19 
REMARK       I    between atoms: N20_20  and  C21_21 
REMARK   12  A    between atoms: C21_21  and  O23_23 
REMARK   13  A    between atoms: O23_23  and  C24_24 
REMARK   14  A    between atoms: C38_38  and  C32_32 
ROOT
ATOM      1  C17 MOL d           1.498   6.428  37.559  0.00  0.00     0.160 C 
ENDROOT
BRANCH   1   2
ATOM      2  C16 MOL d           0.805   6.734  36.231  0.00  0.00     0.169 C 
BRANCH   2   3
ATOM      3  N11 MOL d           0.174   8.066  36.243  0.00  0.00    -0.304 N 
BRANCH   3   4
ATOM      4  S8  MOL d           0.789   9.259  35.252  0.00  0.00     0.260 S 
ATOM      5  O9  MOL d           2.231   9.068  35.195  0.00  0.00    -0.200 OA
ATOM      6  O10 MOL d           0.287  10.461  35.781  0.00  0.00    -0.200 OA
BRANCH   4   7
ATOM      7  C5  MOL d           0.198   9.066  33.628  0.00  0.00     0.079 A 
ATOM      8  C4  MOL d           0.920   8.346  32.710  0.00  0.00     0.027 A 
ATOM      9  C3  MOL d           0.425   8.088  31.473  0.00  0.00     0.030 A 
ATOM     10  C2  MOL d          -0.828   8.549  31.102  0.00  0.00     0.025 A 
ATOM     11  C7  MOL d          -1.561   9.287  32.045  0.00  0.00     0.030 A 
ATOM     12  C6  MOL d          -1.048   9.549  33.314  0.00  0.00     0.027 A 
BRANCH  10  13
ATOM     13  N1  MOL d          -1.294   8.262  29.830  0.00  0.00    -0.399 N 
ATOM     14  H1  MOL d          -0.712   7.716  29.179  0.00  0.00     0.156 HD
ATOM     15  H2  MOL d          -2.223   8.595  29.535  0.00  0.00     0.156 HD
ENDBRANCH  10  13
ENDBRANCH   4   7
ENDBRANCH   3   4
BRANCH   3  16
ATOM     16  C12 MOL d          -1.291   8.019  36.391  0.00  0.00     0.139 C 
BRANCH  16  17
ATOM     17  C13 MOL d          -1.750   7.673  37.790  0.00  0.00    -0.004 C 
ATOM     18  C14 MOL d          -1.245   8.656  38.822  0.00  0.00     0.011 C 
ATOM     19  C15 MOL d          -3.253   7.546  37.852  0.00  0.00     0.011 C 
ENDBRANCH  16  17
ENDBRANCH   3  16
ENDBRANCH   2   3
ENDBRANCH   1   2
BRANCH   1  20
ATOM     20  O18 MOL d           1.862   5.046  37.591  0.00  0.00    -0.392 OA
ATOM     21  H19 MOL d           2.293   4.852  38.415  0.00  0.00     0.210 HD
ENDBRANCH   1  20
BRANCH   1  22
ATOM     22  C19 MOL d           2.736   7.297  37.868  0.00  0.00     0.121 C 
BRANCH  22  23
ATOM     23  N20 MOL d           3.103   7.079  39.253  0.00  0.00    -0.329 N 
ATOM     24  C21 MOL d           2.937   8.029  40.201  0.00  0.00     0.361 C 
ATOM     25  O22 MOL d           2.528   9.200  40.072  0.00  0.00    -0.238 OA
ATOM     26  H21 MOL d           3.492   6.196  39.517  0.00  0.00     0.165 HD
BRANCH  24  27
ATOM     27  O23 MOL d           3.303   7.509  41.391  0.00  0.00    -0.296 OA
BRANCH  27  28
ATOM     28  C24 MOL d           3.422   8.464  42.509  0.00  0.00     0.166 C 
ATOM     29  C25 MOL d           2.976   7.643  43.778  0.00  0.00     0.204 C 
ATOM     30  O26 MOL d           4.098   6.786  44.065  0.00  0.00    -0.358 OA
ATOM     31  C27 MOL d           5.285   7.552  43.752  0.00  0.00     0.266 C 
ATOM     32  O28 MOL d           6.125   6.730  43.008  0.00  0.00    -0.361 OA
ATOM     33  C31 MOL d           4.881   8.732  42.840  0.00  0.00     0.075 C 
ATOM     34  C29 MOL d           6.267   7.206  41.649  0.00  0.00     0.171 C 
ATOM     35  C30 MOL d           5.874   8.670  41.700  0.00  0.00     0.038 C 
ENDBRANCH  27  28
ENDBRANCH  24  27
ENDBRANCH  22  23
BRANCH  22  36
ATOM     36  C32 MOL d           3.956   7.047  36.958  0.00  0.00     0.066 C 
BRANCH  36  37
ATOM     37  C38 MOL d           5.124   7.949  37.362  0.00  0.00    -0.056 A 
ATOM     38  C33 MOL d           6.239   7.367  37.969  0.00  0.00     0.007 A 
ATOM     39  C34 MOL d           7.321   8.175  38.350  0.00  0.00     0.001 A 
ATOM     40  C35 MOL d           7.262   9.516  38.128  0.00  0.00     0.000 A 
ATOM     41  C36 MOL d           6.149  10.080  37.521  0.00  0.00     0.001 A 
ATOM     42  C37 MOL d           5.091   9.316  37.147  0.00  0.00     0.007 A 
ENDBRANCH  36  37
ENDBRANCH  22  36
ENDBRANCH   1  22
TORSDOF 14
