REMARK  23 active torsions:
REMARK  status: ('A' for Active; 'I' for Inactive)
REMARK    1  A    between atoms: CA1_2  and  N1_1 
REMARK    2  A    between atoms: CA1_2  and  C1_3 
REMARK    3  A    between atoms: CB1_6  and  CA1_2 
REMARK    4  A    between atoms: CG1_7  and  CB1_6 
REMARK    5  A    between atoms: CD1_8  and  CG1_7 
REMARK       I    between atoms: N2_10  and  CD1_8 
REMARK    6  A    between atoms: CA2_11  and  N2_10 
REMARK    7  A    between atoms: CA2_11  and  C2_12 
REMARK    8  A    between atoms: CB2_14  and  CA2_11 
REMARK       I    between atoms: C2_12  and  N3_16 
REMARK    9  A    between atoms: SG2_15  and  CB2_14 
REMARK   10  A    between atoms: SG5_31  and  SG2_15 
REMARK   11  A    between atoms: N3_16  and  CA3_17 
REMARK   12  A    between atoms: CA3_17  and  C3_18 
REMARK   13  A    between atoms: N4_21  and  CA4_22 
REMARK       I    between atoms: C5_26  and  N4_21 
REMARK   14  A    between atoms: CA4_22  and  C4_23 
REMARK   15  A    between atoms: CA5_28  and  C5_26 
REMARK   16  A    between atoms: N5_29  and  CA5_28 
REMARK   17  A    between atoms: CA5_28  and  CB5_30 
REMARK       I    between atoms: CD6_39  and  N5_29 
REMARK   18  A    between atoms: CB5_30  and  SG5_31 
REMARK   19  A    between atoms: CA6_32  and  C6_33 
REMARK   20  A    between atoms: CA6_32  and  N6_36 
REMARK   21  A    between atoms: CB6_37  and  CA6_32 
REMARK   22  A    between atoms: CG6_38  and  CB6_37 
REMARK   23  A    between atoms: CG6_38  and  CD6_39 
ROOT
ATOM      1  SG2 GDS d           2.549  16.977  10.708  0.00  0.00    -0.095 SA
ENDROOT
BRANCH   1   2
ATOM      2  CB2 GDS d           1.014  17.826  10.275  0.00  0.00     0.120 C 
BRANCH   2   3
ATOM      3  CA2 GDS d           0.864  17.890   8.737  0.00  0.00     0.186 C 
BRANCH   3   4
ATOM      4  N2  GDS d           1.819  18.853   8.154  0.00  0.00    -0.347 N 
ATOM      5  CD1 GDS d           2.708  18.480   7.166  0.00  0.00     0.218 C 
ATOM      6  O1  GDS d           2.756  17.331   6.760  0.00  0.00    -0.274 OA
ATOM      7  H9  GDS d           1.822  19.797   8.482  0.00  0.00     0.163 HD
BRANCH   5   8
ATOM      8  CG1 GDS d           3.573  19.599   6.679  0.00  0.00     0.105 C 
BRANCH   8   9
ATOM      9  CB1 GDS d           4.494  19.068   5.556  0.00  0.00     0.053 C 
BRANCH   9  10
ATOM     10  CA1 GDS d           5.300  20.236   4.885  0.00  0.00     0.283 C 
BRANCH  10  11
ATOM     11  N1  GDS d           6.202  19.736   3.779  0.00  0.00    -0.065 N 
ATOM     12  H1  GDS d           5.649  19.262   3.082  0.00  0.00     0.275 HD
ATOM     13  H2  GDS d           6.880  19.096   4.162  0.00  0.00     0.275 HD
ATOM     14  H3  GDS d           6.679  20.517   3.356  0.00  0.00     0.275 HD
ENDBRANCH  10  11
BRANCH  10  15
ATOM     15  C1  GDS d           6.128  20.987   6.002  0.00  0.00     0.204 C 
ATOM     16  OE1 GDS d           7.301  20.589   6.271  0.00  0.00    -0.646 OA
ATOM     17  OE2 GDS d           5.586  22.006   6.518  0.00  0.00    -0.646 OA
ENDBRANCH  10  15
ENDBRANCH   9  10
ENDBRANCH   8   9
ENDBRANCH   5   8
ENDBRANCH   3   4
BRANCH   3  18
ATOM     18  C2  GDS d          -0.552  18.357   8.502  0.00  0.00     0.241 C 
ATOM     19  O2  GDS d          -0.839  19.548   8.654  0.00  0.00    -0.271 OA
ATOM     20  N3  GDS d          -1.467  17.409   8.211  0.00  0.00    -0.349 N 
ATOM     21  H13 GDS d          -1.193  16.451   8.128  0.00  0.00     0.163 HD
BRANCH  20  22
ATOM     22  CA3 GDS d          -2.839  17.791   8.022  0.00  0.00     0.235 C 
BRANCH  22  23
ATOM     23  C3  GDS d          -3.419  17.131   6.776  0.00  0.00     0.191 C 
ATOM     24  OE3 GDS d          -4.658  17.172   6.615  0.00  0.00    -0.647 OA
ATOM     25  OE4 GDS d          -2.585  16.660   5.981  0.00  0.00    -0.647 OA
ENDBRANCH  22  23
ENDBRANCH  20  22
ENDBRANCH   3  18
ENDBRANCH   2   3
ENDBRANCH   1   2
BRANCH   1  26
ATOM     26  SG5 GDS d           1.964  14.914  10.634  0.00  0.00    -0.095 SA
BRANCH  26  27
ATOM     27  CB5 GDS d           2.989  14.135   9.328  0.00  0.00     0.120 C 
BRANCH  27  28
ATOM     28  CA5 GDS d           2.255  14.156   7.983  0.00  0.00     0.186 C 
BRANCH  28  29
ATOM     29  C5  GDS d           3.263  13.785   6.903  0.00  0.00     0.241 C 
ATOM     30  N4  GDS d           4.012  14.795   6.352  0.00  0.00    -0.349 N 
ATOM     31  H16 GDS d           3.873  15.736   6.659  0.00  0.00     0.163 HD
ATOM     32  O5  GDS d           3.377  12.600   6.586  0.00  0.00    -0.271 OA
BRANCH  30  33
ATOM     33  CA4 GDS d           5.016  14.511   5.317  0.00  0.00     0.235 C 
BRANCH  33  34
ATOM     34  C4  GDS d           6.202  15.503   5.501  0.00  0.00     0.191 C 
ATOM     35  OE5 GDS d           6.476  15.903   6.662  0.00  0.00    -0.647 OA
ATOM     36  OE6 GDS d           6.808  15.816   4.456  0.00  0.00    -0.647 OA
ENDBRANCH  33  34
ENDBRANCH  30  33
ENDBRANCH  28  29
BRANCH  28  37
ATOM     37  N5  GDS d           1.118  13.193   7.989  0.00  0.00    -0.347 N 
ATOM     38  CD6 GDS d          -0.204  13.655   7.783  0.00  0.00     0.218 C 
ATOM     39  O6  GDS d          -0.420  14.861   7.615  0.00  0.00    -0.274 OA
ATOM     40  H20 GDS d           1.289  12.219   8.139  0.00  0.00     0.163 HD
BRANCH  38  41
ATOM     41  CG6 GDS d          -1.265  12.563   7.830  0.00  0.00     0.105 C 
BRANCH  41  42
ATOM     42  CB6 GDS d          -2.519  12.978   7.045  0.00  0.00     0.053 C 
BRANCH  42  43
ATOM     43  CA6 GDS d          -2.218  13.309   5.553  0.00  0.00     0.283 C 
BRANCH  43  44
ATOM     44  C6  GDS d          -1.991  11.934   4.805  0.00  0.00     0.204 C 
ATOM     45  OE7 GDS d          -2.914  11.487   4.090  0.00  0.00    -0.646 OA
ATOM     46  OE8 GDS d          -0.882  11.382   4.969  0.00  0.00    -0.646 OA
ENDBRANCH  43  44
BRANCH  43  47
ATOM     47  N6  GDS d          -3.296  14.060   4.910  0.00  0.00    -0.065 N 
ATOM     48  H24 GDS d          -3.432  14.934   5.394  0.00  0.00     0.275 HD
ATOM     49  H25 GDS d          -4.147  13.521   4.943  0.00  0.00     0.275 HD
ATOM     50  H26 GDS d          -3.052  14.243   3.949  0.00  0.00     0.275 HD
ENDBRANCH  43  47
ENDBRANCH  42  43
ENDBRANCH  41  42
ENDBRANCH  38  41
ENDBRANCH  28  37
ENDBRANCH  27  28
ENDBRANCH  26  27
ENDBRANCH   1  26
TORSDOF 23
