REMARK  31 active torsions:
REMARK  status: ('A' for Active; 'I' for Inactive)
REMARK    1  A    between atoms: CA_2  and  N_1 
REMARK    2  A    between atoms: C_3  and  CA_2 
REMARK    3  A    between atoms: CA_2  and  CB_5 
REMARK       I    between atoms: N_10  and  C_3 
REMARK    4  A    between atoms: CB_5  and  CG_6 
REMARK    5  A    between atoms: CG_6  and  CD_7 
REMARK    6  A    between atoms: CA_11  and  N_10 
REMARK    7  A    between atoms: C_12  and  CA_11 
REMARK    8  A    between atoms: CA_11  and  CB_14 
REMARK       I    between atoms: N_17  and  C_12 
REMARK    9  A    between atoms: CA_18  and  N_17 
REMARK   10  A    between atoms: C_19  and  CA_18 
REMARK   11  A    between atoms: CA_18  and  CB_21 
REMARK       I    between atoms: N_29  and  C_19 
REMARK   12  A    between atoms: CB_21  and  CG_22 
REMARK       I    between atoms: CG_22  and  ND2_24 
REMARK   13  A    between atoms: CB_28  and  CG_27 
REMARK   14  A    between atoms: CA_30  and  CB_28 
REMARK   15  A    between atoms: N_29  and  CA_30 
REMARK   16  A    between atoms: CA_30  and  C_31 
REMARK   17  A    between atoms: C_31  and  O_32 
REMARK   18  A    between atoms: C_31  and  CM_33 
REMARK   19  A    between atoms: CM_33  and  CA_34 
REMARK   20  A    between atoms: CA_34  and  C_36 
REMARK       I    between atoms: C_36  and  N_38 
REMARK   21  A    between atoms: N_38  and  CA_39 
REMARK   22  A    between atoms: CA_39  and  C_40 
REMARK       I    between atoms: C_40  and  N_43 
REMARK   23  A    between atoms: N_43  and  CA_44 
REMARK   24  A    between atoms: CA_44  and  C_45 
REMARK   25  A    between atoms: CA_44  and  CB_47 
REMARK       I    between atoms: C_45  and  N_52 
REMARK   26  A    between atoms: CB_47  and  CG_48 
REMARK   27  A    between atoms: CG_48  and  CD_49 
REMARK   28  A    between atoms: N_52  and  CA_53 
REMARK   29  A    between atoms: CA_53  and  C_54 
REMARK   30  A    between atoms: CA_53  and  CB_56 
REMARK   31  A    between atoms: CB_56  and  CG_57 
ROOT
ATOM      1  CA  MOL d          13.733  -2.113  -0.057  0.00  0.00     0.113 C 
ENDROOT
BRANCH   1   2
ATOM      2  CB  MOL d          15.131  -1.588  -0.435  0.00  0.00     0.031 C 
BRANCH   2   3
ATOM      3  CG  MOL d          15.109  -0.894  -1.811  0.00  0.00    -0.021 C 
ATOM      4  CD1 MOL d          16.351   0.024  -2.004  0.00  0.00     0.009 C 
ATOM      5  CD2 MOL d          15.055  -1.969  -2.899  0.00  0.00     0.009 C 
ENDBRANCH   2   3
ENDBRANCH   1   2
BRANCH   1   6
ATOM      6  N   MOL d          12.818  -0.983  -0.033  0.00  0.00    -0.352 N 
ATOM      7  C   MOL d          11.651  -1.001  -0.662  0.00  0.00     0.241 C 
ATOM      8  O   MOL d          11.216  -1.993  -1.262  0.00  0.00    -0.271 OA
ATOM      9  H33 MOL d          13.078  -0.163   0.476  0.00  0.00     0.163 HD
BRANCH   7  10
ATOM     10  CA  MOL d          10.848   0.283  -0.577  0.00  0.00     0.185 C 
BRANCH  10  11
ATOM     11  CB  MOL d           9.432   0.074  -1.114  0.00  0.00     0.137 C 
BRANCH  11  12
ATOM     12  CG  MOL d           8.493   1.181  -0.686  0.00  0.00     0.217 C 
ATOM     13  OD1 MOL d           8.066   1.214   0.462  0.00  0.00    -0.274 OA
ATOM     14  ND2 MOL d           8.180   2.105  -1.612  0.00  0.00    -0.370 N 
ATOM     15  H22 MOL d           7.563   2.857  -1.379  0.00  0.00     0.159 HD
ATOM     16  H23 MOL d           8.564   2.040  -2.533  0.00  0.00     0.159 HD
ENDBRANCH  11  12
ENDBRANCH  10  11
BRANCH  10  17
ATOM     17  N   MOL d          11.558   1.247  -1.392  0.00  0.00    -0.346 N 
ATOM     18  C   MOL d          11.634   2.532  -1.073  0.00  0.00     0.241 C 
ATOM     19  O   MOL d          11.023   3.034  -0.115  0.00  0.00    -0.271 OA
ATOM     20  H18 MOL d          12.008   0.931  -2.227  0.00  0.00     0.163 HD
BRANCH  18  21
ATOM     21  CA  MOL d          12.459   3.376  -2.010  0.00  0.00     0.180 C 
BRANCH  21  22
ATOM     22  CB  MOL d          13.943   3.379  -1.521  0.00  0.00     0.009 C 
ATOM     23  CG1 MOL d          14.885   3.684  -2.713  0.00  0.00     0.012 C 
ATOM     24  CG2 MOL d          14.143   4.384  -0.370  0.00  0.00     0.012 C 
ENDBRANCH  21  22
BRANCH  21  25
ATOM     25  N   MOL d          11.846   4.691  -2.054  0.00  0.00    -0.346 N 
ATOM     26  C   MOL d          11.459   5.216  -3.206  0.00  0.00     0.249 C 
ATOM     27  O   MOL d          11.685   4.668  -4.278  0.00  0.00    -0.271 OA
ATOM     28  H9  MOL d          11.715   5.205  -1.206  0.00  0.00     0.163 HD
BRANCH  26  29
ATOM     29  CA  MOL d          10.741   6.575  -3.159  0.00  0.00     0.275 C 
BRANCH  29  30
ATOM     30  CB  MOL d           9.229   6.322  -3.194  0.00  0.00     0.053 C 
BRANCH  30  31
ATOM     31  CG  MOL d           8.683   5.692  -1.902  0.00  0.00     0.115 C 
BRANCH  31  32
ATOM     32  CD  MOL d           7.195   5.392  -1.955  0.00  0.00     0.172 C 
ATOM     33  OE1 MOL d           6.504   5.978  -2.826  0.00  0.00    -0.648 OA
ATOM     34  OE2 MOL d           6.706   4.589  -1.128  0.00  0.00    -0.648 OA
ENDBRANCH  31  32
ENDBRANCH  30  31
ENDBRANCH  29  30
BRANCH  29  35
ATOM     35  N   MOL d          11.157   7.433  -4.314  0.00  0.00    -0.066 N 
ATOM     36  H1  MOL d          10.676   8.318  -4.266  0.00  0.00     0.275 HD
ATOM     37  H2  MOL d          10.922   6.970  -5.178  0.00  0.00     0.275 HD
ATOM     38  H3  MOL d          12.152   7.589  -4.276  0.00  0.00     0.275 HD
ENDBRANCH  29  35
ENDBRANCH  26  29
ENDBRANCH  21  25
ENDBRANCH  18  21
ENDBRANCH  10  17
ENDBRANCH   7  10
ENDBRANCH   1   6
BRANCH   1  39
ATOM     39  C   MOL d          13.765  -2.881   1.280  0.00  0.00     0.141 C 
BRANCH  39  40
ATOM     40  O   MOL d          14.354  -2.071   2.313  0.00  0.00    -0.393 OA
ATOM     41  H36 MOL d          14.366  -2.559   3.128  0.00  0.00     0.210 HD
ENDBRANCH  39  40
BRANCH  39  42
ATOM     42  CM  MOL d          12.355  -3.328   1.708  0.00  0.00     0.047 C 
BRANCH  42  43
ATOM     43  CA  MOL d          12.303  -4.570   2.603  0.00  0.00     0.076 C 
ATOM     44  CB  MOL d          11.028  -4.569   3.448  0.00  0.00     0.020 C 
BRANCH  43  45
ATOM     45  C   MOL d          12.339  -5.826   1.721  0.00  0.00     0.222 C 
ATOM     46  O   MOL d          11.603  -5.891   0.720  0.00  0.00    -0.273 OA
ATOM     47  N   MOL d          13.217  -6.778   2.074  0.00  0.00    -0.348 N 
ATOM     48  H43 MOL d          13.834  -6.596   2.840  0.00  0.00     0.163 HD
BRANCH  47  49
ATOM     49  CA  MOL d          13.315  -8.071   1.392  0.00  0.00     0.172 C 
ATOM     50  CB  MOL d          14.389  -8.932   2.012  0.00  0.00     0.042 C 
BRANCH  49  51
ATOM     51  C   MOL d          11.929  -8.667   1.577  0.00  0.00     0.240 C 
ATOM     52  O   MOL d          11.366  -8.705   2.710  0.00  0.00    -0.271 OA
ATOM     53  N   MOL d          11.414  -9.285   0.438  0.00  0.00    -0.346 N 
ATOM     54  H48 MOL d          12.064  -9.482  -0.296  0.00  0.00     0.163 HD
BRANCH  53  55
ATOM     55  CA  MOL d           9.988  -9.686   0.196  0.00  0.00     0.177 C 
BRANCH  55  56
ATOM     56  C   MOL d           9.201 -10.695   0.998  0.00  0.00     0.241 C 
ATOM     57  O   MOL d           9.336 -11.907   1.087  0.00  0.00    -0.271 OA
ATOM     58  N   MOL d           8.330  -9.780   1.583  0.00  0.00    -0.344 N 
ATOM     59  H54 MOL d           8.591  -8.887   1.216  0.00  0.00     0.163 HD
BRANCH  58  60
ATOM     60  CA  MOL d           7.191  -9.518   2.502  0.00  0.00     0.189 C 
BRANCH  60  61
ATOM     61  C   MOL d           7.151 -10.435   3.738  0.00  0.00     0.197 C 
ATOM     62  OXT MOL d           6.123 -10.480   4.474  0.00  0.00    -0.646 OA
ATOM     63  O   MOL d           8.132 -11.103   4.167  0.00  0.00    -0.646 OA
ENDBRANCH  60  61
BRANCH  60  64
ATOM     64  CB  MOL d           5.897  -9.491   1.743  0.00  0.00     0.074 C 
BRANCH  64  65
ATOM     65  CG  MOL d           5.473 -10.880   1.596  0.00  0.00    -0.056 A 
ATOM     66  CD2 MOL d           4.153 -11.259   1.768  0.00  0.00     0.007 A 
ATOM     67  CE2 MOL d           3.787 -12.586   1.647  0.00  0.00     0.001 A 
ATOM     68  CZ  MOL d           4.752 -13.530   1.322  0.00  0.00     0.000 A 
ATOM     69  CE1 MOL d           6.076 -13.164   1.122  0.00  0.00     0.001 A 
ATOM     70  CD1 MOL d           6.430 -11.828   1.276  0.00  0.00     0.007 A 
ENDBRANCH  64  65
ENDBRANCH  60  64
ENDBRANCH  58  60
ENDBRANCH  55  56
BRANCH  55  71
ATOM     71  CB  MOL d           9.726  -9.796  -1.312  0.00  0.00     0.045 C 
BRANCH  71  72
ATOM     72  CG  MOL d           8.737  -8.710  -1.756  0.00  0.00     0.116 C 
BRANCH  72  73
ATOM     73  CD  MOL d           7.526  -9.231  -2.540  0.00  0.00     0.172 C 
ATOM     74  OE1 MOL d           7.695 -10.191  -3.320  0.00  0.00    -0.648 OA
ATOM     75  OE2 MOL d           6.411  -8.681  -2.357  0.00  0.00    -0.648 OA
ENDBRANCH  72  73
ENDBRANCH  71  72
ENDBRANCH  55  71
ENDBRANCH  53  55
ENDBRANCH  49  51
ENDBRANCH  47  49
ENDBRANCH  43  45
ENDBRANCH  42  43
ENDBRANCH  39  42
ENDBRANCH   1  39
TORSDOF 31
