REMARK  12 active torsions:
REMARK  status: ('A' for Active; 'I' for Inactive)
REMARK    1  A    between atoms: C1A_1  and  O1A_23 
REMARK    2  A    between atoms: C2A_2  and  O2A_7 
REMARK    3  A    between atoms: C3A_3  and  O3A_8 
REMARK    4  A    between atoms: C4A_4  and  O4A_9 
REMARK    5  A    between atoms: C5A_5  and  C6A_6 
REMARK    6  A    between atoms: C6A_6  and  O6A_11 
REMARK    7  A    between atoms: O4A_9  and  C1B_12 
REMARK    8  A    between atoms: C2B_13  and  O2B_18 
REMARK    9  A    between atoms: C3B_14  and  O3B_19 
REMARK   10  A    between atoms: C4B_15  and  O4B_20 
REMARK   11  A    between atoms: C5B_16  and  C6B_17 
REMARK   12  A    between atoms: C6B_17  and  O6B_22 
ROOT
ATOM      1  O4A MAB d         -37.437 -55.424  14.784  0.00  0.00    -0.348 OA
ENDROOT
BRANCH   1   2
ATOM      2  C4A MAB d         -36.772 -56.414  15.625  0.00  0.00     0.187 C 
ATOM      3  C3A MAB d         -35.336 -56.670  15.218  0.00  0.00     0.183 C 
ATOM      4  C2A MAB d         -34.641 -57.579  16.201  0.00  0.00     0.204 C 
ATOM      5  C1A MAB d         -34.850 -57.157  17.636  0.00  0.00     0.288 C 
ATOM      6  O5A MAB d         -36.293 -56.954  17.902  0.00  0.00    -0.349 OA
ATOM      7  C5A MAB d         -36.769 -55.878  17.027  0.00  0.00     0.180 C 
BRANCH   3   8
ATOM      8  O3A MAB d         -35.240 -57.270  13.915  0.00  0.00    -0.390 OA
ATOM      9  H   MAB d         -35.631 -56.691  13.271  0.00  0.00     0.210 HD
ENDBRANCH   3   8
BRANCH   4  10
ATOM     10  O2A MAB d         -35.197 -58.886  16.048  0.00  0.00    -0.388 OA
ATOM     11  H   MAB d         -34.776 -59.481  16.657  0.00  0.00     0.210 HD
ENDBRANCH   4  10
BRANCH   5  12
ATOM     12  O1A MAB d         -34.397 -58.103  18.523  0.00  0.00    -0.369 OA
ATOM     13  H   MAB d         -34.877 -58.913  18.393  0.00  0.00     0.212 HD
ENDBRANCH   5  12
BRANCH   7  14
ATOM     14  C6A MAB d         -38.122 -55.393  17.499  0.00  0.00     0.198 C 
BRANCH  14  15
ATOM     15  O6A MAB d         -39.037 -56.473  17.473  0.00  0.00    -0.398 OA
ATOM     16  H   MAB d         -38.727 -57.163  18.047  0.00  0.00     0.209 HD
ENDBRANCH  14  15
ENDBRANCH   7  14
ENDBRANCH   1   2
BRANCH   1  17
ATOM     17  C1B MAB d         -38.338 -56.028  13.893  0.00  0.00     0.292 C 
ATOM     18  C2B MAB d         -39.269 -54.983  13.318  0.00  0.00     0.204 C 
ATOM     19  C3B MAB d         -40.095 -55.541  12.210  0.00  0.00     0.183 C 
ATOM     20  C4B MAB d         -39.275 -56.242  11.167  0.00  0.00     0.180 C 
ATOM     21  C5B MAB d         -38.396 -57.287  11.839  0.00  0.00     0.179 C 
ATOM     22  O5B MAB d         -37.536 -56.642  12.820  0.00  0.00    -0.348 OA
BRANCH  18  23
ATOM     23  O2B MAB d         -38.466 -53.895  12.768  0.00  0.00    -0.388 OA
ATOM     24  H   MAB d         -39.041 -53.226  12.414  0.00  0.00     0.210 HD
ENDBRANCH  18  23
BRANCH  19  25
ATOM     25  O3B MAB d         -40.858 -54.448  11.597  0.00  0.00    -0.390 OA
ATOM     26  H   MAB d         -41.435 -54.801  10.930  0.00  0.00     0.210 HD
ENDBRANCH  19  25
BRANCH  20  27
ATOM     27  O4B MAB d         -40.151 -56.918  10.271  0.00  0.00    -0.390 OA
ATOM     28  H   MAB d         -39.639 -57.385   9.621  0.00  0.00     0.210 HD
ENDBRANCH  20  27
BRANCH  21  29
ATOM     29  C6B MAB d         -37.542 -58.002  10.831  0.00  0.00     0.198 C 
BRANCH  29  30
ATOM     30  O6B MAB d         -36.744 -57.044  10.128  0.00  0.00    -0.398 OA
ATOM     31  H   MAB d         -36.202 -57.492   9.489  0.00  0.00     0.209 HD
ENDBRANCH  29  30
ENDBRANCH  21  29
ENDBRANCH   1  17
TORSDOF 12
