REMARK  2 active torsions:
REMARK  status: ('A' for Active; 'I' for Inactive)
REMARK    1  A    between atoms: N17_12  and  C02_28 
REMARK    2  A    between atoms: N06_15  and  C05_26 
ROOT
ATOM      1  N18 UCM d           6.337  10.263  19.453  0.00  0.00    -0.289 N 
ATOM      2  C29 UCM d           4.927   9.693  19.487  0.00  0.00     0.260 A 
ATOM      3  O30 UCM d           3.987  10.213  20.068  0.00  0.00    -0.267 OA
ATOM      4  C10 UCM d           4.880   8.445  18.722  0.00  0.00     0.062 A 
ATOM      5  C09 UCM d           3.783   7.553  18.464  0.00  0.00     0.022 A 
ATOM      6  C15 UCM d           2.387   7.476  18.799  0.00  0.00     0.004 A 
ATOM      7  C16 UCM d           1.874   6.292  18.193  0.00  0.00     0.048 A 
ATOM      8  C34 UCM d           0.490   5.922  18.335  0.00  0.00     0.030 A 
ATOM      9  C33 UCM d          -0.405   6.739  19.091  0.00  0.00     0.002 A 
ATOM     10  C32 UCM d           0.085   7.928  19.709  0.00  0.00     0.001 A 
ATOM     11  C31 UCM d           1.460   8.287  19.560  0.00  0.00     0.014 A 
ATOM     12  N17 UCM d           2.928   5.675  17.519  0.00  0.00    -0.316 N 
ATOM     13  C08 UCM d           4.093   6.417  17.669  0.00  0.00     0.077 A 
ATOM     14  C07 UCM d           5.364   6.165  17.160  0.00  0.00     0.077 A 
ATOM     15  N06 UCM d           5.800   5.103  16.376  0.00  0.00    -0.316 N 
ATOM     16  C14 UCM d           7.148   5.239  16.086  0.00  0.00     0.048 A 
ATOM     17  C13 UCM d           7.602   6.439  16.708  0.00  0.00     0.004 A 
ATOM     18  C22 UCM d           8.995   6.787  16.534  0.00  0.00     0.014 A 
ATOM     19  C21 UCM d           9.890   5.978  15.776  0.00  0.00     0.001 A 
ATOM     20  C20 UCM d           9.412   4.783  15.167  0.00  0.00     0.002 A 
ATOM     21  C19 UCM d           8.042   4.413  15.319  0.00  0.00     0.030 A 
ATOM     22  C12 UCM d           6.474   7.015  17.386  0.00  0.00     0.022 A 
ATOM     23  C11 UCM d           6.208   8.180  18.189  0.00  0.00     0.062 A 
ATOM     24  C27 UCM d           7.098   9.256  18.615  0.00  0.00     0.260 A 
ATOM     25  O28 UCM d           8.280   9.347  18.344  0.00  0.00    -0.267 OA
ATOM     26  H1  UCM d           6.679  11.100  19.880  0.00  0.00     0.172 HD
ENDROOT
BRANCH  12  27
ATOM     27  C02 UCM d           2.814   4.402  16.753  0.00  0.00     0.231 C 
ATOM     28  O01 UCM d           3.999   3.600  16.907  0.00  0.00    -0.342 OA
ATOM     29  C05 UCM d           4.959   3.974  15.906  0.00  0.00     0.231 C 
ATOM     30  C04 UCM d           4.119   4.391  14.692  0.00  0.00     0.058 C 
ATOM     31  C03 UCM d           2.722   4.673  15.246  0.00  0.00     0.058 C 
ENDBRANCH  12  27
TORSDOF 2
