REMARK  7 active torsions:
REMARK  status: ('A' for Active; 'I' for Inactive)
REMARK    1  A    between atoms: CAU_2  and  CAY_4 
REMARK    2  A    between atoms: SBE_10  and  OAB_11 
REMARK    3  A    between atoms: CAW_17  and  CAQ_18 
REMARK    4  A    between atoms: CAQ_18  and  CAN_19 
REMARK    5  A    between atoms: CAN_19  and  CAP_20 
REMARK    6  A    between atoms: CAP_20  and  OAT_21 
REMARK    7  A    between atoms: OAT_21  and  CAV_22 
ROOT
ATOM      1  CAY MOL d         -32.032  27.142  -0.008  0.00  0.00     0.119 A 
ATOM      2  NBD MOL d         -31.371  28.122   0.712  0.00  0.00    -0.339 N 
ATOM      3  CBC MOL d         -30.211  27.615   1.246  0.00  0.00     0.064 A 
ATOM      4  CAR MOL d         -31.793  29.511   0.920  0.00  0.00     0.130 C 
ATOM      5  CAO MOL d         -30.828  30.510   0.332  0.00  0.00     0.032 C 
ATOM      6  CAS MOL d         -29.792  31.037   1.285  0.00  0.00     0.098 C 
ATOM      7  SBE MOL d         -29.314  29.914   2.559  0.00  0.00    -0.055 S 
ATOM      8  CAX MOL d         -29.209  28.180   2.039  0.00  0.00     0.043 A 
ATOM      9  CAI MOL d         -28.100  27.419   2.455  0.00  0.00     0.022 A 
ATOM     10  CAG MOL d         -28.005  26.060   2.064  0.00  0.00     0.002 A 
ATOM     11  CAM MOL d         -29.004  25.485   1.264  0.00  0.00     0.014 A 
ATOM     12  CBB MOL d         -30.099  26.254   0.856  0.00  0.00     0.001 A 
ATOM     13  CAW MOL d         -31.261  25.971   0.054  0.00  0.00    -0.012 A 
ENDROOT
BRANCH  13  14
ATOM     14  CAQ MOL d         -31.615  24.650  -0.582  0.00  0.00     0.044 C 
BRANCH  14  15
ATOM     15  CAN MOL d         -32.647  23.871   0.211  0.00  0.00     0.031 C 
BRANCH  15  16
ATOM     16  CAP MOL d         -32.186  23.396   1.556  0.00  0.00     0.176 C 
BRANCH  16  17
ATOM     17  OAT MOL d         -31.005  22.692   1.474  0.00  0.00    -0.350 OA
BRANCH  17  18
ATOM     18  CAV MOL d         -30.438  22.083   2.577  0.00  0.00     0.079 A 
ATOM     19  CBA MOL d         -29.414  21.149   2.344  0.00  0.00     0.007 A 
ATOM     20  CAL MOL d         -29.028  20.848   1.004  0.00  0.00     0.015 A 
ATOM     21  CAZ MOL d         -28.801  20.535   3.410  0.00  0.00    -0.023 A 
ATOM     22  CAE MOL d         -28.016  19.927   0.782  0.00  0.00     0.001 A 
ATOM     23  CAD MOL d         -27.392  19.305   1.863  0.00  0.00     0.001 A 
ATOM     24  CAJ MOL d         -27.783  19.589   3.173  0.00  0.00     0.012 A 
ATOM     25  CAK MOL d         -29.194  20.848   4.730  0.00  0.00     0.012 A 
ATOM     26  CAF MOL d         -30.214  21.774   4.954  0.00  0.00     0.004 A 
ATOM     27  CAH MOL d         -30.841  22.402   3.866  0.00  0.00     0.037 A 
ENDBRANCH  17  18
ENDBRANCH  16  17
ENDBRANCH  15  16
ENDBRANCH  14  15
ENDBRANCH  13  14
BRANCH   1  28
ATOM     28  CAU MOL d         -33.325  27.298  -0.763  0.00  0.00     0.227 C 
ATOM     29  OAA MOL d         -34.258  26.461  -0.642  0.00  0.00    -0.643 OA
ATOM     30  OAC MOL d         -33.480  28.259  -1.558  0.00  0.00    -0.643 OA
ENDBRANCH   1  28
BRANCH   7  31
ATOM     31  OAB MOL d         -30.331  30.043   3.643  0.00  0.00    -0.336 OA
ATOM     32  H7  MOL d         -30.111  29.452   4.354  0.00  0.00     0.227 HD
ENDBRANCH   7  31
TORSDOF 7
