1nu3_ligand

Created by X-TOOL on Fri Sep 26 17:34:22 2014
 27 26  0  0  0  0  0  0  0  0999 V2000
   15.7670   21.0810    5.8720  C 0  0  0  4  0  4
   16.5030   21.7220    6.9990  C 0  0  0  3  0  4
   15.7100   21.9580    8.2650  C 0  0  0  3  0  4
   16.0740   23.2290    9.0290  C 0  0  0  2  0  4
   17.5730   23.4160    9.1660  C 0  0  0  3  0  4
   17.8810   24.6710    9.9690  C 0  0  0  3  0  4
   19.2900   25.2080    9.8090  C 0  0  0  4  0  4
   15.3560   23.3260   10.3780  C 0  0  0  1  0  3
   15.7980   22.7500   11.5260  N 0  0  0  3  0  3
   14.3600   24.0210   10.4190  O 0  0  0  1  0  1
   16.4435   20.9622    5.0128  H 0  0  0  1  0  1
   14.9152   21.7141    5.5831  H 0  0  0  1  0  1
   15.3994   20.0937    6.1885  H 0  0  0  1  0  1
   16.8723   22.6967    6.6476  H 0  0  0  1  0  1
   17.3566   21.0763    7.2530  H 0  0  0  1  0  1
   15.8723   21.1000    8.9339  H 0  0  0  1  0  1
   14.6453   22.0159    7.9946  H 0  0  0  1  0  1
   15.7099   24.0706    8.4214  H 0  0  0  1  0  1
   18.0196   23.5079    8.1649  H 0  0  0  1  0  1
   18.0015   22.5429    9.6800  H 0  0  0  1  0  1
   17.7226   24.4420   11.0332  H 0  0  0  1  0  1
   17.1790   25.4574    9.6547  H 0  0  0  1  0  1
   19.4107   26.1105   10.4262  H 0  0  0  1  0  1
   19.4690   25.4593    8.7532  H 0  0  0  1  0  1
   20.0125   24.4439   10.1316  H 0  0  0  1  0  1
   15.2755   22.8560   12.3720  H 0  0  0  1  0  1
   16.6460   22.2199   11.5252  H 0  0  0  1  0  1
  1  2  1  0  0  2
  2  3  1  0  0  2
  3  4  1  0  0  2
  4  5  1  0  0  2
  4  8  1  0  0  2
  5  6  1  0  0  2
  6  7  1  0  0  2
  8  9  1  0  0  2
  8 10  2  0  0  2
  1 11  1  0  0  2
  1 12  1  0  0  2
  1 13  1  0  0  2
  2 14  1  0  0  2
  2 15  1  0  0  2
  3 16  1  0  0  2
  3 17  1  0  0  2
  4 18  1  0  0  2
  5 19  1  0  0  2
  5 20  1  0  0  2
  6 21  1  0  0  2
  6 22  1  0  0  2
  7 23  1  0  0  2
  7 24  1  0  0  2
  7 25  1  0  0  2
  9 26  1  0  0  2
  9 27  1  0  0  2
M  END
> <MOLECULAR_FORMULA>
C8H17NO

> <MOLECULAR_WEIGHT>
143.1

> <NUM_HB_ATOMS>
2  

> <NUM_ROTOR>
5  

> <XLOGP2>
1.97 

$$$$
