REMARK  14 active torsions:
REMARK  status: ('A' for Active; 'I' for Inactive)
REMARK       I    between atoms: N1_26  and  C3_3 
REMARK    1  A    between atoms: C3_3  and  O1_29 
REMARK    2  A    between atoms: O1_29  and  C4_4 
REMARK    3  A    between atoms: C6_6  and  C5_5 
REMARK    4  A    between atoms: C5_5  and  C7_7 
REMARK    5  A    between atoms: C5_5  and  N1_26 
REMARK    6  A    between atoms: C14_14  and  C6_6 
REMARK    7  A    between atoms: C6_6  and  O3_31 
REMARK    8  A    between atoms: C7_7  and  C8_8 
REMARK    9  A    between atoms: N2_27  and  C14_14 
REMARK   10  A    between atoms: C15_15  and  C16_16 
REMARK   11  A    between atoms: N2_27  and  C15_15 
REMARK   12  A    between atoms: S1_35  and  C17_17 
REMARK   13  A    between atoms: C20_20  and  N3_28 
REMARK   14  A    between atoms: N2_27  and  S1_35 
ROOT
ATOM      1  C6  MOL d          13.005 -22.480  35.311  0.00  0.00     0.155 C 
ENDROOT
BRANCH   1   2
ATOM      2  C5  MOL d          11.493 -22.266  35.275  0.00  0.00     0.120 C 
BRANCH   2   3
ATOM      3  C7  MOL d          10.746 -23.127  36.300  0.00  0.00     0.066 C 
BRANCH   3   4
ATOM      4  C8  MOL d           9.247 -22.934  36.213  0.00  0.00    -0.056 A 
ATOM      5  C9  MOL d           8.425 -24.046  36.035  0.00  0.00     0.007 A 
ATOM      6  C11 MOL d           7.041 -23.889  35.989  0.00  0.00     0.001 A 
ATOM      7  C13 MOL d           6.461 -22.620  36.116  0.00  0.00     0.000 A 
ATOM      8  C12 MOL d           7.292 -21.509  36.319  0.00  0.00     0.001 A 
ATOM      9  C10 MOL d           8.684 -21.670  36.387  0.00  0.00     0.007 A 
ENDBRANCH   3   4
ENDBRANCH   2   3
BRANCH   2  10
ATOM     10  N1  MOL d          10.940 -22.590  33.995  0.00  0.00    -0.329 N 
ATOM     11  C3  MOL d          10.550 -21.706  33.094  0.00  0.00     0.361 C 
ATOM     12  O2  MOL d          10.790 -20.531  33.122  0.00  0.00    -0.238 OA
ATOM     13  H32 MOL d          10.841 -23.558  33.766  0.00  0.00     0.165 HD
BRANCH  11  14
ATOM     14  O1  MOL d           9.740 -22.263  32.018  0.00  0.00    -0.296 OA
BRANCH  14  15
ATOM     15  C4  MOL d           9.807 -21.561  30.800  0.00  0.00     0.159 C 
ATOM     16  C1  MOL d           8.939 -22.275  29.778  0.00  0.00     0.200 C 
ATOM     17  O6  MOL d           9.814 -22.897  28.821  0.00  0.00    -0.389 OA
ATOM     18  C25 MOL d          11.061 -22.222  28.852  0.00  0.00     0.170 C 
ATOM     19  C2  MOL d          11.218 -21.659  30.255  0.00  0.00     0.061 C 
ENDBRANCH  14  15
ENDBRANCH  11  14
ENDBRANCH   2  10
ENDBRANCH   1   2
BRANCH   1  20
ATOM     20  C14 MOL d          13.566 -21.970  36.620  0.00  0.00     0.141 C 
BRANCH  20  21
ATOM     21  N2  MOL d          13.523 -20.518  36.567  0.00  0.00    -0.204 NA
BRANCH  21  22
ATOM     22  C15 MOL d          14.879 -19.983  36.436  0.00  0.00     0.111 C 
BRANCH  22  23
ATOM     23  C16 MOL d          15.189 -19.754  34.957  0.00  0.00    -0.009 C 
ATOM     24  C23 MOL d          14.238 -18.711  34.388  0.00  0.00     0.011 C 
ATOM     25  C24 MOL d          16.632 -19.298  34.796  0.00  0.00     0.011 C 
ENDBRANCH  22  23
ENDBRANCH  21  22
BRANCH  21  26
ATOM     26  S1  MOL d          12.672 -19.861  37.786  0.00  0.00     0.243 S 
ATOM     27  O4  MOL d          11.389 -20.500  37.922  0.00  0.00    -0.206 OA
ATOM     28  O5  MOL d          12.417 -18.516  37.403  0.00  0.00    -0.206 OA
BRANCH  26  29
ATOM     29  C17 MOL d          13.394 -19.912  39.224  0.00  0.00     0.074 A 
ATOM     30  C18 MOL d          12.944 -20.771  40.230  0.00  0.00     0.027 A 
ATOM     31  C19 MOL d          13.519 -20.759  41.501  0.00  0.00     0.030 A 
ATOM     32  C20 MOL d          14.557 -19.882  41.754  0.00  0.00     0.025 A 
ATOM     33  C21 MOL d          14.964 -18.977  40.793  0.00  0.00     0.030 A 
ATOM     34  C22 MOL d          14.385 -19.003  39.531  0.00  0.00     0.027 A 
BRANCH  32  35
ATOM     35  N3  MOL d          15.150 -19.864  42.955  0.00  0.00    -0.399 N 
ATOM     36  H33 MOL d          14.859 -20.532  43.683  0.00  0.00     0.156 HD
ATOM     37  H34 MOL d          15.897 -19.182  43.150  0.00  0.00     0.156 HD
ENDBRANCH  32  35
ENDBRANCH  26  29
ENDBRANCH  21  26
ENDBRANCH  20  21
ENDBRANCH   1  20
BRANCH   1  38
ATOM     38  O3  MOL d          13.396 -23.841  35.246  0.00  0.00    -0.392 OA
ATOM     39  H35 MOL d          13.072 -24.224  34.439  0.00  0.00     0.210 HD
ENDBRANCH   1  38
TORSDOF 14
