REMARK  5 active torsions:
REMARK  status: ('A' for Active; 'I' for Inactive)
REMARK    1  A    between atoms: C14_8  and  N15_9 
REMARK    2  A    between atoms: N15_9  and  C17_10 
REMARK    3  A    between atoms: C30_15  and  O32_16 
REMARK    4  A    between atoms: O32_16  and  C33_17 
REMARK    5  A    between atoms: C33_17  and  C36_18 
ROOT
ATOM      1  C17 MOL d         -30.259  43.543  14.114  0.00  0.00     0.115 C 
ATOM      2  C19 MOL d         -30.204  43.040  15.554  0.00  0.00     0.055 C 
ATOM      3  C22 MOL d         -31.589  42.652  16.026  0.00  0.00     0.234 C 
ATOM      4  N25 MOL d         -32.135  41.597  15.167  0.00  0.00    -0.073 N 
ATOM      5  C27 MOL d         -32.275  42.077  13.793  0.00  0.00     0.266 C 
ATOM      6  C30 MOL d         -30.925  42.497  13.232  0.00  0.00     0.169 C 
ATOM      7  H13 MOL d         -33.039  41.320  15.515  0.00  0.00     0.277 HD
ATOM      8  H14 MOL d         -31.513  40.804  15.180  0.00  0.00     0.277 HD
ENDROOT
BRANCH   1   9
ATOM      9  N15 MOL d         -28.924  43.875  13.639  0.00  0.00    -0.366 N 
ATOM     10  H7  MOL d         -28.138  43.373  14.076  0.00  0.00     0.161 HD
BRANCH   9  11
ATOM     11  C14 MOL d         -28.613  44.776  12.682  0.00  0.00     0.151 A 
ATOM     12  N13 MOL d         -29.542  45.710  12.386  0.00  0.00    -0.241 NA
ATOM     13  C11 MOL d         -29.289  46.640  11.448  0.00  0.00     0.120 A 
ATOM     14  C09 MOL d         -28.108  46.726  10.742  0.00  0.00     0.033 A 
ATOM     15  C08 MOL d         -27.110  45.788  11.009  0.00  0.00    -0.004 A 
ATOM     16  C06 MOL d         -25.835  45.758  10.344  0.00  0.00     0.026 A 
ATOM     17  C53 MOL d         -27.374  44.820  11.985  0.00  0.00     0.091 A 
ATOM     18  C05 MOL d         -24.932  44.821  10.673  0.00  0.00     0.007 A 
ATOM     19  C01 MOL d         -23.605  44.820   9.960  0.00  0.00     0.054 C 
ATOM     20  C56 MOL d         -25.182  43.810  11.691  0.00  0.00     0.252 A 
ATOM     21  N54 MOL d         -26.400  43.880  12.276  0.00  0.00    -0.319 N 
ATOM     22  O57 MOL d         -24.386  42.932  12.020  0.00  0.00    -0.268 OA
ATOM     23  H31 MOL d         -26.614  43.198  12.975  0.00  0.00     0.169 HD
ENDBRANCH   9  11
ENDBRANCH   1   9
BRANCH   6  24
ATOM     24  O32 MOL d         -31.105  43.055  11.927  0.00  0.00    -0.382 OA
BRANCH  24  25
ATOM     25  C33 MOL d         -31.200  42.104  10.863  0.00  0.00     0.172 C 
BRANCH  25  26
ATOM     26  C36 MOL d         -31.218  42.815   9.533  0.00  0.00     0.009 C 
ATOM     27  C38 MOL d         -29.896  43.531   9.287  0.00  0.00     0.007 C 
ATOM     28  C41 MOL d         -29.842  44.205   7.920  0.00  0.00     0.000 C 
ATOM     29  C44 MOL d         -30.103  43.209   6.808  0.00  0.00     0.000 C 
ATOM     30  C47 MOL d         -31.419  42.483   7.025  0.00  0.00     0.000 C 
ATOM     31  C50 MOL d         -31.465  41.824   8.402  0.00  0.00     0.007 C 
ENDBRANCH  25  26
ENDBRANCH  24  25
ENDBRANCH   6  24
TORSDOF 5
