REMARK  2 active torsions:
REMARK  status: ('A' for Active; 'I' for Inactive)
REMARK    1  A    between atoms: C3_3  and  O3_21 
REMARK    2  A    between atoms: C5_5  and  O4_22 
ROOT
ATOM      1  C1  RDC d          10.898  -4.651  12.333  0.00  0.00     0.297 C 
ATOM      2  C2  RDC d           9.617  -5.234  12.729  0.00  0.00     0.081 A 
ATOM      3  C3  RDC d           8.474  -4.347  12.823  0.00  0.00     0.085 A 
ATOM      4  C4  RDC d           7.253  -4.847  13.219  0.00  0.00     0.076 A 
ATOM      5  C5  RDC d           7.054  -6.174  13.471  0.00  0.00     0.090 A 
ATOM      6  C6  RDC d           8.148  -7.092  13.340  0.00  0.00     0.075 A 
ATOM      7  C7  RDC d           9.466  -6.658  13.012  0.00  0.00    -0.007 A 
ATOM      8  C8  RDC d          10.534  -7.694  12.946  0.00  0.00     0.124 C 
ATOM      9  C9  RDC d          10.764  -8.600  14.142  0.00  0.00     0.153 C 
ATOM     10  C10 RDC d          11.065  -8.057  15.475  0.00  0.00     0.050 C 
ATOM     11  C11 RDC d          11.067  -6.799  15.827  0.00  0.00     0.003 C 
ATOM     12  C12 RDC d          11.457  -6.383  17.162  0.00  0.00    -0.001 C 
ATOM     13  C13 RDC d          11.886  -5.151  17.405  0.00  0.00     0.007 C 
ATOM     14  C14 RDC d          11.962  -4.117  16.316  0.00  0.00     0.174 A 
ATOM     15  C15 RDC d          13.306  -4.132  15.650  0.00  0.00     0.157 A 
ATOM     16  C16 RDC d          13.497  -3.513  14.281  0.00  0.00     0.067 C 
ATOM     17  C17 RDC d          13.161  -4.455  13.134  0.00  0.00     0.130 C 
ATOM     18  C18 RDC d          14.065  -5.660  13.124  0.00  0.00     0.040 C 
ATOM     19  O1  RDC d          11.843  -4.902  13.337  0.00  0.00    -0.312 OA
ATOM     20  O2  RDC d          11.089  -4.103  11.317  0.00  0.00    -0.259 OA
ATOM     21 Cl1  RDC d           7.816  -8.769  13.647  0.00  0.00    -0.081 Cl
ATOM     22  O5  RDC d          10.840  -9.744  13.971  0.00  0.00    -0.293 OA
ATOM     23  O6  RDC d          12.939  -3.148  16.584  0.00  0.00    -0.371 OA
ENDROOT
BRANCH   3  24
ATOM     24  O3  RDC d           8.686  -3.077  12.525  0.00  0.00    -0.360 OA
ATOM     25  H16 RDC d           9.596  -2.958  12.279  0.00  0.00     0.217 HD
ENDBRANCH   3  24
BRANCH   5  26
ATOM     26  O4  RDC d           5.886  -6.658  13.817  0.00  0.00    -0.359 OA
ATOM     27  H17 RDC d           5.254  -5.951  13.868  0.00  0.00     0.217 HD
ENDBRANCH   5  26
TORSDOF 2
