REMARK  8 active torsions:
REMARK  status: ('A' for Active; 'I' for Inactive)
REMARK    1  A    between atoms: CA_4  and  CB_5 
REMARK    2  A    between atoms: NAV_24  and  SAN_16 
REMARK    3  A    between atoms: SAN_16  and  CBL_40 
REMARK    4  A    between atoms: CAO_17  and  CBO_43 
REMARK    5  A    between atoms: NBP_44  and  CAO_17 
REMARK       I    between atoms: CAQ_19  and  NBP_44 
REMARK    6  A    between atoms: CBY_49  and  CAQ_19 
REMARK    7  A    between atoms: CAW_25  and  CAS_21 
REMARK       I    between atoms: CBO_43  and  NAV_24 
REMARK    8  A    between atoms: CBJ_38  and  OBB_30 
ROOT
ATOM      1  C   SUE d           2.476  -9.757  31.133  0.00  0.00     0.244 C 
ATOM      2  N   SUE d           1.377 -11.778  31.512  0.00  0.00    -0.323 N 
ATOM      3  O   SUE d           1.956  -9.636  30.065  0.00  0.00    -0.271 OA
ATOM      4  CA  SUE d           2.625 -11.007  31.666  0.00  0.00     0.186 C 
ATOM      5  CAB SUE d           0.487 -11.940  32.495  0.00  0.00     0.361 C 
ATOM      6  NAC SUE d           2.595  -5.656  35.554  0.00  0.00    -0.221 NA
ATOM      7  CAD SUE d           0.454  -3.353  37.179  0.00  0.00     0.037 A 
ATOM      8  CAE SUE d           3.115  -3.915  36.920  0.00  0.00     0.070 A 
ATOM      9  CAF SUE d          -2.965 -13.115  33.054  0.00  0.00     0.040 A 
ATOM     10  CAG SUE d          -2.462 -11.773  33.468  0.00  0.00     0.018 A 
ATOM     11  CAH SUE d          -1.508 -12.896  33.295  0.00  0.00     0.138 A 
ATOM     12  CAT SUE d           0.860  -4.395  36.410  0.00  0.00     0.086 A 
ATOM     13  CAU SUE d          -2.601 -11.305  34.870  0.00  0.00     0.007 C 
ATOM     14  CAX SUE d          -1.205  -9.264  34.708  0.00  0.00     0.000 C 
ATOM     15  CAY SUE d           1.373  -2.583  37.823  0.00  0.00     0.039 A 
ATOM     16  OAZ SUE d           2.154  -7.402  34.225  0.00  0.00    -0.326 OA
ATOM     17  CBC SUE d          -2.585  -9.838  34.874  0.00  0.00     0.000 C 
ATOM     18  CBD SUE d          -1.096  -7.965  35.347  0.00  0.00     0.006 C 
ATOM     19  CBE SUE d           1.741  -6.391  34.940  0.00  0.00     0.190 A 
ATOM     20  CBF SUE d           0.371  -6.143  35.059  0.00  0.00     0.088 A 
ATOM     21  CBG SUE d           2.196  -4.671  36.280  0.00  0.00     0.091 A 
ATOM     22  NBH SUE d          -0.016  -5.135  35.801  0.00  0.00    -0.247 NA
ATOM     23  CBI SUE d          -0.613  -6.900  34.434  0.00  0.00     0.064 C 
ATOM     24  CBJ SUE d           2.725  -2.850  37.708  0.00  0.00     0.070 A 
ATOM     25  OBR SUE d           0.740 -11.434  33.550  0.00  0.00    -0.238 OA
ATOM     26  OBT SUE d          -0.589 -12.652  32.231  0.00  0.00    -0.298 OA
ATOM     27  CBX SUE d           3.573  -6.522  32.415  0.00  0.00     0.069 C 
ATOM     28  CBY SUE d           2.913  -7.322  31.304  0.00  0.00     0.181 C 
ATOM     29  NBZ SUE d           2.936  -8.720  31.784  0.00  0.00    -0.334 N 
ATOM     30  CCA SUE d           3.613  -8.731  33.075  0.00  0.00     0.159 C 
ATOM     31  CCB SUE d           3.436  -7.413  33.642  0.00  0.00     0.151 C 
ATOM     32  H1  SUE d           1.187 -12.201  30.626  0.00  0.00     0.165 HD
ENDROOT
BRANCH  28  33
ATOM     33  CAQ SUE d           3.492  -7.280  30.023  0.00  0.00     0.241 C 
ATOM     34  OAP SUE d           4.529  -7.820  29.745  0.00  0.00    -0.271 OA
ATOM     35  NBP SUE d           2.747  -6.724  29.132  0.00  0.00    -0.341 N 
ATOM     36  H35 SUE d           1.920  -6.258  29.447  0.00  0.00     0.163 HD
BRANCH  35  37
ATOM     37  CAO SUE d           3.014  -6.722  27.709  0.00  0.00     0.119 A 
ATOM     38  CAW SUE d           2.512  -7.992  27.084  0.00  0.00     0.026 A 
ATOM     39  CBN SUE d           1.797  -6.756  26.831  0.00  0.00     0.049 A 
BRANCH  38  40
ATOM     40  CAS SUE d           3.200  -8.564  25.873  0.00  0.00     0.003 C 
ATOM     41  CBQ SUE d           4.105  -9.740  26.114  0.00  0.00     0.005 C 
ENDBRANCH  38  40
BRANCH  37  42
ATOM     42  CBO SUE d           4.248  -5.901  27.121  0.00  0.00     0.259 C 
ATOM     43  NAV SUE d           4.983  -5.123  27.938  0.00  0.00    -0.251 N 
ATOM     44  H18 SUE d           4.747  -5.091  28.909  0.00  0.00     0.181 HD
ATOM     45  OBM SUE d           4.481  -5.979  25.948  0.00  0.00    -0.270 OA
BRANCH  43  46
ATOM     46  SAN SUE d           6.220  -4.246  27.420  0.00  0.00     0.243 S 
ATOM     47  OAM SUE d           5.890  -3.456  26.317  0.00  0.00    -0.205 OA
ATOM     48  OBK SUE d           7.267  -5.073  26.979  0.00  0.00    -0.205 OA
BRANCH  46  49
ATOM     49  CBL SUE d           6.875  -3.115  28.870  0.00  0.00     0.174 A 
ATOM     50  CAK SUE d           7.646  -1.943  28.452  0.00  0.00    -0.004 A 
ATOM     51  CAL SUE d           6.286  -1.779  28.950  0.00  0.00    -0.004 A 
ENDBRANCH  46  49
ENDBRANCH  43  46
ENDBRANCH  37  42
ENDBRANCH  35  37
ENDBRANCH  28  33
BRANCH   4  52
ATOM     52  CB  SUE d           3.901 -11.769  31.151  0.00  0.00    -0.022 C 
ATOM     53  CAR SUE d           4.181 -12.878  32.125  0.00  0.00     0.017 C 
ATOM     54  CG1 SUE d           5.100 -10.878  31.095  0.00  0.00     0.017 C 
ATOM     55  CG2 SUE d           3.731 -12.334  29.766  0.00  0.00     0.017 C 
ENDBRANCH   4  52
BRANCH  24  56
ATOM     56  OBB SUE d           3.562  -2.051  38.370  0.00  0.00    -0.356 OA
ATOM     57  CBA SUE d           4.919  -2.227  38.333  0.00  0.00     0.210 C 
ENDBRANCH  24  56
TORSDOF 8
