REMARK  15 active torsions:
REMARK  status: ('A' for Active; 'I' for Inactive)
REMARK    1  A    between atoms: C1_1  and  O1_36 
REMARK    2  A    between atoms: O1_36  and  C5_5 
REMARK       I    between atoms: C5_5  and  N1_32 
REMARK    3  A    between atoms: N1_32  and  C6_6 
REMARK    4  A    between atoms: C6_6  and  C14_14 
REMARK    5  A    between atoms: C6_6  and  C7_7 
REMARK    6  A    between atoms: C7_7  and  C8_8 
REMARK    7  A    between atoms: C14_14  and  O3_38 
REMARK    8  A    between atoms: C14_14  and  C15_15 
REMARK    9  A    between atoms: C15_15  and  C16_16 
REMARK   10  A    between atoms: C16_16  and  C24_24 
REMARK   11  A    between atoms: C16_16  and  C17_17 
REMARK   12  A    between atoms: C17_17  and  C18_18 
REMARK       I    between atoms: C24_24  and  N2_33 
REMARK   13  A    between atoms: N2_33  and  C25_25 
REMARK   14  A    between atoms: C25_25  and  C29_29 
REMARK   15  A    between atoms: C25_25  and  C26_26 
ROOT
ATOM      1  C16 IM1 d          12.153  24.545   4.037  0.00  0.00     0.084 C 
ENDROOT
BRANCH   1   2
ATOM      2  C15 IM1 d          13.326  23.654   4.336  0.00  0.00     0.048 C 
BRANCH   2   3
ATOM      3  C14 IM1 d          14.239  24.175   5.416  0.00  0.00     0.142 C 
BRANCH   3   4
ATOM      4  C6  IM1 d          14.956  23.062   6.239  0.00  0.00     0.119 C 
BRANCH   4   5
ATOM      5  N1  IM1 d          15.897  22.207   5.514  0.00  0.00    -0.329 N 
ATOM      6  C5  IM1 d          15.533  20.973   5.251  0.00  0.00     0.361 C 
ATOM      7  O2  IM1 d          14.402  20.610   5.632  0.00  0.00    -0.238 OA
ATOM      8  H39 IM1 d          16.791  22.552   5.227  0.00  0.00     0.165 HD
BRANCH   6   9
ATOM      9  O1  IM1 d          16.437  20.168   4.557  0.00  0.00    -0.294 OA
BRANCH   9  10
ATOM     10  C1  IM1 d          16.032  19.169   3.670  0.00  0.00     0.061 C 
ATOM     11  C4  IM1 d          15.101  19.668   2.583  0.00  0.00     0.046 C 
ATOM     12  C3  IM1 d          15.429  17.975   4.385  0.00  0.00     0.046 C 
ATOM     13  C2  IM1 d          17.264  18.597   3.008  0.00  0.00     0.046 C 
ENDBRANCH   9  10
ENDBRANCH   6   9
ENDBRANCH   4   5
BRANCH   4  14
ATOM     14  C7  IM1 d          15.741  23.602   7.438  0.00  0.00     0.066 C 
BRANCH  14  15
ATOM     15  C8  IM1 d          16.249  22.487   8.346  0.00  0.00    -0.056 A 
ATOM     16  C13 IM1 d          15.343  21.787   9.151  0.00  0.00     0.007 A 
ATOM     17  C12 IM1 d          15.797  20.745   9.978  0.00  0.00     0.001 A 
ATOM     18  C11 IM1 d          17.149  20.411   9.993  0.00  0.00     0.000 A 
ATOM     19  C10 IM1 d          18.055  21.119   9.181  0.00  0.00     0.001 A 
ATOM     20  C9  IM1 d          17.610  22.156   8.359  0.00  0.00     0.007 A 
ENDBRANCH  14  15
ENDBRANCH   4  14
ENDBRANCH   3   4
BRANCH   3  21
ATOM     21  O3  IM1 d          15.125  24.973   4.686  0.00  0.00    -0.393 OA
ATOM     22  H42 IM1 d          14.635  25.631   4.206  0.00  0.00     0.210 HD
ENDBRANCH   3  21
ENDBRANCH   2   3
ENDBRANCH   1   2
BRANCH   1  23
ATOM     23  C24 IM1 d          11.268  24.678   5.289  0.00  0.00     0.222 C 
ATOM     24  O4  IM1 d          11.143  23.787   6.139  0.00  0.00    -0.273 OA
ATOM     25  N2  IM1 d          10.616  25.812   5.433  0.00  0.00    -0.349 N 
ATOM     26  H40 IM1 d          10.734  26.529   4.746  0.00  0.00     0.163 HD
BRANCH  25  27
ATOM     27  C25 IM1 d           9.729  26.056   6.561  0.00  0.00     0.157 C 
BRANCH  27  28
ATOM     28  C29 IM1 d           8.681  26.995   5.948  0.00  0.00     0.126 A 
ATOM     29  N4  IM1 d           7.466  26.512   6.111  0.00  0.00    -0.351 N 
ATOM     30  C31 IM1 d           6.672  27.311   5.328  0.00  0.00     0.109 A 
ATOM     31  H41 IM1 d           7.177  25.714   6.695  0.00  0.00     0.166 HD
ATOM     32  C30 IM1 d           7.505  28.260   4.723  0.00  0.00     0.136 A 
ATOM     33  N3  IM1 d           8.808  28.053   5.127  0.00  0.00    -0.244 NA
ENDBRANCH  27  28
BRANCH  27  34
ATOM     34  C26 IM1 d          10.391  26.768   7.750  0.00  0.00     0.008 C 
ATOM     35  C28 IM1 d          11.642  26.121   8.263  0.00  0.00     0.012 C 
ATOM     36  C27 IM1 d           9.447  26.625   8.876  0.00  0.00     0.012 C 
ENDBRANCH  27  34
ENDBRANCH  25  27
ENDBRANCH   1  23
BRANCH   1  37
ATOM     37  C17 IM1 d          11.385  23.913   2.860  0.00  0.00     0.052 C 
BRANCH  37  38
ATOM     38  C18 IM1 d           9.983  24.458   2.617  0.00  0.00    -0.057 A 
ATOM     39  C23 IM1 d           8.875  23.666   2.909  0.00  0.00     0.007 A 
ATOM     40  C22 IM1 d           7.590  24.165   2.684  0.00  0.00     0.001 A 
ATOM     41  C21 IM1 d           7.396  25.452   2.170  0.00  0.00     0.000 A 
ATOM     42  C20 IM1 d           8.501  26.244   1.880  0.00  0.00     0.001 A 
ATOM     43  C19 IM1 d           9.789  25.747   2.102  0.00  0.00     0.007 A 
ENDBRANCH  37  38
ENDBRANCH   1  37
TORSDOF 15
