REMARK  4 active torsions:
REMARK  status: ('A' for Active; 'I' for Inactive)
REMARK    1  A    between atoms: NA1_2  and  CA3_4 
REMARK    2  A    between atoms: CA4_8  and  CA5_9 
REMARK    3  A    between atoms: CA5_9  and  SA2_10 
REMARK    4  A    between atoms: SA2_10  and  NA4_12 
ROOT
ATOM      1  CA3 BL0 d          -4.807   5.187  13.720  0.00  0.00     0.191 A 
ATOM      2  SA1 BL0 d          -5.720   3.748  14.021  0.00  0.00    -0.032 SA
ATOM      3  NA2 BL0 d          -3.512   5.010  13.992  0.00  0.00    -0.123 NA
ATOM      4  NA3 BL0 d          -3.213   3.712  14.428  0.00  0.00    -0.144 NA
ATOM      5  CA4 BL0 d          -4.285   2.890  14.504  0.00  0.00     0.116 A 
ENDROOT
BRANCH   5   6
ATOM      6  CA5 BL0 d          -4.409   1.437  14.880  0.00  0.00     0.231 C 
BRANCH   6   7
ATOM      7  SA2 BL0 d          -5.224   1.078  16.282  0.00  0.00     0.230 S 
ATOM      8  OA1 BL0 d          -6.551   1.434  16.172  0.00  0.00    -0.206 OA
ATOM      9  OA2 BL0 d          -4.529   1.651  17.379  0.00  0.00    -0.206 OA
BRANCH   7  10
ATOM     10  NA4 BL0 d          -5.155  -0.446  16.562  0.00  0.00    -0.328 N 
ATOM     11  H9  BL0 d          -5.599  -0.826  17.373  0.00  0.00     0.168 HD
ATOM     12  H10 BL0 d          -4.666  -1.049  15.931  0.00  0.00     0.168 HD
ENDBRANCH   7  10
ENDBRANCH   6   7
ENDBRANCH   5   6
BRANCH   1  13
ATOM     13  NA1 BL0 d          -5.299   6.381  13.237  0.00  0.00    -0.367 N 
ATOM     14  CA1 BL0 d          -4.393   7.433  12.831  0.00  0.00     0.151 C 
ATOM     15  CA2 BL0 d          -6.703   6.627  12.995  0.00  0.00     0.151 C 
ENDBRANCH   1  13
TORSDOF 4
