REMARK  5 active torsions:
REMARK  status: ('A' for Active; 'I' for Inactive)
REMARK    1  A    between atoms: P_2  and  C_5 
REMARK    2  A    between atoms: C_5  and  N_6 
REMARK    3  A    between atoms: C_5  and  C1_7 
REMARK    4  A    between atoms: C1_7  and  C2_8 
REMARK    5  A    between atoms: C2_8  and  C3_9 
ROOT
ATOM      1  C   Q06 d          22.287  -3.593   9.937  0.00  0.00     0.312 C 
ENDROOT
BRANCH   1   2
ATOM      2  P   Q06 d          21.425  -2.461  11.031  0.00  0.00     0.290 P 
ATOM      3  O2  Q06 d          22.140  -2.230  12.416  0.00  0.00    -0.638 OA
ATOM      4  O   Q06 d          21.272  -1.207  10.349  0.00  0.00    -0.638 OA
ATOM      5  O1  Q06 d          20.003  -3.049  11.197  0.00  0.00    -0.638 OA
ENDBRANCH   1   2
BRANCH   1   6
ATOM      6  N   Q06 d          23.613  -3.145   9.508  0.00  0.00    -0.062 N 
ATOM      7  H2  Q06 d          24.021  -3.838   8.900  0.00  0.00     0.275 HD
ATOM      8  H3  Q06 d          24.202  -3.018  10.316  0.00  0.00     0.275 HD
ATOM      9  H4  Q06 d          23.529  -2.271   9.013  0.00  0.00     0.275 HD
ENDBRANCH   1   6
BRANCH   1  10
ATOM     10  C1  Q06 d          22.115  -4.589  11.021  0.00  0.00     0.048 C 
BRANCH  10  11
ATOM     11  C2  Q06 d          23.341  -5.249  11.348  0.00  0.00     0.007 C 
BRANCH  11  12
ATOM     12  C3  Q06 d          23.374  -6.438  10.497  0.00  0.00    -0.014 C 
ATOM     13  C7  Q06 d          22.058  -7.120  10.153  0.00  0.00     0.004 C 
ATOM     14  C6  Q06 d          22.469  -8.552   9.886  0.00  0.00     0.000 C 
ATOM     15  C5  Q06 d          23.725  -8.755  10.715  0.00  0.00     0.000 C 
ATOM     16  C4  Q06 d          24.050  -7.446  11.390  0.00  0.00     0.004 C 
ENDBRANCH  11  12
ENDBRANCH  10  11
ENDBRANCH   1  10
TORSDOF 5
