REMARK  2 active torsions:
REMARK  status: ('A' for Active; 'I' for Inactive)
REMARK    1  A    between atoms: CB_3  and  N_1 
REMARK    2  A    between atoms: CG_5  and  CB_3 
ROOT
ATOM      1  C5  VXQ d           0.642 -14.363  13.621  0.00  0.00     0.039 C 
ATOM      2  OE  VXQ d           1.814 -12.173  14.164  0.00  0.00    -0.322 OA
ATOM      3  CG  VXQ d           1.641 -14.838  17.254  0.00  0.00    -0.032 A 
ATOM      4  CM  VXQ d           0.817 -12.823  13.350  0.00  0.00     0.143 C 
ATOM      5  CZ  VXQ d           1.772 -13.040  15.249  0.00  0.00     0.085 A 
ATOM      6  CD1 VXQ d           1.196 -15.166  16.018  0.00  0.00     0.023 A 
ATOM      7  CD2 VXQ d           2.210 -13.618  17.481  0.00  0.00     0.011 A 
ATOM      8  CE1 VXQ d           1.207 -14.243  14.999  0.00  0.00     0.000 A 
ATOM      9  CE2 VXQ d           2.295 -12.694  16.476  0.00  0.00     0.039 A 
ENDROOT
BRANCH   3  10
ATOM     10  CB  VXQ d           1.702 -15.822  18.371  0.00  0.00     0.268 C 
BRANCH  10  11
ATOM     11  N   VXQ d           3.021 -15.568  19.034  0.00  0.00    -0.075 N 
ATOM     12  H1  VXQ d           3.136 -16.203  19.808  0.00  0.00     0.274 HD
ATOM     13  H2  VXQ d           3.050 -14.618  19.371  0.00  0.00     0.274 HD
ATOM     14  H3  VXQ d           3.765 -15.712  18.369  0.00  0.00     0.274 HD
ENDBRANCH  10  11
ENDBRANCH   3  10
TORSDOF 2
