REMARK  10 active torsions:
REMARK  status: ('A' for Active; 'I' for Inactive)
REMARK    1  A    between atoms: C5'_2  and  O5'_1 
REMARK    2  A    between atoms: C4'_3  and  C5'_2 
REMARK    3  A    between atoms: C1'_5  and  N9_6 
REMARK    4  A    between atoms: C6_11  and  N6_12 
REMARK    5  A    between atoms: C2'_16  and  O2'_17 
REMARK    6  A    between atoms: N8_19  and  C3'_18 
REMARK    7  A    between atoms: CA_21  and  N_20 
REMARK    8  A    between atoms: CA_21  and  CB_22 
REMARK    9  A    between atoms: CA_21  and  C_24 
REMARK   10  A    between atoms: CB_22  and  OG_23 
ROOT
ATOM      1  C4' A3S d          14.770  -4.529  -4.739  0.00  0.00     0.173 C 
ATOM      2  O4' A3S d          16.029  -4.460  -4.016  0.00  0.00    -0.354 OA
ATOM      3  C1' A3S d          15.731  -3.927  -2.691  0.00  0.00     0.261 C 
ATOM      4  C2' A3S d          14.221  -4.000  -2.501  0.00  0.00     0.192 C 
ATOM      5  C3' A3S d          13.759  -3.732  -3.927  0.00  0.00     0.147 C 
ENDROOT
BRANCH   3   6
ATOM      6  N9  A3S d          16.516  -2.630  -2.522  0.00  0.00    -0.294 N 
ATOM      7  C4  A3S d          16.374  -1.793  -1.492  0.00  0.00     0.167 A 
ATOM      8  N3  A3S d          15.547  -1.814  -0.437  0.00  0.00    -0.222 NA
ATOM      9  C5  A3S d          17.315  -0.793  -1.649  0.00  0.00     0.149 A 
ATOM     10  C2  A3S d          15.634  -0.838   0.474  0.00  0.00     0.237 A 
ATOM     11  N1  A3S d          16.537   0.120   0.350  0.00  0.00    -0.222 NA
ATOM     12  C6  A3S d          17.392   0.208  -0.690  0.00  0.00     0.155 A 
ATOM     13  N7  A3S d          17.969  -1.029  -2.794  0.00  0.00    -0.236 NA
ATOM     14  C8  A3S d          17.502  -2.169  -3.327  0.00  0.00     0.214 A 
BRANCH  12  15
ATOM     15  N6  A3S d          18.280   1.209  -0.787  0.00  0.00    -0.382 N 
ATOM     16  H7  A3S d          18.921   1.252  -1.592  0.00  0.00     0.157 HD
ATOM     17  H8  A3S d          18.320   1.934  -0.057  0.00  0.00     0.157 HD
ENDBRANCH  12  15
ENDBRANCH   3   6
BRANCH   4  18
ATOM     18  O2' A3S d          13.833  -5.299  -2.072  0.00  0.00    -0.389 OA
ATOM     19  H11 A3S d          12.890  -5.325  -1.959  0.00  0.00     0.210 HD
ENDBRANCH   4  18
BRANCH   1  20
ATOM     20  C5' A3S d          14.951  -3.842  -6.055  0.00  0.00     0.198 C 
BRANCH  20  21
ATOM     21  O5' A3S d          15.309  -2.473  -5.832  0.00  0.00    -0.398 OA
ATOM     22  H1  A3S d          15.424  -2.037  -6.668  0.00  0.00     0.209 HD
ENDBRANCH  20  21
ENDBRANCH   1  20
BRANCH   5  23
ATOM     23  N8  A3S d          12.430  -4.255  -4.093  0.00  0.00    -0.360 N 
ATOM     24  C   A3S d          11.376  -3.509  -3.896  0.00  0.00     0.184 C 
ATOM     25  O   A3S d          11.466  -2.184  -3.612  0.00  0.00    -0.175 OA
ATOM     26  H13 A3S d          12.310  -5.210  -4.365  0.00  0.00     0.162 HD
BRANCH  24  27
ATOM     27  CA  A3S d          10.042  -4.195  -4.081  0.00  0.00     0.283 C 
BRANCH  27  28
ATOM     28  N   A3S d           9.094  -3.960  -2.950  0.00  0.00    -0.066 N 
ATOM     29  H14 A3S d           8.227  -4.441  -3.132  0.00  0.00     0.275 HD
ATOM     30  H15 A3S d           8.917  -2.972  -2.860  0.00  0.00     0.275 HD
ATOM     31  H16 A3S d           9.498  -4.308  -2.095  0.00  0.00     0.275 HD
ENDBRANCH  27  28
BRANCH  27  32
ATOM     32  CB  A3S d           9.397  -3.748  -5.418  0.00  0.00     0.205 C 
BRANCH  32  33
ATOM     33  OG  A3S d           8.333  -4.681  -5.763  0.00  0.00    -0.398 OA
ATOM     34  H20 A3S d           7.679  -4.682  -5.074  0.00  0.00     0.209 HD
ENDBRANCH  32  33
ENDBRANCH  27  32
ENDBRANCH  24  27
ENDBRANCH   5  23
TORSDOF 10
