REMARK  11 active torsions:
REMARK  status: ('A' for Active; 'I' for Inactive)
REMARK    1  A    between atoms: C8_8  and  C1_1 
REMARK    2  A    between atoms: N7_7  and  C8_8 
REMARK    3  A    between atoms: C28_28  and  N7_7 
REMARK    4  A    between atoms: C8_8  and  C9_9 
REMARK       I    between atoms: C9_9  and  N11_11 
REMARK    5  A    between atoms: C12_12  and  C13_13 
REMARK       I    between atoms: C13_13  and  N15_15 
REMARK    6  A    between atoms: N15_15  and  C16_16 
REMARK    7  A    between atoms: C16_16  and  C17_17 
REMARK    8  A    between atoms: C20_20  and  C23_23 
REMARK    9  A    between atoms: C23_23  and  N25_25 
REMARK   10  A    between atoms: C29_30  and  C28_28 
REMARK       I    between atoms: N3_33  and  C29_30 
REMARK   11  A    between atoms: C24_32  and  N3_33 
ROOT
ATOM      1  C9  M4Z d          17.994 -13.466  22.111  0.00  0.00     0.251 C 
ATOM      2  O0  M4Z d          16.989 -12.863  22.451  0.00  0.00    -0.271 OA
ATOM      3  N11 M4Z d          18.806 -12.908  21.180  0.00  0.00    -0.337 N 
ATOM      4  C12 M4Z d          18.634 -11.703  20.359  0.00  0.00     0.180 C 
ATOM      5  C26 M4Z d          19.796 -12.112  19.443  0.00  0.00     0.055 C 
ATOM      6  C27 M4Z d          20.034 -13.257  20.436  0.00  0.00     0.129 C 
ENDROOT
BRANCH   1   7
ATOM      7  C8  M4Z d          18.270 -14.795  22.766  0.00  0.00     0.281 C 
BRANCH   7   8
ATOM      8  C1  M4Z d          18.770 -14.531  24.201  0.00  0.00     0.026 C 
ATOM      9  C2  M4Z d          18.890 -15.854  24.979  0.00  0.00     0.007 C 
ATOM     10  C3  M4Z d          19.425 -15.569  26.388  0.00  0.00     0.000 C 
ATOM     11  C4  M4Z d          20.825 -14.940  26.294  0.00  0.00     0.000 C 
ATOM     12  C5  M4Z d          20.725 -13.577  25.594  0.00  0.00     0.000 C 
ATOM     13  C6  M4Z d          20.111 -13.758  24.186  0.00  0.00     0.007 C 
ENDBRANCH   7   8
BRANCH   7  14
ATOM     14  N7  M4Z d          17.004 -15.564  22.795  0.00  0.00    -0.054 N 
ATOM     15  H12 M4Z d          16.338 -15.029  23.331  0.00  0.00     0.278 HD
ATOM     16  H13 M4Z d          17.191 -16.436  23.265  0.00  0.00     0.278 HD
BRANCH  14  17
ATOM     17  C28 M4Z d          16.366 -15.890  21.490  0.00  0.00     0.335 C 
BRANCH  17  18
ATOM     18  C29 M4Z d          14.890 -16.214  21.670  0.00  0.00     0.243 C 
ATOM     19  O30 M4Z d          14.446 -16.572  22.754  0.00  0.00    -0.272 OA
ATOM     20  N3  M4Z d          14.072 -16.101  20.593  0.00  0.00    -0.360 N 
ATOM     21  H38 M4Z d          14.489 -15.833  19.724  0.00  0.00     0.162 HD
BRANCH  20  22
ATOM     22  C24 M4Z d          12.620 -16.342  20.602  0.00  0.00     0.118 C 
ATOM     23  C10 M4Z d          12.035 -15.566  19.420  0.00  0.00     0.026 C 
ENDBRANCH  20  22
ENDBRANCH  17  18
ENDBRANCH  14  17
ENDBRANCH   7  14
ENDBRANCH   1   7
BRANCH   4  24
ATOM     24  C13 M4Z d          17.239 -11.821  19.769  0.00  0.00     0.240 C 
ATOM     25  O14 M4Z d          16.897 -12.894  19.287  0.00  0.00    -0.271 OA
ATOM     26  N15 M4Z d          16.337 -10.828  19.942  0.00  0.00    -0.355 N 
ATOM     27  H16 M4Z d          16.600  -9.979  20.399  0.00  0.00     0.162 HD
BRANCH  26  28
ATOM     28  C16 M4Z d          14.970 -11.013  19.451  0.00  0.00     0.161 C 
BRANCH  28  29
ATOM     29  C17 M4Z d          14.014 -11.028  20.615  0.00  0.00    -0.040 A 
ATOM     30  C22 M4Z d          13.460  -9.821  21.026  0.00  0.00     0.010 A 
ATOM     31  C21 M4Z d          12.583  -9.786  22.093  0.00  0.00     0.016 A 
ATOM     32  C20 M4Z d          12.269 -10.979  22.766  0.00  0.00     0.007 A 
ATOM     33  C19 M4Z d          12.818 -12.204  22.336  0.00  0.00     0.016 A 
ATOM     34  C18 M4Z d          13.705 -12.216  21.261  0.00  0.00     0.010 A 
BRANCH  32  35
ATOM     35  C23 M4Z d          11.268 -10.927  23.855  0.00  0.00     0.102 C 
ATOM     36  N24 M4Z d          10.542 -11.978  24.177  0.00  0.00    -0.385 N 
ATOM     37  H23 M4Z d           9.852 -11.914  24.939  0.00  0.00     0.157 HD
ATOM     38  H24 M4Z d          10.664 -12.864  23.666  0.00  0.00     0.157 HD
BRANCH  35  39
ATOM     39  N25 M4Z d          11.036  -9.728  24.476  0.00  0.00    -0.385 N 
ATOM     40  H25 M4Z d          11.600  -8.902  24.229  0.00  0.00     0.157 HD
ATOM     41  H26 M4Z d          10.297  -9.652  25.190  0.00  0.00     0.157 HD
ENDBRANCH  35  39
ENDBRANCH  32  35
ENDBRANCH  28  29
ENDBRANCH  26  28
ENDBRANCH   4  24
TORSDOF 11
