REMARK  2 active torsions:
REMARK  status: ('A' for Active; 'I' for Inactive)
REMARK    1  A    between atoms: C5_5  and  C8_8 
REMARK       I    between atoms: C8_8  and  N17_17 
REMARK    2  A    between atoms: C14_14  and  N16_16 
ROOT
ATOM      1  C1  L3L d         -28.708  65.112  24.291  0.00  0.00     0.002 A 
ATOM      2  C2  L3L d         -27.841  65.955  23.621  0.00  0.00     0.018 A 
ATOM      3  C3  L3L d         -28.264  64.335  25.342  0.00  0.00     0.010 A 
ATOM      4  C4  L3L d         -26.072  65.225  25.019  0.00  0.00     0.055 A 
ATOM      5  C5  L3L d         -26.512  66.022  23.980  0.00  0.00     0.048 A 
ATOM      6  C6  L3L d         -26.934  64.400  25.688  0.00  0.00    -0.024 A 
ATOM      7  C7  L3L d         -24.741  65.073  25.617  0.00  0.00     0.256 C 
ATOM      8  C9  L3L d         -26.255  63.659  26.781  0.00  0.00     0.166 C 
ATOM      9  N16 L3L d         -24.940  64.250  26.702  0.00  0.00    -0.339 N 
ATOM     10  O18 L3L d         -23.692  65.538  25.191  0.00  0.00    -0.267 OA
ENDROOT
BRANCH   9  11
ATOM     11  C14 L3L d         -23.864  63.841  27.566  0.00  0.00     0.091 C 
ATOM     12  C10 L3L d         -23.355  62.467  27.214  0.00  0.00     0.053 C 
ATOM     13  C12 L3L d         -22.183  62.154  28.110  0.00  0.00     0.234 C 
ATOM     14  N15 L3L d         -22.664  62.106  29.477  0.00  0.00    -0.075 N 
ATOM     15  C13 L3L d         -23.085  63.446  29.853  0.00  0.00     0.234 C 
ATOM     16  H15 L3L d         -21.925  61.795  30.089  0.00  0.00     0.277 HD
ATOM     17  H16 L3L d         -23.444  61.471  29.543  0.00  0.00     0.277 HD
ATOM     18  C11 L3L d         -24.277  63.838  29.015  0.00  0.00     0.053 C 
ENDBRANCH   9  11
BRANCH   5  19
ATOM     19  C8  L3L d         -25.670  66.950  23.216  0.00  0.00     0.250 C 
ATOM     20  N17 L3L d         -24.329  66.895  23.485  0.00  0.00    -0.366 N 
ATOM     21  H17 L3L d         -23.697  67.500  23.001  0.00  0.00     0.159 HD
ATOM     22  H18 L3L d         -23.982  66.250  24.166  0.00  0.00     0.159 HD
ATOM     23  O19 L3L d         -26.205  67.703  22.416  0.00  0.00    -0.268 OA
ENDBRANCH   5  19
TORSDOF 2
