REMARK  5 active torsions:
REMARK  status: ('A' for Active; 'I' for Inactive)
REMARK    1  A    between atoms: N1_1  and  C3_3 
REMARK    2  A    between atoms: C3_3  and  C7_6 
REMARK    3  A    between atoms: N9_8  and  C14_12 
REMARK    4  A    between atoms: N11_9  and  C16_13 
REMARK    5  A    between atoms: C16_13  and  C25_18 
ROOT
ATOM      1  C25 MOL d          20.051 132.206  -0.740  0.00  0.00    -0.040 A 
ATOM      2  C28 MOL d          20.616 132.593  -1.977  0.00  0.00     0.010 A 
ATOM      3  C29 MOL d          18.737 131.718  -0.735  0.00  0.00     0.010 A 
ATOM      4  C32 MOL d          19.881 132.484  -3.180  0.00  0.00     0.023 A 
ATOM      5  C33 MOL d          18.008 131.610  -1.924  0.00  0.00     0.023 A 
ATOM      6  C34 MOL d          18.587 131.995  -3.156  0.00  0.00     0.044 A 
ATOM      7  C35 MOL d          17.895 131.879  -4.284  0.00  0.00     0.099 C 
ATOM      8  N36 MOL d          17.286 131.773  -5.280  0.00  0.00    -0.191 NA
ENDROOT
BRANCH   1   9
ATOM      9  C16 MOL d          20.865 132.320   0.557  0.00  0.00     0.168 C 
BRANCH   9  10
ATOM     10  N11 MOL d          20.102 132.867   1.704  0.00  0.00    -0.338 N 
ATOM     11  C7  MOL d          19.595 134.126   1.857  0.00  0.00     0.056 A 
ATOM     12  C12 MOL d          18.961 134.245   3.040  0.00  0.00     0.144 A 
ATOM     13  N18 MOL d          19.096 132.955   3.655  0.00  0.00    -0.254 NA
ATOM     14  C17 MOL d          19.810 132.153   2.774  0.00  0.00     0.209 A 
BRANCH  11  15
ATOM     15  C3  MOL d          19.752 135.207   0.790  0.00  0.00     0.294 C 
BRANCH  15  16
ATOM     16  N1  MOL d          18.561 135.205  -0.060  0.00  0.00    -0.056 N 
ATOM     17  C2  MOL d          17.265 135.644   0.465  0.00  0.00     0.256 C 
ATOM     18  C5  MOL d          16.328 135.043  -0.596  0.00  0.00     0.160 C 
ATOM     19  N9  MOL d          16.593 135.244  -2.023  0.00  0.00    -0.315 N 
ATOM     20  C8  MOL d          17.872 135.664  -2.402  0.00  0.00     0.250 C 
ATOM     21  C4  MOL d          18.950 135.892  -1.299  0.00  0.00     0.338 C 
ATOM     22  O13 MOL d          18.154 135.847  -3.571  0.00  0.00    -0.271 OA
ATOM     23  H1  MOL d          18.409 134.238  -0.300  0.00  0.00     0.280 HD
BRANCH  19  24
ATOM     24  C14 MOL d          15.565 135.004  -2.907  0.00  0.00     0.038 A 
ATOM     25  C20 MOL d          15.030 133.727  -2.832  0.00  0.00     0.053 A 
ATOM     26  C26 MOL d          13.977 133.325  -3.654  0.00  0.00     0.036 A 
ATOM     27  C30 MOL d          13.440 134.232  -4.591  0.00  0.00     0.024 A 
ATOM     28 CL31 MOL d          13.384 131.716  -3.463  0.00  0.00    -0.084 Cl
ATOM     29  C27 MOL d          13.967 135.545  -4.693  0.00  0.00     0.004 A 
ATOM     30  C21 MOL d          15.030 135.947  -3.852  0.00  0.00     0.030 A 
ENDBRANCH  19  24
ENDBRANCH  15  16
ENDBRANCH  11  15
ENDBRANCH   9  10
ENDBRANCH   1   9
TORSDOF 5
