REMARK  3 active torsions:
REMARK  status: ('A' for Active; 'I' for Inactive)
REMARK    1  A    between atoms: C1_1  and  S1_4 
REMARK    2  A    between atoms: S1_4  and  N1_2 
REMARK    3  A    between atoms: N1_2  and  O3_8 
ROOT
ATOM      1  O1  A09 d          -7.422   0.761  16.834  0.00  0.00    -0.199 OA
ATOM      2  S1  A09 d          -5.996   0.950  16.837  0.00  0.00     0.280 S 
ATOM      3  O2  A09 d          -5.302   0.969  18.093  0.00  0.00    -0.199 OA
ENDROOT
BRANCH   2   4
ATOM      4  C1  A09 d          -5.729   2.501  16.062  0.00  0.00     0.081 A 
ATOM      5  C2  A09 d          -6.153   3.676  16.727  0.00  0.00     0.025 A 
ATOM      6  C3  A09 d          -5.943   4.920  16.100  0.00  0.00     0.002 A 
ATOM      7  C4  A09 d          -5.330   4.988  14.843  0.00  0.00     0.000 A 
ATOM      8  C5  A09 d          -4.916   3.823  14.194  0.00  0.00     0.002 A 
ATOM      9  C6  A09 d          -5.108   2.560  14.790  0.00  0.00     0.025 A 
ENDBRANCH   2   4
BRANCH   2  10
ATOM     10  N1  A09 d          -5.344  -0.242  15.917  0.00  0.00    -0.190 N 
ATOM     11  H1  A09 d          -5.876  -0.901  15.386  0.00  0.00     0.207 HD
BRANCH  10  12
ATOM     12  O3  A09 d          -3.927  -0.215  15.974  0.00  0.00    -0.280 OA
ATOM     13  H4  A09 d          -3.645  -0.336  16.873  0.00  0.00     0.245 HD
ENDBRANCH  10  12
ENDBRANCH   2  10
TORSDOF 3
