REMARK  5 active torsions:
REMARK  status: ('A' for Active; 'I' for Inactive)
REMARK    1  A    between atoms: N20_1  and  C19_2 
REMARK    2  A    between atoms: C6_9  and  N13_10 
REMARK    3  A    between atoms: C2_12  and  C1_13 
REMARK    4  A    between atoms: C4_14  and  O1_15 
REMARK    5  A    between atoms: C3_17  and  O7_18 
ROOT
ATOM      1  C19 LZK d           2.057 -26.306  24.823  0.00  0.00     0.722 A 
ATOM      2  N17 LZK d           3.176 -25.871  24.204  0.00  0.00    -0.043 NA
ATOM      3  N18 LZK d           1.253 -25.435  25.490  0.00  0.00    -0.074 NA
ATOM      4  C16 LZK d           1.551 -24.125  25.551  0.00  0.00     0.151 A 
ATOM      5  C11 LZK d           2.702 -23.659  24.918  0.00  0.00     0.032 A 
ATOM      6  C15 LZK d           3.516 -24.566  24.240  0.00  0.00     0.182 A 
ATOM      7  N12 LZK d           4.642 -24.149  23.617  0.00  0.00    -0.210 NA
ATOM      8  C6  LZK d           5.008 -22.847  23.629  0.00  0.00     0.135 A 
ATOM      9  C5  LZK d           3.059 -22.315  24.954  0.00  0.00     0.033 A 
ATOM     10  C2  LZK d           4.227 -21.906  24.303  0.00  0.00     0.026 A 
ENDROOT
BRANCH  10  11
ATOM     11  C1  LZK d           4.616 -20.466  24.316  0.00  0.00     0.045 A 
ATOM     12  C4  LZK d           5.806 -20.059  24.919  0.00  0.00     0.082 A 
ATOM     13  C9  LZK d           6.160 -18.706  24.925  0.00  0.00     0.038 A 
ATOM     14  C14 LZK d           5.322 -17.769  24.323  0.00  0.00     0.005 A 
ATOM     15  C7  LZK d           4.133 -18.179  23.718  0.00  0.00     0.038 A 
ATOM     16  C3  LZK d           3.776 -19.532  23.710  0.00  0.00     0.082 A 
BRANCH  12  17
ATOM     17  O1  LZK d           6.612 -20.999  25.516  0.00  0.00    -0.355 OA
ATOM     18  C45 LZK d           8.010 -20.795  25.693  0.00  0.00     0.210 C 
ENDBRANCH  12  17
BRANCH  16  19
ATOM     19  O7  LZK d           2.607 -19.962  23.119  0.00  0.00    -0.355 OA
ATOM     20  C43 LZK d           1.566 -19.077  22.698  0.00  0.00     0.210 C 
ENDBRANCH  16  19
ENDBRANCH  10  11
BRANCH   8  21
ATOM     21  N13 LZK d           6.147 -22.492  22.983  0.00  0.00    -0.383 N 
ATOM     22  H4  LZK d           6.450 -21.508  22.976  0.00  0.00     0.157 HD
ATOM     23  H5  LZK d           6.709 -23.207  22.500  0.00  0.00     0.157 HD
ENDBRANCH   8  21
BRANCH   1  24
ATOM     24  N20 LZK d           1.755 -27.625  24.772  0.00  0.00    -0.231 N 
ATOM     25  H1  LZK d           2.371 -28.275  24.264  0.00  0.00     0.174 HD
ATOM     26  H2  LZK d           0.909 -27.978  25.241  0.00  0.00     0.174 HD
ENDBRANCH   1  24
TORSDOF 5
