REMARK  8 active torsions:
REMARK  status: ('A' for Active; 'I' for Inactive)
REMARK    1  A    between atoms: N1_3  and  C4_11 
REMARK    2  A    between atoms: C21_32  and  S1_4 
REMARK    3  A    between atoms: C20_31  and  N3_9 
REMARK    4  A    between atoms: C7_19  and  N5_15 
REMARK       I    between atoms: N5_15  and  C8_20 
REMARK    5  A    between atoms: C6_17  and  C20_31 
REMARK    6  A    between atoms: C8_20  and  C13_25 
REMARK    7  A    between atoms: C10_22  and  C11_23 
REMARK    8  A    between atoms: C17_29  and  C16_28 
ROOT
ATOM      1  O3  M35 d          18.865  70.974  23.245  0.00  0.00    -0.266 OA
ATOM      2  N5  M35 d          20.310  72.208  22.045  0.00  0.00    -0.319 N 
ATOM      3  C8  M35 d          19.829  71.013  22.494  0.00  0.00     0.275 C 
ATOM      4  H8  M35 d          21.101  72.199  21.433  0.00  0.00     0.169 HD
ENDROOT
BRANCH   3   5
ATOM      5  C13 M35 d          20.431  69.795  22.103  0.00  0.00     0.129 A 
ATOM      6  N1  M35 d          20.071  68.520  22.470  0.00  0.00    -0.228 N 
ATOM      7  N6  M35 d          20.920  67.634  21.863  0.00  0.00    -0.162 NA
ATOM      8  C10 M35 d          21.825  68.291  21.134  0.00  0.00     0.163 A 
ATOM      9  C12 M35 d          21.556  69.685  21.246  0.00  0.00     0.075 A 
BRANCH   6  10
ATOM     10  C4  M35 d          19.146  68.098  23.416  0.00  0.00     0.059 A 
ATOM     11  C3  M35 d          17.833  67.539  23.063  0.00  0.00     0.031 A 
ATOM     12  C2  M35 d          16.883  67.063  24.077  0.00  0.00     0.003 A 
ATOM     13  C1  M35 d          17.243  67.150  25.492  0.00  0.00     0.009 A 
ATOM     14  C6  M35 d          18.551  67.724  25.838  0.00  0.00    -0.031 A 
ATOM     15  C5  M35 d          19.499  68.198  24.829  0.00  0.00     0.040 A 
BRANCH  14  16
ATOM     16  C20 M35 d          18.945  67.837  27.295  0.00  0.00     0.268 C 
BRANCH  16  17
ATOM     17  N3  M35 d          20.205  67.142  27.609  0.00  0.00    -0.075 N 
ATOM     18  H4  M35 d          20.414  67.252  28.589  0.00  0.00     0.274 HD
ATOM     19  H5  M35 d          20.952  67.537  27.059  0.00  0.00     0.274 HD
ATOM     20  H6  M35 d          20.111  66.162  27.394  0.00  0.00     0.274 HD
ENDBRANCH  16  17
ENDBRANCH  14  16
ENDBRANCH   6  10
BRANCH   8  21
ATOM     21  C11 M35 d          23.003  67.662  20.389  0.00  0.00     0.436 C 
ATOM     22  F1  M35 d          24.095  67.916  21.068  0.00  0.00    -0.165 F 
ATOM     23  F2  M35 d          22.845  66.348  20.272  0.00  0.00    -0.165 F 
ATOM     24  F3  M35 d          23.093  68.179  19.197  0.00  0.00    -0.165 F 
ENDBRANCH   8  21
ENDBRANCH   3   5
BRANCH   2  25
ATOM     25  C7  M35 d          19.764  73.434  22.389  0.00  0.00     0.074 A 
ATOM     26  C22 M35 d          20.571  74.344  23.178  0.00  0.00     0.034 A 
ATOM     27  C18 M35 d          19.969  75.595  23.589  0.00  0.00     0.014 A 
ATOM     28  C16 M35 d          18.596  75.975  23.248  0.00  0.00    -0.021 A 
ATOM     29  C14 M35 d          17.797  75.069  22.434  0.00  0.00     0.057 A 
ATOM     30  C44 M35 d          18.404  73.820  22.019  0.00  0.00     0.143 A 
ATOM     31  F4  M35 d          17.698  72.981  21.264  0.00  0.00    -0.204 F 
BRANCH  28  32
ATOM     32  C17 M35 d          18.055  77.329  23.668  0.00  0.00    -0.004 A 
ATOM     33  C15 M35 d          17.304  77.467  24.925  0.00  0.00     0.014 A 
ATOM     34  C23 M35 d          16.851  78.785  25.369  0.00  0.00     0.001 A 
ATOM     35  C26 M35 d          17.106  80.012  24.626  0.00  0.00     0.002 A 
ATOM     36  C24 M35 d          17.812  79.883  23.364  0.00  0.00     0.024 A 
ATOM     37  C21 M35 d          18.268  78.563  22.898  0.00  0.00     0.070 A 
BRANCH  37  38
ATOM     38  S1  M35 d          18.997  78.593  21.264  0.00  0.00     0.172 S 
ATOM     39  O4  M35 d          20.071  77.648  21.206  0.00  0.00    -0.223 OA
ATOM     40  O5  M35 d          19.322  79.957  20.960  0.00  0.00    -0.223 OA
ATOM     41  C9  M35 d          17.602  78.073  20.254  0.00  0.00     0.167 C 
ENDBRANCH  37  38
ENDBRANCH  28  32
ENDBRANCH   2  25
TORSDOF 8
