REMARK  8 active torsions:
REMARK  status: ('A' for Active; 'I' for Inactive)
REMARK    1  A    between atoms: CA_4  and  CB_5 
REMARK    2  A    between atoms: NAV_24  and  SAN_16 
REMARK    3  A    between atoms: SAN_16  and  CBL_40 
REMARK    4  A    between atoms: CAO_17  and  CBO_43 
REMARK    5  A    between atoms: NBP_44  and  CAO_17 
REMARK       I    between atoms: CAQ_19  and  NBP_44 
REMARK    6  A    between atoms: CBY_49  and  CAQ_19 
REMARK    7  A    between atoms: CAW_25  and  CAS_21 
REMARK       I    between atoms: CBO_43  and  NAV_24 
REMARK    8  A    between atoms: CBJ_38  and  OBB_30 
ROOT
ATOM      1  C   SUE d          11.967   9.233  16.249  0.00  0.00     0.244 C 
ATOM      2  N   SUE d          13.179  11.160  16.661  0.00  0.00    -0.323 N 
ATOM      3  O   SUE d          12.393   9.070  15.133  0.00  0.00    -0.271 OA
ATOM      4  CA  SUE d          11.880  10.480  16.784  0.00  0.00     0.186 C 
ATOM      5  CAB SUE d          14.050  11.354  17.655  0.00  0.00     0.361 C 
ATOM      6  NAC SUE d          11.905   4.988  20.540  0.00  0.00    -0.221 NA
ATOM      7  CAD SUE d          13.978   2.426  21.877  0.00  0.00     0.037 A 
ATOM      8  CAE SUE d          11.341   3.214  21.812  0.00  0.00     0.070 A 
ATOM      9  CAF SUE d          17.507  12.281  17.986  0.00  0.00     0.040 A 
ATOM     10  CAG SUE d          17.057  10.921  18.339  0.00  0.00     0.018 A 
ATOM     11  CAH SUE d          16.128  12.079  18.404  0.00  0.00     0.138 A 
ATOM     12  CAT SUE d          13.617   3.545  21.183  0.00  0.00     0.086 A 
ATOM     13  CAU SUE d          17.486  10.344  19.666  0.00  0.00     0.007 C 
ATOM     14  CAX SUE d          15.802   8.422  19.729  0.00  0.00     0.000 C 
ATOM     15  CAY SUE d          13.002   1.716  22.527  0.00  0.00     0.039 A 
ATOM     16  OAZ SUE d          12.453   6.761  19.226  0.00  0.00    -0.326 OA
ATOM     17  CBC SUE d          17.294   8.838  19.696  0.00  0.00     0.000 C 
ATOM     18  CBD SUE d          15.603   7.042  20.260  0.00  0.00     0.006 C 
ATOM     19  CBE SUE d          12.801   5.689  19.901  0.00  0.00     0.190 A 
ATOM     20  CBF SUE d          14.131   5.325  19.901  0.00  0.00     0.088 A 
ATOM     21  CBG SUE d          12.288   3.921  21.163  0.00  0.00     0.091 A 
ATOM     22  NBH SUE d          14.518   4.255  20.560  0.00  0.00    -0.247 NA
ATOM     23  CBI SUE d          15.061   6.067  19.266  0.00  0.00     0.064 C 
ATOM     24  CBJ SUE d          11.681   2.080  22.491  0.00  0.00     0.070 A 
ATOM     25  OBR SUE d          13.737  10.873  18.706  0.00  0.00    -0.238 OA
ATOM     26  OBT SUE d          15.183  12.046  17.411  0.00  0.00    -0.298 OA
ATOM     27  CBX SUE d          10.785   6.076  17.503  0.00  0.00     0.069 C 
ATOM     28  CBY SUE d          11.533   6.822  16.452  0.00  0.00     0.181 C 
ATOM     29  NBZ SUE d          11.501   8.214  16.935  0.00  0.00    -0.334 N 
ATOM     30  CCA SUE d          10.920   8.240  18.264  0.00  0.00     0.159 C 
ATOM     31  CCB SUE d          11.083   6.891  18.765  0.00  0.00     0.151 C 
ATOM     32  H1  SUE d          13.431  11.506  15.757  0.00  0.00     0.165 HD
ENDROOT
BRANCH  28  33
ATOM     33  CAQ SUE d          10.981   6.766  15.202  0.00  0.00     0.241 C 
ATOM     34  OAP SUE d           9.997   7.377  14.961  0.00  0.00    -0.271 OA
ATOM     35  NBP SUE d          11.607   6.084  14.304  0.00  0.00    -0.341 N 
ATOM     36  H35 SUE d          12.410   5.553  14.575  0.00  0.00     0.163 HD
BRANCH  35  37
ATOM     37  CAO SUE d          11.193   6.059  12.925  0.00  0.00     0.119 A 
ATOM     38  CAW SUE d          11.589   7.341  12.293  0.00  0.00     0.026 A 
ATOM     39  CBN SUE d          12.255   6.109  11.879  0.00  0.00     0.049 A 
BRANCH  38  40
ATOM     40  CAS SUE d          10.607   7.958  11.342  0.00  0.00     0.003 C 
ATOM     41  CBQ SUE d          11.226   8.765  10.259  0.00  0.00     0.005 C 
ENDBRANCH  38  40
BRANCH  37  42
ATOM     42  CBO SUE d           9.898   5.361  12.416  0.00  0.00     0.259 C 
ATOM     43  NAV SUE d           9.105   4.676  13.214  0.00  0.00    -0.251 N 
ATOM     44  H18 SUE d           9.335   4.624  14.186  0.00  0.00     0.181 HD
ATOM     45  OBM SUE d           9.690   5.422  11.244  0.00  0.00    -0.270 OA
BRANCH  43  46
ATOM     46  SAN SUE d           7.850   3.958  12.723  0.00  0.00     0.243 S 
ATOM     47  OAM SUE d           8.145   3.038  11.675  0.00  0.00    -0.205 OA
ATOM     48  OBK SUE d           6.904   4.917  12.206  0.00  0.00    -0.205 OA
BRANCH  46  49
ATOM     49  CBL SUE d           6.988   3.006  14.142  0.00  0.00     0.174 A 
ATOM     50  CAK SUE d           6.258   1.873  13.630  0.00  0.00    -0.004 A 
ATOM     51  CAL SUE d           7.536   1.675  14.304  0.00  0.00    -0.004 A 
ENDBRANCH  46  49
ENDBRANCH  43  46
ENDBRANCH  37  42
ENDBRANCH  35  37
ENDBRANCH  28  33
BRANCH   4  52
ATOM     52  CB  SUE d          10.807  11.329  16.104  0.00  0.00    -0.022 C 
ATOM     53  CAR SUE d          10.539  12.523  16.912  0.00  0.00     0.017 C 
ATOM     54  CG1 SUE d           9.507  10.640  15.997  0.00  0.00     0.017 C 
ATOM     55  CG2 SUE d          11.274  11.790  14.746  0.00  0.00     0.017 C 
ENDBRANCH   4  52
BRANCH  24  56
ATOM     56  OBB SUE d          10.797   1.352  23.163  0.00  0.00    -0.356 OA
ATOM     57  CBA SUE d           9.516   1.215  22.701  0.00  0.00     0.210 C 
ENDBRANCH  24  56
TORSDOF 8
