REMARK  15 active torsions:
REMARK  status: ('A' for Active; 'I' for Inactive)
REMARK    1  A    between atoms: S8_2  and  C5_4 
REMARK    2  A    between atoms: S8_2  and  N11_12 
REMARK    3  A    between atoms: C2_7  and  O19_8 
REMARK    4  A    between atoms: N11_12  and  C12_13 
REMARK    5  A    between atoms: N11_12  and  C16_17 
REMARK    6  A    between atoms: C12_13  and  C13_14 
REMARK    7  A    between atoms: C16_17  and  C17_18 
REMARK    8  A    between atoms: C17_18  and  O18_19 
REMARK    9  A    between atoms: C17_18  and  C19_20 
REMARK   10  A    between atoms: C19_20  and  C32_21 
REMARK   11  A    between atoms: C19_20  and  N20_28 
REMARK   12  A    between atoms: C32_21  and  C38_22 
REMARK       I    between atoms: N20_28  and  C21_29 
REMARK   13  A    between atoms: C21_29  and  C29_31 
REMARK   14  A    between atoms: N24_36  and  C43_37 
REMARK   15  A    between atoms: C41_42  and  C46_43 
ROOT
ATOM      1  C19 D78 d          19.455  29.009  14.189  0.00  0.00     0.118 C 
ENDROOT
BRANCH   1   2
ATOM      2  C17 D78 d          19.910  29.334  15.616  0.00  0.00     0.155 C 
BRANCH   2   3
ATOM      3  C16 D78 d          19.069  30.474  16.199  0.00  0.00     0.141 C 
BRANCH   3   4
ATOM      4  N11 D78 d          19.317  31.742  15.477  0.00  0.00    -0.204 NA
BRANCH   4   5
ATOM      5  S8  D78 d          18.001  32.380  14.754  0.00  0.00     0.243 S 
ATOM      6  O9  D78 d          18.530  33.221  13.705  0.00  0.00    -0.206 OA
ATOM      7  O10 D78 d          17.175  31.354  14.209  0.00  0.00    -0.206 OA
BRANCH   5   8
ATOM      8  C5  D78 d          17.137  33.276  15.791  0.00  0.00     0.074 A 
ATOM      9  C4  D78 d          17.380  34.646  15.935  0.00  0.00     0.027 A 
ATOM     10  C3  D78 d          16.649  35.422  16.843  0.00  0.00     0.038 A 
ATOM     11  C2  D78 d          15.658  34.823  17.642  0.00  0.00     0.068 A 
ATOM     12  C7  D78 d          15.415  33.464  17.503  0.00  0.00     0.038 A 
ATOM     13  C6  D78 d          16.147  32.698  16.588  0.00  0.00     0.027 A 
BRANCH  11  14
ATOM     14  O19 D78 d          14.913  35.512  18.565  0.00  0.00    -0.356 OA
ATOM     15  C18 D78 d          15.093  36.909  18.842  0.00  0.00     0.210 C 
ENDBRANCH  11  14
ENDBRANCH   5   8
ENDBRANCH   4   5
BRANCH   4  16
ATOM     16  C12 D78 d          20.050  32.740  16.291  0.00  0.00     0.111 C 
BRANCH  16  17
ATOM     17  C13 D78 d          21.546  32.394  16.342  0.00  0.00    -0.009 C 
ATOM     18  C14 D78 d          22.184  32.332  14.954  0.00  0.00     0.011 C 
ATOM     19  C15 D78 d          22.287  33.394  17.217  0.00  0.00     0.011 C 
ENDBRANCH  16  17
ENDBRANCH   4  16
ENDBRANCH   3   4
ENDBRANCH   2   3
BRANCH   2  20
ATOM     20  O18 D78 d          19.811  28.218  16.518  0.00  0.00    -0.392 OA
ATOM     21  H20 D78 d          20.325  27.493  16.181  0.00  0.00     0.210 HD
ENDBRANCH   2  20
ENDBRANCH   1   2
BRANCH   1  22
ATOM     22  C32 D78 d          18.136  28.220  14.113  0.00  0.00     0.066 C 
BRANCH  22  23
ATOM     23  C38 D78 d          17.794  27.891  12.664  0.00  0.00    -0.056 A 
ATOM     24  C33 D78 d          17.935  26.587  12.180  0.00  0.00     0.007 A 
ATOM     25  C34 D78 d          17.644  26.286  10.854  0.00  0.00     0.001 A 
ATOM     26  C35 D78 d          17.206  27.278   9.984  0.00  0.00     0.000 A 
ATOM     27  C36 D78 d          17.063  28.573  10.456  0.00  0.00     0.001 A 
ATOM     28  C37 D78 d          17.358  28.883  11.789  0.00  0.00     0.007 A 
ENDBRANCH  22  23
ENDBRANCH   1  22
BRANCH   1  29
ATOM     29  N20 D78 d          20.367  28.151  13.425  0.00  0.00    -0.351 N 
ATOM     30  C21 D78 d          21.091  28.600  12.391  0.00  0.00     0.249 C 
ATOM     31  O22 D78 d          21.150  29.772  12.035  0.00  0.00    -0.271 OA
ATOM     32  H29 D78 d          20.452  27.190  13.687  0.00  0.00     0.163 HD
BRANCH  30  33
ATOM     33  C29 D78 d          21.876  27.581  11.609  0.00  0.00     0.243 C 
ATOM     34  O28 D78 d          21.837  26.260  12.180  0.00  0.00    -0.287 OA
ATOM     35  C26 D78 d          21.493  25.360  11.106  0.00  0.00     0.368 C 
ATOM     36  O27 D78 d          21.615  24.161  11.298  0.00  0.00    -0.238 OA
ATOM     37  N24 D78 d          21.110  26.040  10.013  0.00  0.00    -0.291 N 
ATOM     38  C25 D78 d          21.227  27.475  10.218  0.00  0.00     0.177 C 
BRANCH  37  39
ATOM     39  C43 D78 d          20.725  25.522   8.790  0.00  0.00     0.040 A 
ATOM     40  C44 D78 d          21.137  24.252   8.367  0.00  0.00     0.030 A 
ATOM     41  C45 D78 d          20.745  23.738   7.124  0.00  0.00     0.003 A 
ATOM     42  C40 D78 d          19.951  24.488   6.268  0.00  0.00     0.016 A 
ATOM     43  C41 D78 d          19.521  25.759   6.653  0.00  0.00     0.050 A 
ATOM     44  C42 D78 d          19.915  26.270   7.901  0.00  0.00     0.046 A 
BRANCH  43  45
ATOM     45  C46 D78 d          18.643  26.569   5.722  0.00  0.00     0.417 C 
ATOM     46  F1  D78 d          17.383  26.482   6.088  0.00  0.00    -0.166 F 
ATOM     47  F2  D78 d          18.716  26.128   4.491  0.00  0.00    -0.166 F 
ATOM     48  F3  D78 d          18.995  27.838   5.726  0.00  0.00    -0.166 F 
ENDBRANCH  43  45
ENDBRANCH  37  39
ENDBRANCH  30  33
ENDBRANCH   1  29
TORSDOF 15
