REMARK  11 active torsions:
REMARK  status: ('A' for Active; 'I' for Inactive)
REMARK    1  A    between atoms: N1_1  and  C1'_9 
REMARK    2  A    between atoms: C4_4  and  N4_8 
REMARK    3  A    between atoms: C2'_10  and  O2'_11 
REMARK    4  A    between atoms: C3'_12  and  O3'_15 
REMARK    5  A    between atoms: C4'_13  and  C5'_16 
REMARK    6  A    between atoms: C5'_16  and  O5'_17 
REMARK    7  A    between atoms: O5'_17  and  PA_18 
REMARK    8  A    between atoms: PA_18  and  O3A_21 
REMARK    9  A    between atoms: O3A_21  and  PB_22 
REMARK   10  A    between atoms: PB_22  and  O3B_25 
REMARK   11  A    between atoms: O3B_25  and  PG_26 
ROOT
ATOM      1  C1' CTP d          15.345  37.704 -24.543  0.00  0.00     0.263 C 
ATOM      2  C2' CTP d          16.011  38.030 -23.215  0.00  0.00     0.198 C 
ATOM      3  C3' CTP d          17.489  38.076 -23.541  0.00  0.00     0.182 C 
ATOM      4  C4' CTP d          17.613  37.206 -24.784  0.00  0.00     0.180 C 
ATOM      5  O4' CTP d          16.327  37.096 -25.363  0.00  0.00    -0.353 OA
ENDROOT
BRANCH   4   6
ATOM      6  C5' CTP d          18.112  35.803 -24.440  0.00  0.00     0.216 C 
BRANCH   6   7
ATOM      7  O5' CTP d          17.584  35.421 -23.179  0.00  0.00    -0.287 OA
BRANCH   7   8
ATOM      8  PA  CTP d          18.538  35.027 -21.939  0.00  0.00     0.417 P 
ATOM      9  O1A CTP d          19.318  36.208 -21.407  0.00  0.00    -0.624 OA
ATOM     10  O2A CTP d          17.685  34.420 -20.856  0.00  0.00    -0.624 OA
BRANCH   8  11
ATOM     11  O3A CTP d          19.554  34.004 -22.652  0.00  0.00    -0.180 OA
BRANCH  11  12
ATOM     12  PB  CTP d          20.484  33.026 -21.798  0.00  0.00     0.428 P 
ATOM     13  O1B CTP d          20.200  31.609 -22.258  0.00  0.00    -0.624 OA
ATOM     14  O2B CTP d          20.167  33.233 -20.334  0.00  0.00    -0.624 OA
BRANCH  12  15
ATOM     15  O3B CTP d          22.008  33.461 -22.176  0.00  0.00    -0.173 OA
BRANCH  15  16
ATOM     16  PG  CTP d          23.258  33.542 -21.144  0.00  0.00     0.431 P 
ATOM     17  O1G CTP d          24.120  34.715 -21.533  0.00  0.00    -0.616 OA
ATOM     18  O2G CTP d          24.113  32.298 -21.230  0.00  0.00    -0.616 OA
ATOM     19  O3G CTP d          22.773  33.781 -19.724  0.00  0.00    -0.616 OA
ENDBRANCH  15  16
ENDBRANCH  12  15
ENDBRANCH  11  12
ENDBRANCH   8  11
ENDBRANCH   7   8
ENDBRANCH   6   7
ENDBRANCH   4   6
BRANCH   3  20
ATOM     20  O3' CTP d          17.923  39.397 -23.791  0.00  0.00    -0.390 OA
ATOM     21  H10 CTP d          17.834  39.914 -22.999  0.00  0.00     0.210 HD
ENDBRANCH   3  20
BRANCH   2  22
ATOM     22  O2' CTP d          15.562  39.241 -22.663  0.00  0.00    -0.388 OA
ATOM     23  H7  CTP d          15.751  39.951 -23.265  0.00  0.00     0.210 HD
ENDBRANCH   2  22
BRANCH   1  24
ATOM     24  N1  CTP d          14.193  36.795 -24.336  0.00  0.00    -0.280 N 
ATOM     25  C2  CTP d          12.920  37.314 -24.451  0.00  0.00     0.330 C 
ATOM     26  N3  CTP d          11.831  36.528 -24.149  0.00  0.00    -0.293 N 
ATOM     27  O2  CTP d          12.767  38.475 -24.827  0.00  0.00    -0.246 OA
ATOM     28  C4  CTP d          11.980  35.158 -24.169  0.00  0.00     0.125 C 
ATOM     29  H1  CTP d          10.950  36.942 -23.920  0.00  0.00     0.172 HD
ATOM     30  C5  CTP d          13.253  34.608 -24.311  0.00  0.00     0.067 C 
ATOM     31  C6  CTP d          14.364  35.441 -24.354  0.00  0.00     0.102 C 
BRANCH  28  32
ATOM     32  N4  CTP d          10.910  34.374 -24.051  0.00  0.00    -0.284 NA
ATOM     33  H4  CTP d          11.016  33.372 -24.065  0.00  0.00     0.188 HD
ENDBRANCH  28  32
ENDBRANCH   1  24
TORSDOF 11
