REMARK  12 active torsions:
REMARK  status: ('A' for Active; 'I' for Inactive)
REMARK    1  A    between atoms: N7_7  and  C18_18 
REMARK    2  A    between atoms: C8_8  and  C11_11 
REMARK       I    between atoms: C11_11  and  N12_12 
REMARK    3  A    between atoms: N12_12  and  C13_13 
REMARK    4  A    between atoms: C18_18  and  C19_19 
REMARK    5  A    between atoms: C19_19  and  C20_20 
REMARK    6  A    between atoms: C19_19  and  O21_21 
REMARK    7  A    between atoms: C20_20  and  N22_22 
REMARK    8  A    between atoms: C20_20  and  C23_23 
REMARK       I    between atoms: N22_22  and  C24_24 
REMARK    9  A    between atoms: C23_23  and  S74_34 
REMARK   10  A    between atoms: C24_24  and  C29_26 
REMARK   11  A    between atoms: C33_30  and  O38_32 
REMARK   12  A    between atoms: S74_34  and  C77_35 
ROOT
ATOM      1  C19 MOL d           5.505  -0.548  15.908  0.00  0.00     0.167 C 
ENDROOT
BRANCH   1   2
ATOM      2  C18 MOL d           4.985   0.691  15.175  0.00  0.00     0.269 C 
BRANCH   2   3
ATOM      3  N7  MOL d           5.788   0.804  13.929  0.00  0.00    -0.055 N 
ATOM      4  C8  MOL d           5.111   1.605  12.813  0.00  0.00     0.279 C 
ATOM      5  C9  MOL d           6.020   1.787  11.509  0.00  0.00     0.048 C 
ATOM      6  C2  MOL d           7.392   2.516  11.944  0.00  0.00    -0.006 C 
ATOM      7  C1  MOL d           8.068   1.642  13.099  0.00  0.00     0.016 C 
ATOM      8  C3  MOL d           8.300   2.752  10.649  0.00  0.00     0.005 C 
ATOM      9  C6  MOL d           8.445   0.175  12.627  0.00  0.00     0.007 C 
ATOM     10  C10 MOL d           7.090   1.459  14.385  0.00  0.00     0.241 C 
ATOM     11  C5  MOL d           9.500   0.520  11.449  0.00  0.00     0.000 C 
ATOM     12  C4  MOL d           8.858   1.345  10.251  0.00  0.00     0.000 C 
ATOM     13  H11 MOL d           5.978  -0.119  13.572  0.00  0.00     0.281 HD
BRANCH   4  14
ATOM     14  C11 MOL d           3.919   0.884  12.348  0.00  0.00     0.249 C 
ATOM     15  N12 MOL d           2.863   1.771  12.075  0.00  0.00    -0.351 N 
ATOM     16  H17 MOL d           3.032   2.746  12.221  0.00  0.00     0.163 HD
ATOM     17  O17 MOL d           4.006  -0.400  12.233  0.00  0.00    -0.271 OA
BRANCH  15  18
ATOM     18  C13 MOL d           1.488   1.370  11.577  0.00  0.00     0.022 C 
ATOM     19  C14 MOL d           0.844   0.477  12.619  0.00  0.00     0.037 C 
ATOM     20  C15 MOL d           1.561   0.543  10.211  0.00  0.00     0.037 C 
ATOM     21  C16 MOL d           0.658   2.716  11.401  0.00  0.00     0.037 C 
ENDBRANCH  15  18
ENDBRANCH   4  14
ENDBRANCH   2   3
ENDBRANCH   1   2
BRANCH   1  22
ATOM     22  C20 MOL d           4.808  -1.897  15.550  0.00  0.00     0.124 C 
BRANCH  22  23
ATOM     23  N22 MOL d           5.548  -2.920  16.307  0.00  0.00    -0.349 N 
ATOM     24  C24 MOL d           6.570  -3.620  15.602  0.00  0.00     0.252 C 
ATOM     25  O25 MOL d           6.866  -3.417  14.402  0.00  0.00    -0.268 OA
ATOM     26  H32 MOL d           5.344  -3.114  17.267  0.00  0.00     0.163 HD
BRANCH  24  27
ATOM     27  C29 MOL d           7.282  -4.558  16.395  0.00  0.00     0.040 A 
ATOM     28  C30 MOL d           6.513  -5.489  17.253  0.00  0.00     0.018 A 
ATOM     29  C31 MOL d           7.158  -6.434  18.100  0.00  0.00     0.004 A 
ATOM     30  C32 MOL d           8.578  -6.476  18.105  0.00  0.00     0.037 A 
ATOM     31  C33 MOL d           9.352  -5.566  17.265  0.00  0.00     0.072 A 
ATOM     32  C34 MOL d           8.740  -4.591  16.395  0.00  0.00    -0.013 A 
ATOM     33  C39 MOL d           9.663  -3.686  15.570  0.00  0.00     0.052 C 
BRANCH  31  34
ATOM     34  O38 MOL d          10.720  -5.619  17.294  0.00  0.00    -0.360 OA
ATOM     35  H38 MOL d          10.997  -6.296  17.900  0.00  0.00     0.217 HD
ENDBRANCH  31  34
ENDBRANCH  24  27
ENDBRANCH  22  23
BRANCH  22  36
ATOM     36  C23 MOL d           3.340  -2.061  15.962  0.00  0.00     0.107 C 
BRANCH  36  37
ATOM     37  S74 MOL d           2.534  -3.302  14.832  0.00  0.00    -0.128 SA
BRANCH  37  38
ATOM     38  C77 MOL d           2.671  -4.769  15.781  0.00  0.00     0.000 A 
ATOM     39  C78 MOL d           2.923  -5.945  15.043  0.00  0.00     0.018 A 
ATOM     40  C79 MOL d           3.047  -7.176  15.775  0.00  0.00     0.001 A 
ATOM     41  C80 MOL d           2.924  -7.232  17.214  0.00  0.00     0.000 A 
ATOM     42  C81 MOL d           2.663  -6.034  17.968  0.00  0.00     0.001 A 
ATOM     43  C82 MOL d           2.538  -4.788  17.225  0.00  0.00     0.018 A 
ENDBRANCH  37  38
ENDBRANCH  36  37
ENDBRANCH  22  36
ENDBRANCH   1  22
BRANCH   1  44
ATOM     44  O21 MOL d           5.324  -0.236  17.275  0.00  0.00    -0.392 OA
ATOM     45  H31 MOL d           5.755   0.587  17.471  0.00  0.00     0.210 HD
ENDBRANCH   1  44
TORSDOF 12
