REMARK  2 active torsions:
REMARK  status: ('A' for Active; 'I' for Inactive)
REMARK    1  A    between atoms: C1_1  and  N4_4 
REMARK    2  A    between atoms: N4_4  and  C9_9 
ROOT
ATOM      1  C1  4GU d          13.088  26.881 -42.170  0.00  0.00     0.145 A 
ATOM      2  C2  4GU d          14.125  26.732 -41.225  0.00  0.00     0.076 A 
ATOM      3  C3  4GU d          15.263  25.974 -41.599  0.00  0.00     0.160 A 
ATOM      4  N5  4GU d          15.480  26.719 -39.510  0.00  0.00    -0.184 NA
ATOM      5  N6  4GU d          13.277  26.311 -43.374  0.00  0.00    -0.223 NA
ATOM      6  N7  4GU d          15.332  25.433 -42.807  0.00  0.00    -0.222 NA
ATOM      7  N8  4GU d          16.100  25.981 -40.537  0.00  0.00    -0.261 N 
ATOM      8  C10 4GU d          14.357  25.593 -43.667  0.00  0.00     0.237 A 
ATOM      9  C11 4GU d          14.324  27.182 -39.906  0.00  0.00     0.158 A 
ATOM     10  H2  4GU d          17.024  25.528 -40.488  0.00  0.00     0.191 HD
ENDROOT
BRANCH   1  11
ATOM     11  N4  4GU d          11.962  27.631 -41.839  0.00  0.00    -0.338 N 
ATOM     12  H1  4GU d          12.052  28.275 -41.041  0.00  0.00     0.167 HD
BRANCH  11  13
ATOM     13  C9  4GU d          10.711  27.596 -42.488  0.00  0.00     0.072 A 
ATOM     14  C12 4GU d           9.761  28.570 -42.136  0.00  0.00     0.143 A 
ATOM     15  F13 4GU d          10.069  29.512 -41.227  0.00  0.00    -0.204 F 
ATOM     16  C15 4GU d           8.487  28.563 -42.706  0.00  0.00     0.044 A 
ATOM     17  C17 4GU d           8.150  27.590 -43.653  0.00  0.00     0.003 A 
ATOM     18  C16 4GU d           9.085  26.618 -44.014  0.00  0.00     0.002 A 
ATOM     19  C14 4GU d          10.355  26.614 -43.435  0.00  0.00     0.033 A 
ENDBRANCH  11  13
ENDBRANCH   1  11
TORSDOF 2
