REMARK  7 active torsions:
REMARK  status: ('A' for Active; 'I' for Inactive)
REMARK    1  A    between atoms: C1_1  and  C2_2 
REMARK    2  A    between atoms: C2_2  and  C3_3 
REMARK    3  A    between atoms: C2_2  and  O2_7 
REMARK    4  A    between atoms: C3_3  and  C4_4 
REMARK    5  A    between atoms: C3_3  and  O3_8 
REMARK    6  A    between atoms: C4_4  and  O4_9 
REMARK    7  A    between atoms: N_5  and  O_10 
ROOT
ATOM      1  C2  HYA d          17.001   6.390 -11.431  0.00  0.00     0.228 C 
ENDROOT
BRANCH   1   2
ATOM      2  C1  HYA d          15.885   5.728 -12.264  0.00  0.00     0.206 C 
ATOM      3  N   HYA d          15.885   4.569 -12.886  0.00  0.00    -0.246 N 
ATOM      4  H5  HYA d          16.641   3.921 -12.792  0.00  0.00     0.196 HD
ATOM      5  O1  HYA d          14.768   6.413 -12.150  0.00  0.00    -0.172 OA
BRANCH   3   6
ATOM      6  O   HYA d          14.794   4.298 -13.669  0.00  0.00    -0.288 OA
ATOM      7  H9  HYA d          14.010   4.306 -13.132  0.00  0.00     0.244 HD
ENDBRANCH   3   6
ENDBRANCH   1   2
BRANCH   1   8
ATOM      8  C3  HYA d          16.744   6.103  -9.932  0.00  0.00     0.178 C 
BRANCH   8   9
ATOM      9  C4  HYA d          17.958   6.065  -8.958  0.00  0.00     0.198 C 
BRANCH   9  10
ATOM     10  O4  HYA d          18.686   4.901  -9.088  0.00  0.00    -0.398 OA
ATOM     11  H8  HYA d          19.415   4.915  -8.479  0.00  0.00     0.209 HD
ENDBRANCH   9  10
ENDBRANCH   8   9
BRANCH   8  12
ATOM     12  O3  HYA d          16.087   7.292  -9.600  0.00  0.00    -0.390 OA
ATOM     13  H7  HYA d          15.323   7.396 -10.155  0.00  0.00     0.210 HD
ENDBRANCH   8  12
ENDBRANCH   1   8
BRANCH   1  14
ATOM     14  O2  HYA d          18.278   6.439 -11.972  0.00  0.00    -0.385 OA
ATOM     15  H6  HYA d          18.220   6.627 -12.901  0.00  0.00     0.210 HD
ENDBRANCH   1  14
TORSDOF 7
