REMARK  0 active torsions:
REMARK  status: ('A' for Active; 'I' for Inactive)
ROOT
ATOM      1  N1  LFN d           0.249  22.404  -2.679  0.00  0.00    -0.292 N 
ATOM      2  C2  LFN d          -0.462  22.087  -3.780  0.00  0.00     0.328 A 
ATOM      3  C10 LFN d           0.763  21.399  -1.881  0.00  0.00     0.146 A 
ATOM      4  O2  LFN d          -0.927  23.019  -4.484  0.00  0.00    -0.247 OA
ATOM      5  N3  LFN d          -0.675  20.796  -4.156  0.00  0.00    -0.273 N 
ATOM      6  C4  LFN d          -0.250  19.740  -3.468  0.00  0.00     0.282 A 
ATOM      7  O4  LFN d          -0.481  18.565  -3.851  0.00  0.00    -0.265 OA
ATOM      8  C4A LFN d           0.546  19.981  -2.249  0.00  0.00     0.169 A 
ATOM      9  N5  LFN d           1.034  18.965  -1.480  0.00  0.00    -0.237 NA
ATOM     10  C5A LFN d           1.761  19.272  -0.381  0.00  0.00     0.085 A 
ATOM     11  C6  LFN d           2.294  18.281   0.431  0.00  0.00     0.041 A 
ATOM     12  C9A LFN d           1.983  20.708  -0.029  0.00  0.00     0.065 A 
ATOM     13  C7  LFN d           3.032  18.620   1.566  0.00  0.00    -0.054 A 
ATOM     14  C7M LFN d           3.618  17.516   2.443  0.00  0.00     0.049 C 
ATOM     15  C8  LFN d           3.265  20.034   1.910  0.00  0.00    -0.054 A 
ATOM     16  C8M LFN d           4.058  20.388   3.160  0.00  0.00     0.049 C 
ATOM     17  C9  LFN d           2.723  21.053   1.125  0.00  0.00     0.039 A 
ATOM     18  N10 LFN d           1.473  21.675  -0.804  0.00  0.00    -0.333 N 
ATOM     19  C1  LFN d           1.699  23.098  -0.451  0.00  0.00     0.158 C 
ATOM     20  H1  LFN d           0.404  23.363  -2.441  0.00  0.00     0.172 HD
ATOM     21  H2  LFN d          -1.182  20.631  -5.002  0.00  0.00     0.173 HD
ENDROOT
TORSDOF 0
