REMARK  10 active torsions:
REMARK  status: ('A' for Active; 'I' for Inactive)
REMARK    1  A    between atoms: S_1  and  C4_11 
REMARK    2  A    between atoms: C5_14  and  S_1 
REMARK    3  A    between atoms: C3_8  and  C2_5 
REMARK    4  A    between atoms: C14_24  and  O2_7 
REMARK    5  A    between atoms: C4_11  and  C3_8 
REMARK    6  A    between atoms: C10_20  and  N3_9 
REMARK    7  A    between atoms: C12_22  and  O3_10 
REMARK    8  A    between atoms: C11_21  and  O4_13 
REMARK    9  A    between atoms: C6_16  and  N5_15 
REMARK   10  A    between atoms: C13_23  and  C14_24 
ROOT
ATOM      1  N1  IVH d         111.387  89.060  25.502  0.00  0.00    -0.203 NA
ATOM      2  N2  IVH d         111.653  90.940  26.882  0.00  0.00    -0.202 NA
ATOM      3  N3  IVH d         112.592  90.360  29.085  0.00  0.00    -0.294 N 
ATOM      4  N4  IVH d         112.692  88.179  28.715  0.00  0.00    -0.236 NA
ATOM      5  C5  IVH d         111.284  90.378  25.746  0.00  0.00     0.192 A 
ATOM      6  C6  IVH d         111.831  88.236  26.407  0.00  0.00     0.157 A 
ATOM      7  C7  IVH d         112.218  88.769  27.608  0.00  0.00     0.149 A 
ATOM      8  C8  IVH d         112.123  90.154  27.849  0.00  0.00     0.168 A 
ATOM      9  C9  IVH d         112.928  89.155  29.589  0.00  0.00     0.214 A 
ENDROOT
BRANCH   3  10
ATOM     10  C10 IVH d         112.731  91.605  29.885  0.00  0.00     0.262 C 
ATOM     11  O1  IVH d         111.412  92.106  30.148  0.00  0.00    -0.353 OA
ATOM     12  C13 IVH d         111.464  93.562  30.115  0.00  0.00     0.179 C 
ATOM     13  C12 IVH d         112.405  93.838  29.003  0.00  0.00     0.182 C 
ATOM     14  C11 IVH d         113.432  92.697  29.134  0.00  0.00     0.198 C 
BRANCH  12  15
ATOM     15  C14 IVH d         110.053  94.025  29.834  0.00  0.00     0.198 C 
BRANCH  15  16
ATOM     16  O2  IVH d         109.361  93.620  31.042  0.00  0.00    -0.398 OA
ATOM     17  H6  IVH d         109.432  92.678  31.146  0.00  0.00     0.209 HD
ENDBRANCH  15  16
ENDBRANCH  12  15
BRANCH  13  18
ATOM     18  O3  IVH d         112.990  95.111  29.131  0.00  0.00    -0.390 OA
ATOM     19  H9  IVH d         113.401  95.185  29.984  0.00  0.00     0.210 HD
ENDBRANCH  13  18
BRANCH  14  20
ATOM     20  O4  IVH d         114.447  93.124  30.010  0.00  0.00    -0.388 OA
ATOM     21  H12 IVH d         114.942  93.824  29.602  0.00  0.00     0.210 HD
ENDBRANCH  14  20
ENDBRANCH   3  10
BRANCH   5  22
ATOM     22  S   IVH d         110.699  91.281  24.473  0.00  0.00    -0.090 SA
BRANCH  22  23
ATOM     23  C4  IVH d         111.397  92.848  24.941  0.00  0.00     0.082 C 
BRANCH  23  24
ATOM     24  C3  IVH d         110.377  93.970  24.924  0.00  0.00     0.010 C 
BRANCH  24  25
ATOM     25  C2  IVH d         109.229  93.713  23.954  0.00  0.00    -0.004 C 
ATOM     26  C1  IVH d         108.923  94.993  23.184  0.00  0.00     0.005 C 
ENDBRANCH  24  25
ENDBRANCH  23  24
ENDBRANCH  22  23
ENDBRANCH   5  22
BRANCH   6  27
ATOM     27  N5  IVH d         111.864  86.895  26.087  0.00  0.00    -0.382 N 
ATOM     28  H13 IVH d         112.208  86.210  26.775  0.00  0.00     0.157 HD
ATOM     29  H14 IVH d         111.544  86.579  25.160  0.00  0.00     0.157 HD
ENDBRANCH   6  27
TORSDOF 10
