REMARK  7 active torsions:
REMARK  status: ('A' for Active; 'I' for Inactive)
REMARK    1  A    between atoms: C7_7  and  C1_1 
REMARK    2  A    between atoms: C7_7  and  N2_11 
REMARK    3  A    between atoms: C7_7  and  N1_10 
REMARK    4  A    between atoms: C8_8  and  C9_9 
REMARK    5  A    between atoms: C9_9  and  C8'_21 
REMARK    6  A    between atoms: C1'_14  and  C7'_20 
REMARK    7  A    between atoms: C7'_20  and  N1'_22 
ROOT
ATOM      1  C9  BAB d          16.404 -14.728  19.932  0.00  0.00     0.157 C 
ENDROOT
BRANCH   1   2
ATOM      2  C8  BAB d          15.343 -13.739  20.597  0.00  0.00     0.112 A 
ATOM      3  N4  BAB d          14.498 -14.115  21.526  0.00  0.00    -0.342 N 
ATOM      4  C5  BAB d          13.797 -13.062  21.847  0.00  0.00     0.063 A 
ATOM      5  H10 BAB d          14.405 -15.060  21.926  0.00  0.00     0.167 HD
ATOM      6  C4  BAB d          14.193 -12.010  21.119  0.00  0.00     0.085 A 
ATOM      7  C6  BAB d          12.810 -13.004  22.769  0.00  0.00     0.047 A 
ATOM      8  C3  BAB d          13.609 -10.761  21.266  0.00  0.00     0.035 A 
ATOM      9  N3  BAB d          15.160 -12.446  20.343  0.00  0.00    -0.233 NA
ATOM     10  C2  BAB d          12.566 -10.655  22.223  0.00  0.00     0.017 A 
ATOM     11  C1  BAB d          12.164 -11.777  22.980  0.00  0.00     0.009 A 
BRANCH  11  12
ATOM     12  C7  BAB d          11.177 -11.760  23.932  0.00  0.00     0.102 C 
BRANCH  12  13
ATOM     13  N2  BAB d          10.993 -10.700  24.681  0.00  0.00    -0.385 N 
ATOM     14  H8  BAB d          11.577  -9.863  24.541  0.00  0.00     0.157 HD
ATOM     15  H9  BAB d          10.265 -10.704  25.409  0.00  0.00     0.157 HD
ENDBRANCH  12  13
BRANCH  12  16
ATOM     16  N1  BAB d          10.485 -12.853  24.044  0.00  0.00    -0.385 N 
ATOM     17  H6  BAB d           9.727 -12.914  24.738  0.00  0.00     0.157 HD
ATOM     18  H7  BAB d          10.694 -13.659  23.438  0.00  0.00     0.157 HD
ENDBRANCH  12  16
ENDBRANCH  11  12
ENDBRANCH   1   2
BRANCH   1  19
ATOM     19  C8' BAB d          16.574 -14.344  18.449  0.00  0.00     0.112 A 
ATOM     20  N4' BAB d          16.185 -14.937  17.335  0.00  0.00    -0.342 N 
ATOM     21  C5' BAB d          16.484 -14.105  16.355  0.00  0.00     0.063 A 
ATOM     22  H18 BAB d          15.739 -15.861  17.248  0.00  0.00     0.167 HD
ATOM     23  C4' BAB d          17.061 -13.021  16.929  0.00  0.00     0.085 A 
ATOM     24  C6' BAB d          16.278 -14.163  14.987  0.00  0.00     0.047 A 
ATOM     25  N3' BAB d          17.110 -13.194  18.210  0.00  0.00    -0.233 NA
ATOM     26  C3' BAB d          17.483 -11.915  16.253  0.00  0.00     0.035 A 
ATOM     27  C2' BAB d          17.291 -11.934  14.880  0.00  0.00     0.017 A 
ATOM     28  C1' BAB d          16.691 -13.037  14.203  0.00  0.00     0.009 A 
BRANCH  28  29
ATOM     29  C7' BAB d          16.508 -12.975  12.820  0.00  0.00     0.102 C 
ATOM     30  N2' BAB d          16.658 -11.815  12.210  0.00  0.00    -0.385 N 
ATOM     31  H16 BAB d          16.924 -10.979  12.751  0.00  0.00     0.157 HD
ATOM     32  H17 BAB d          16.510 -11.745  11.193  0.00  0.00     0.157 HD
BRANCH  29  33
ATOM     33  N1' BAB d          16.170 -14.062  12.163  0.00  0.00    -0.385 N 
ATOM     34  H14 BAB d          16.033 -14.025  11.143  0.00  0.00     0.157 HD
ATOM     35  H15 BAB d          16.042 -14.950  12.668  0.00  0.00     0.157 HD
ENDBRANCH  29  33
ENDBRANCH  28  29
ENDBRANCH   1  19
TORSDOF 7
