REMARK  18 active torsions:
REMARK  status: ('A' for Active; 'I' for Inactive)
REMARK    1  A    between atoms: CA_2  and  N_1 
REMARK    2  A    between atoms: C_3  and  CA_2 
REMARK    3  A    between atoms: CA_2  and  CB_5 
REMARK       I    between atoms: N_10  and  C_3 
REMARK    4  A    between atoms: CB_5  and  CG_6 
REMARK    5  A    between atoms: CG_6  and  CD_7 
REMARK    6  A    between atoms: CD_7  and  CE_8 
REMARK    7  A    between atoms: CE_8  and  NZ_9 
REMARK    8  A    between atoms: CA_11  and  N_10 
REMARK    9  A    between atoms: C_12  and  CA_11 
REMARK   10  A    between atoms: CA_11  and  CB_14 
REMARK       I    between atoms: C_12  and  N_16 
REMARK   11  A    between atoms: CB_14  and  SG_15 
REMARK   12  A    between atoms: N_16  and  CA_17 
REMARK   13  A    between atoms: CA_17  and  C_18 
REMARK   14  A    between atoms: CA_17  and  CB_20 
REMARK   15  A    between atoms: CB_20  and  CG_21 
REMARK   16  A    between atoms: CG_21  and  CD_22 
REMARK   17  A    between atoms: CD_22  and  CE_23 
REMARK   18  A    between atoms: CE_23  and  NZ_24 
ROOT
ATOM      1  CA  MOL d           3.958  20.479  16.121  0.00  0.00     0.185 C 
ENDROOT
BRANCH   1   2
ATOM      2  C   MOL d           2.643  20.363  15.369  0.00  0.00     0.242 C 
ATOM      3  O   MOL d           2.579  20.710  14.185  0.00  0.00    -0.271 OA
ATOM      4  N   MOL d           1.578  20.020  16.100  0.00  0.00    -0.345 N 
ATOM      5  H21 MOL d           1.683  19.837  17.077  0.00  0.00     0.163 HD
BRANCH   4   6
ATOM      6  CA  MOL d           0.273  19.913  15.483  0.00  0.00     0.185 C 
BRANCH   6   7
ATOM      7  C   MOL d          -0.759  20.779  16.246  0.00  0.00     0.196 C 
ATOM      8  OE  MOL d          -0.518  21.243  17.338  0.00  0.00    -0.646 OA
ATOM      9  O   MOL d          -1.775  21.119  15.623  0.00  0.00    -0.646 OA
ENDBRANCH   6   7
BRANCH   6  10
ATOM     10  CB  MOL d          -0.350  18.530  15.310  0.00  0.00     0.036 C 
BRANCH  10  11
ATOM     11  CG  MOL d          -1.371  18.638  14.152  0.00  0.00     0.004 C 
BRANCH  11  12
ATOM     12  CD  MOL d          -1.994  17.324  13.785  0.00  0.00     0.027 C 
BRANCH  12  13
ATOM     13  CE  MOL d          -2.731  17.320  12.439  0.00  0.00     0.229 C 
BRANCH  13  14
ATOM     14  NZ  MOL d          -3.712  18.437  12.397  0.00  0.00    -0.079 N 
ATOM     15  H31 MOL d          -4.192  18.429  11.511  0.00  0.00     0.274 HD
ATOM     16  H32 MOL d          -3.228  19.314  12.509  0.00  0.00     0.274 HD
ATOM     17  H33 MOL d          -4.381  18.325  13.143  0.00  0.00     0.274 HD
ENDBRANCH  13  14
ENDBRANCH  12  13
ENDBRANCH  11  12
ENDBRANCH  10  11
ENDBRANCH   6  10
ENDBRANCH   4   6
ENDBRANCH   1   2
BRANCH   1  18
ATOM     18  CB  MOL d           4.221  21.974  16.374  0.00  0.00     0.105 C 
BRANCH  18  19
ATOM     19  SG  MOL d           5.611  22.172  17.607  0.00  0.00    -0.180 SA
ATOM     20  H20 MOL d           5.778  23.153  17.768  0.00  0.00     0.101 HD
ENDBRANCH  18  19
ENDBRANCH   1  18
BRANCH   1  21
ATOM     21  N   MOL d           5.080  19.829  15.461  0.00  0.00    -0.345 N 
ATOM     22  C   MOL d           5.215  18.543  15.321  0.00  0.00     0.249 C 
ATOM     23  O   MOL d           4.428  17.743  15.827  0.00  0.00    -0.271 OA
ATOM     24  H16 MOL d           5.800  20.414  15.088  0.00  0.00     0.163 HD
BRANCH  22  25
ATOM     25  CA  MOL d           6.478  18.008  14.652  0.00  0.00     0.274 C 
BRANCH  25  26
ATOM     26  CB  MOL d           6.209  17.853  13.146  0.00  0.00     0.042 C 
BRANCH  26  27
ATOM     27  CG  MOL d           5.190  16.782  12.741  0.00  0.00     0.004 C 
BRANCH  27  28
ATOM     28  CD  MOL d           5.066  16.683  11.198  0.00  0.00     0.027 C 
BRANCH  28  29
ATOM     29  CE  MOL d           6.439  16.268  10.592  0.00  0.00     0.229 C 
BRANCH  29  30
ATOM     30  NZ  MOL d           6.598  14.813  10.963  0.00  0.00    -0.079 N 
ATOM     31  H13 MOL d           7.473  14.468  10.602  0.00  0.00     0.274 HD
ATOM     32  H14 MOL d           5.838  14.281  10.568  0.00  0.00     0.274 HD
ATOM     33  H15 MOL d           6.588  14.719  11.967  0.00  0.00     0.274 HD
ENDBRANCH  29  30
ENDBRANCH  28  29
ENDBRANCH  27  28
ENDBRANCH  26  27
ENDBRANCH  25  26
BRANCH  25  34
ATOM     34  N   MOL d           6.884  16.699  15.285  0.00  0.00    -0.067 N 
ATOM     35  H1  MOL d           7.718  16.354  14.837  0.00  0.00     0.275 HD
ATOM     36  H2  MOL d           6.141  16.027  15.174  0.00  0.00     0.275 HD
ATOM     37  H3  MOL d           7.064  16.842  16.266  0.00  0.00     0.275 HD
ENDBRANCH  25  34
ENDBRANCH  22  25
ENDBRANCH   1  21
TORSDOF 18
