REMARK  6 active torsions:
REMARK  status: ('A' for Active; 'I' for Inactive)
REMARK    1  A    between atoms: C1_1  and  C8_8 
REMARK    2  A    between atoms: C3_3  and  C7_7 
REMARK    3  A    between atoms: C4_4  and  O1_9 
REMARK    4  A    between atoms: C8_8  and  N1_10 
REMARK    5  A    between atoms: N_12  and  CA_13 
REMARK    6  A    between atoms: CA_13  and  C_15 
ROOT
ATOM      1  C1  MOL d          43.987  -2.697  26.326  0.00  0.00     0.008 A 
ATOM      2  C2  MOL d          43.347  -3.241  27.436  0.00  0.00     0.030 A 
ATOM      3  C3  MOL d          43.198  -2.508  28.620  0.00  0.00     0.015 A 
ATOM      4  C4  MOL d          43.703  -1.210  28.678  0.00  0.00     0.077 A 
ATOM      5  C5  MOL d          44.339  -0.674  27.564  0.00  0.00     0.038 A 
ATOM      6  C6  MOL d          44.480  -1.405  26.404  0.00  0.00     0.018 A 
ENDROOT
BRANCH   1   7
ATOM      7  C8  MOL d          44.213  -3.492  25.132  0.00  0.00     0.102 C 
ATOM      8  N2  MOL d          44.027  -4.804  25.156  0.00  0.00    -0.385 N 
ATOM      9  H8  MOL d          43.716  -5.264  26.023  0.00  0.00     0.157 HD
ATOM     10  H9  MOL d          44.193  -5.363  24.307  0.00  0.00     0.157 HD
BRANCH   7  11
ATOM     11  N1  MOL d          44.613  -2.906  24.012  0.00  0.00    -0.385 N 
ATOM     12  H6  MOL d          44.773  -3.470  23.165  0.00  0.00     0.157 HD
ATOM     13  H7  MOL d          44.763  -1.887  23.989  0.00  0.00     0.157 HD
ENDBRANCH   7  11
ENDBRANCH   1   7
BRANCH   3  14
ATOM     14  C7  MOL d          42.522  -3.120  29.750  0.00  0.00     0.125 C 
ATOM     15  N   MOL d          42.318  -2.543  30.902  0.00  0.00    -0.285 NA
BRANCH  15  16
ATOM     16  CA  MOL d          41.619  -3.318  31.925  0.00  0.00     0.204 C 
ATOM     17  CB  MOL d          42.580  -4.292  32.589  0.00  0.00     0.046 C 
BRANCH  16  18
ATOM     18  C   MOL d          40.993  -2.406  32.973  0.00  0.00     0.198 C 
ATOM     19  OXT MOL d          41.274  -1.153  32.890  0.00  0.00    -0.646 OA
ATOM     20  O   MOL d          40.261  -2.911  33.833  0.00  0.00    -0.646 OA
ENDBRANCH  16  18
ENDBRANCH  15  16
ENDBRANCH   3  14
BRANCH   4  21
ATOM     21  O1  MOL d          43.621  -0.401  29.754  0.00  0.00    -0.360 OA
ATOM     22  H5  MOL d          44.063  -0.808  30.489  0.00  0.00     0.217 HD
ENDBRANCH   4  21
TORSDOF 6
