REMARK  6 active torsions:
REMARK  status: ('A' for Active; 'I' for Inactive)
REMARK    1  A    between atoms: C1_1  and  C2_4 
REMARK    2  A    between atoms: C2_4  and  C3_5 
REMARK    3  A    between atoms: C3_5  and  O7_6 
REMARK    4  A    between atoms: C3_5  and  C4_7 
REMARK    5  A    between atoms: C3_5  and  C6_11 
REMARK    6  A    between atoms: C4_7  and  C5_8 
ROOT
ATOM      1  C3  CIT d         -11.732   9.629  39.494  0.00  0.00     0.164 C 
ENDROOT
BRANCH   1   2
ATOM      2  C2  CIT d         -10.643   9.333  38.479  0.00  0.00     0.163 C 
BRANCH   2   3
ATOM      3  C1  CIT d         -11.113   9.463  37.071  0.00  0.00     0.176 C 
ATOM      4  O1  CIT d         -12.291   9.149  36.765  0.00  0.00    -0.648 OA
ATOM      5  O2  CIT d         -10.299   9.913  36.185  0.00  0.00    -0.648 OA
ENDBRANCH   2   3
ENDBRANCH   1   2
BRANCH   1   6
ATOM      6  O7  CIT d         -12.862   8.803  39.169  0.00  0.00    -0.378 OA
ATOM      7  H3  CIT d         -13.161   9.009  38.291  0.00  0.00     0.211 HD
ENDBRANCH   1   6
BRANCH   1   8
ATOM      8  C4  CIT d         -11.243   9.309  40.894  0.00  0.00     0.163 C 
BRANCH   8   9
ATOM      9  C5  CIT d         -12.300   9.537  41.979  0.00  0.00     0.176 C 
ATOM     10  O3  CIT d         -13.555   9.690  41.766  0.00  0.00    -0.648 OA
ATOM     11  O4  CIT d         -11.882   9.649  43.171  0.00  0.00    -0.648 OA
ENDBRANCH   8   9
ENDBRANCH   1   8
BRANCH   1  12
ATOM     12  C6  CIT d         -12.218  11.074  39.335  0.00  0.00     0.210 C 
ATOM     13  O5  CIT d         -13.417  11.383  39.461  0.00  0.00    -0.646 OA
ATOM     14  O6  CIT d         -11.410  11.958  39.102  0.00  0.00    -0.646 OA
ENDBRANCH   1  12
TORSDOF 6
