REMARK  3 active torsions:
REMARK  status: ('A' for Active; 'I' for Inactive)
REMARK    1  A    between atoms: N1_1  and  S1_2 
REMARK    2  A    between atoms: S1_2  and  C1_5 
REMARK    3  A    between atoms: C2_7  and  N4_11 
REMARK       I    between atoms: N4_11  and  C3_12 
ROOT
ATOM      1  C1  MZM d          -5.170   1.791  15.980  0.00  0.00     0.235 A 
ATOM      2  S2  MZM d          -6.100   2.952  15.106  0.00  0.00    -0.017 SA
ATOM      3  C2  MZM d          -4.623   3.633  14.591  0.00  0.00     0.172 A 
ATOM      4  N2  MZM d          -3.595   3.080  15.083  0.00  0.00    -0.250 N 
ATOM      5  C5  MZM d          -2.203   3.520  14.814  0.00  0.00     0.182 C 
ATOM      6  N3  MZM d          -3.885   1.976  15.851  0.00  0.00    -0.149 NA
ENDROOT
BRANCH   1   7
ATOM      7  S1  MZM d          -6.000   0.560  16.809  0.00  0.00     0.282 S 
ATOM      8  O1  MZM d          -7.186   0.666  16.685  0.00  0.00    -0.199 OA
ATOM      9  O2  MZM d          -5.598   0.655  17.850  0.00  0.00    -0.199 OA
BRANCH   7  10
ATOM     10  N1  MZM d          -5.555  -0.451  16.468  0.00  0.00    -0.323 N 
ATOM     11  H1  MZM d          -5.752  -0.801  15.552  0.00  0.00     0.169 HD
ATOM     12  H2  MZM d          -4.973  -0.976  17.089  0.00  0.00     0.169 HD
ENDBRANCH   7  10
ENDBRANCH   1   7
BRANCH   3  13
ATOM     13  N4  MZM d          -4.795   4.737  13.767  0.00  0.00    -0.306 N 
ATOM     14  C3  MZM d          -5.641   5.433  13.203  0.00  0.00     0.219 C 
ATOM     15  O3  MZM d          -5.590   6.418  12.461  0.00  0.00    -0.274 OA
ATOM     16  C4  MZM d          -6.889   4.964  13.547  0.00  0.00     0.117 C 
ATOM     17  H6  MZM d          -3.892   5.107  13.549  0.00  0.00     0.171 HD
ENDBRANCH   3  13
TORSDOF 3
