REMARK  3 active torsions:
REMARK  status: ('A' for Active; 'I' for Inactive)
REMARK    1  A    between atoms: C1_5  and  N_11 
REMARK    2  A    between atoms: C1_5  and  C_12 
REMARK    3  A    between atoms: C4_7  and  C3_8 
ROOT
ATOM      1  C7  MOL d          52.151 -24.728   8.785  0.00  0.00     0.051 C 
ATOM      2  C6  MOL d          52.305 -25.581  10.052  0.00  0.00     0.009 C 
ATOM      3  C1  MOL d          51.009 -25.368   7.928  0.00  0.00     0.215 C 
ATOM      4  C5  MOL d          51.025 -26.377  10.162  0.00  0.00     0.008 A 
ATOM      5  C3  MOL d          49.732 -25.557  10.154  0.00  0.00     0.099 A 
ATOM      6  C2  MOL d          50.222 -26.246   8.880  0.00  0.00     0.052 A 
ENDROOT
BRANCH   3   7
ATOM      7  N   MOL d          50.179 -24.346   7.236  0.00  0.00    -0.060 N 
ATOM      8  H8  MOL d          50.762 -23.800   6.621  0.00  0.00     0.275 HD
ATOM      9  H9  MOL d          49.752 -23.741   7.920  0.00  0.00     0.275 HD
ATOM     10  H10 MOL d          49.461 -24.805   6.698  0.00  0.00     0.275 HD
ENDBRANCH   3   7
BRANCH   3  11
ATOM     11  C   MOL d          51.613 -26.289   6.884  0.00  0.00     0.210 C 
ATOM     12  O1  MOL d          52.505 -27.241   7.200  0.00  0.00    -0.646 OA
ATOM     13  O   MOL d          51.337 -26.183   5.721  0.00  0.00    -0.646 OA
ENDBRANCH   3  11
BRANCH   5  14
ATOM     14  C4  MOL d          48.554 -26.131  10.826  0.00  0.00     0.177 C 
ATOM     15  O2  MOL d          47.641 -25.233  11.152  0.00  0.00    -0.648 OA
ATOM     16  O3  MOL d          48.357 -27.272  11.089  0.00  0.00    -0.648 OA
ENDBRANCH   5  14
TORSDOF 3
