REMARK  1 active torsions:
REMARK  status: ('A' for Active; 'I' for Inactive)
REMARK    1  A    between atoms: C1_1  and  O1_7 
ROOT
ATOM      1  C1  IPH d           4.241  10.951   1.077  0.00  0.00     0.065 A 
ATOM      2  C2  IPH d           3.988   9.787   0.354  0.00  0.00     0.036 A 
ATOM      3  C3  IPH d           2.827   9.046   0.619  0.00  0.00     0.003 A 
ATOM      4  C4  IPH d           1.959   9.437   1.615  0.00  0.00     0.000 A 
ATOM      5  C5  IPH d           2.234  10.573   2.346  0.00  0.00     0.003 A 
ATOM      6  C6  IPH d           3.365  11.351   2.086  0.00  0.00     0.036 A 
ENDROOT
BRANCH   1   7
ATOM      7  O1  IPH d           5.318  11.698   0.777  0.00  0.00    -0.361 OA
ATOM      8  H6  IPH d           5.803  11.284   0.072  0.00  0.00     0.217 HD
ENDBRANCH   1   7
TORSDOF 1
