REMARK  14 active torsions:
REMARK  status: ('A' for Active; 'I' for Inactive)
REMARK    1  A    between atoms: N1_1  and  C31_39 
REMARK    2  A    between atoms: C2_3  and  C3_4 
REMARK       I    between atoms: C3_4  and  N2_6 
REMARK    3  A    between atoms: N2_6  and  C4_7 
REMARK    4  A    between atoms: N3_11  and  C10_14 
REMARK    5  A    between atoms: C10_14  and  C11_15 
REMARK    6  A    between atoms: C11_15  and  C12_17 
REMARK    7  A    between atoms: C11_15  and  O2_16 
REMARK    8  A    between atoms: C12_17  and  C13_18 
REMARK    9  A    between atoms: C13_18  and  C21_26 
REMARK   10  A    between atoms: C13_18  and  C14_19 
REMARK   11  A    between atoms: C14_19  and  C15_20 
REMARK       I    between atoms: C21_26  and  N4_28 
REMARK   12  A    between atoms: N4_28  and  C22_29 
REMARK   13  A    between atoms: C23_30  and  O4_31 
REMARK   14  A    between atoms: C31_39  and  C32_40 
ROOT
ATOM      1  C10 XN3 d           5.034  -1.478  16.685  0.00  0.00     0.267 C 
ENDROOT
BRANCH   1   2
ATOM      2  N3  XN3 d           4.408  -2.732  16.155  0.00  0.00    -0.053 N 
ATOM      3  C2  XN3 d           5.274  -4.003  16.455  0.00  0.00     0.305 C 
ATOM      4  C1  XN3 d           4.424  -5.136  15.883  0.00  0.00     0.278 C 
ATOM      5  N1  XN3 d           2.987  -5.221  16.433  0.00  0.00    -0.063 N 
ATOM      6  C9  XN3 d           2.304  -3.992  16.089  0.00  0.00     0.263 C 
ATOM      7  H1  XN3 d           3.023  -5.323  17.435  0.00  0.00     0.280 HD
ATOM      8  C8  XN3 d           2.977  -2.721  16.623  0.00  0.00     0.263 C 
ATOM      9  H15 XN3 d           4.381  -2.659  15.150  0.00  0.00     0.281 HD
BRANCH   3  10
ATOM     10  C3  XN3 d           6.589  -4.107  15.780  0.00  0.00     0.251 C 
ATOM     11  N2  XN3 d           7.625  -4.613  16.505  0.00  0.00    -0.351 N 
ATOM     12  H5  XN3 d           7.383  -4.889  17.435  0.00  0.00     0.163 HD
ATOM     13  O1  XN3 d           6.690  -3.717  14.587  0.00  0.00    -0.271 OA
BRANCH  11  14
ATOM     14  C4  XN3 d           9.044  -4.825  16.155  0.00  0.00     0.022 C 
ATOM     15  C7  XN3 d           9.271  -5.728  14.980  0.00  0.00     0.037 C 
ATOM     16  C6  XN3 d           9.731  -3.618  15.929  0.00  0.00     0.037 C 
ATOM     17  C5  XN3 d           9.776  -5.467  17.364  0.00  0.00     0.037 C 
ENDBRANCH  11  14
ENDBRANCH   3  10
BRANCH   5  18
ATOM     18  C31 XN3 d           2.237  -6.357  15.862  0.00  0.00     0.273 C 
BRANCH  18  19
ATOM     19  C32 XN3 d           2.785  -7.749  16.170  0.00  0.00    -0.030 A 
ATOM     20  C36 XN3 d           3.485  -8.508  15.132  0.00  0.00     0.048 A 
ATOM     21  C35 XN3 d           4.019  -9.841  15.442  0.00  0.00     0.105 A 
ATOM     22  C34 XN3 d           3.824 -10.363  16.761  0.00  0.00     0.105 A 
ATOM     23  O6  XN3 d           4.711 -10.844  14.773  0.00  0.00    -0.323 OA
ATOM     24  C37 XN3 d           3.134  -9.674  17.873  0.00  0.00     0.040 A 
ATOM     25  O5  XN3 d           4.418 -11.636  16.810  0.00  0.00    -0.323 OA
ATOM     26  C33 XN3 d           2.627  -8.346  17.497  0.00  0.00     0.012 A 
ATOM     27  C38 XN3 d           5.050 -12.091  15.549  0.00  0.00     0.352 A 
ENDBRANCH  18  19
ENDBRANCH   5  18
ENDBRANCH   1   2
BRANCH   1  28
ATOM     28  C11 XN3 d           5.031  -0.404  15.652  0.00  0.00     0.145 C 
BRANCH  28  29
ATOM     29  C12 XN3 d           6.260  -0.144  14.795  0.00  0.00     0.047 C 
BRANCH  29  30
ATOM     30  C13 XN3 d           6.247   0.968  13.736  0.00  0.00     0.084 C 
BRANCH  30  31
ATOM     31  C21 XN3 d           5.136   0.742  12.627  0.00  0.00     0.222 C 
ATOM     32  N4  XN3 d           4.646   1.895  12.231  0.00  0.00    -0.350 N 
ATOM     33  H34 XN3 d           5.003   2.719  12.671  0.00  0.00     0.163 HD
ATOM     34  O3  XN3 d           4.774  -0.409  12.158  0.00  0.00    -0.273 OA
BRANCH  32  35
ATOM     35  C22 XN3 d           3.633   2.075  11.211  0.00  0.00     0.147 C 
ATOM     36  C30 XN3 d           2.167   1.848  11.576  0.00  0.00    -0.027 A 
ATOM     37  C25 XN3 d           1.255   2.845  10.718  0.00  0.00    -0.047 A 
ATOM     38  C29 XN3 d           1.518   0.980  12.465  0.00  0.00     0.010 A 
ATOM     39  C24 XN3 d           2.302   3.578   9.921  0.00  0.00     0.073 C 
ATOM     40  C26 XN3 d          -0.140   2.839  10.859  0.00  0.00     0.008 A 
ATOM     41  C23 XN3 d           3.599   3.499  10.677  0.00  0.00     0.149 C 
ATOM     42  C27 XN3 d          -0.724   1.905  11.805  0.00  0.00     0.001 A 
ATOM     43  C28 XN3 d           0.109   0.984  12.599  0.00  0.00     0.001 A 
BRANCH  41  44
ATOM     44  O4  XN3 d           3.736   4.453  11.726  0.00  0.00    -0.393 OA
ATOM     45  H37 XN3 d           4.578   4.336  12.151  0.00  0.00     0.210 HD
ENDBRANCH  41  44
ENDBRANCH  32  35
ENDBRANCH  30  31
BRANCH  30  46
ATOM     46  C14 XN3 d           7.676   1.026  12.987  0.00  0.00     0.052 C 
BRANCH  46  47
ATOM     47  C15 XN3 d           7.708   2.134  11.912  0.00  0.00    -0.057 A 
ATOM     48  C20 XN3 d           7.872   1.729  10.518  0.00  0.00     0.007 A 
ATOM     49  C19 XN3 d           7.895   2.718   9.474  0.00  0.00     0.001 A 
ATOM     50  C18 XN3 d           7.753   4.151   9.811  0.00  0.00     0.000 A 
ATOM     51  C17 XN3 d           7.586   4.581  11.223  0.00  0.00     0.001 A 
ATOM     52  C16 XN3 d           7.564   3.576  12.269  0.00  0.00     0.007 A 
ENDBRANCH  46  47
ENDBRANCH  30  46
ENDBRANCH  29  30
ENDBRANCH  28  29
BRANCH  28  53
ATOM     53  O2  XN3 d           5.026   0.651  16.597  0.00  0.00    -0.394 OA
ATOM     54  H23 XN3 d           4.277   0.554  17.174  0.00  0.00     0.210 HD
ENDBRANCH  28  53
ENDBRANCH   1  28
TORSDOF 14
