REMARK  20 active torsions:
REMARK  status: ('A' for Active; 'I' for Inactive)
REMARK       I    between atoms: N1_29  and  C2_2 
REMARK    1  A    between atoms: C3_3  and  C4_4 
REMARK    2  A    between atoms: C11_11  and  C3_3 
REMARK    3  A    between atoms: C3_3  and  N1_29 
REMARK    4  A    between atoms: C4_4  and  C5_5 
REMARK    5  A    between atoms: C12_12  and  C11_11 
REMARK    6  A    between atoms: C11_11  and  O2_38 
REMARK    7  A    between atoms: C13_13  and  C12_12 
REMARK    8  A    between atoms: C13_13  and  C14_14 
REMARK    9  A    between atoms: C17_17  and  C13_13 
REMARK       I    between atoms: N2_30  and  C17_17 
REMARK   10  A    between atoms: C18_18  and  C19_19 
REMARK   11  A    between atoms: C22_22  and  C18_18 
REMARK   12  A    between atoms: C18_18  and  N2_30 
REMARK   13  A    between atoms: C19_19  and  C20_20 
REMARK   14  A    between atoms: C20_20  and  C21_21 
REMARK       I    between atoms: C21_21  and  N3_31 
REMARK       I    between atoms: N4_32  and  C22_22 
REMARK   15  A    between atoms: C23_23  and  C24_24 
REMARK   16  A    between atoms: C25_25  and  C23_23 
REMARK   17  A    between atoms: C23_23  and  N4_32 
REMARK       I    between atoms: C24_24  and  N5_33 
REMARK   18  A    between atoms: C26_26  and  C25_25 
REMARK   19  A    between atoms: C27_27  and  C26_26 
REMARK   20  A    between atoms: N6_34  and  C27_27 
REMARK       I    between atoms: C28_28  and  N7_35 
REMARK       I    between atoms: N6_34  and  C28_28 
ROOT
ATOM      1  C18 U0E d          -7.559  16.759  23.199  0.00  0.00     0.177 C 
ENDROOT
BRANCH   1   2
ATOM      2  C19 U0E d          -8.837  16.365  22.454  0.00  0.00     0.044 C 
BRANCH   2   3
ATOM      3  C20 U0E d          -9.215  17.351  21.347  0.00  0.00     0.105 C 
BRANCH   3   4
ATOM      4  C21 U0E d          -8.732  16.915  19.961  0.00  0.00     0.215 C 
ATOM      5  N3  U0E d          -8.241  15.702  19.784  0.00  0.00    -0.370 N 
ATOM      6  H43 U0E d          -7.926  15.417  18.879  0.00  0.00     0.159 HD
ATOM      7  H44 U0E d          -8.185  15.068  20.555  0.00  0.00     0.159 HD
ATOM      8  O4  U0E d          -8.802  17.693  19.011  0.00  0.00    -0.274 OA
ENDBRANCH   3   4
ENDBRANCH   2   3
ENDBRANCH   1   2
BRANCH   1   9
ATOM      9  C22 U0E d          -6.643  17.536  22.254  0.00  0.00     0.241 C 
ATOM     10  N4  U0E d          -5.648  16.826  21.762  0.00  0.00    -0.346 N 
ATOM     11  H45 U0E d          -5.568  15.865  22.028  0.00  0.00     0.163 HD
ATOM     12  O5  U0E d          -6.854  18.732  22.003  0.00  0.00    -0.271 OA
BRANCH  10  13
ATOM     13  C23 U0E d          -4.650  17.386  20.839  0.00  0.00     0.176 C 
BRANCH  13  14
ATOM     14  C24 U0E d          -4.580  16.540  19.567  0.00  0.00     0.238 C 
ATOM     15  N5  U0E d          -3.987  17.008  18.460  0.00  0.00    -0.368 N 
ATOM     16  H46 U0E d          -3.949  16.443  17.636  0.00  0.00     0.159 HD
ATOM     17  H47 U0E d          -3.582  17.922  18.458  0.00  0.00     0.159 HD
ATOM     18  O6  U0E d          -5.070  15.402  19.530  0.00  0.00    -0.271 OA
ENDBRANCH  13  14
BRANCH  13  19
ATOM     19  C25 U0E d          -3.273  17.401  21.505  0.00  0.00     0.036 C 
BRANCH  19  20
ATOM     20  C26 U0E d          -3.054  18.622  22.400  0.00  0.00     0.023 C 
BRANCH  20  21
ATOM     21  C27 U0E d          -1.590  18.818  22.797  0.00  0.00     0.138 C 
BRANCH  21  22
ATOM     22  N6  U0E d          -0.994  20.031  22.216  0.00  0.00    -0.227 N 
ATOM     23  C28 U0E d           0.321  20.291  22.210  0.00  0.00     0.665 C 
ATOM     24  N8  U0E d           0.931  21.043  21.285  0.00  0.00    -0.235 N 
ATOM     25  N7  U0E d           1.127  19.798  23.161  0.00  0.00    -0.235 N 
ATOM     26  H51 U0E d           1.947  21.203  21.340  0.00  0.00     0.174 HD
ATOM     27  H52 U0E d           0.384  21.461  20.519  0.00  0.00     0.174 HD
ATOM     28  H49 U0E d           2.135  20.008  23.141  0.00  0.00     0.174 HD
ATOM     29  H50 U0E d           0.738  19.209  23.912  0.00  0.00     0.174 HD
ATOM     30  H48 U0E d          -1.626  20.723  21.788  0.00  0.00     0.177 HD
ENDBRANCH  21  22
ENDBRANCH  20  21
ENDBRANCH  19  20
ENDBRANCH  13  19
ENDBRANCH  10  13
ENDBRANCH   1   9
BRANCH   1  31
ATOM     31  N2  U0E d          -7.884  17.598  24.361  0.00  0.00    -0.347 N 
ATOM     32  C17 U0E d          -7.798  17.167  25.604  0.00  0.00     0.223 C 
ATOM     33  O3  U0E d          -7.463  16.023  25.940  0.00  0.00    -0.273 OA
ATOM     34  H42 U0E d          -8.184  18.538  24.202  0.00  0.00     0.163 HD
BRANCH  32  35
ATOM     35  C13 U0E d          -8.161  18.217  26.651  0.00  0.00     0.083 C 
BRANCH  35  36
ATOM     36  C12 U0E d          -8.905  17.551  27.809  0.00  0.00     0.048 C 
BRANCH  36  37
ATOM     37  C11 U0E d         -10.406  17.296  27.761  0.00  0.00     0.141 C 
BRANCH  37  38
ATOM     38  C3  U0E d         -10.858  15.972  28.396  0.00  0.00     0.113 C 
BRANCH  38  39
ATOM     39  C4  U0E d         -12.148  15.703  27.638  0.00  0.00     0.032 C 
BRANCH  39  40
ATOM     40  C5  U0E d         -13.041  14.504  28.027  0.00  0.00    -0.013 C 
ATOM     41  C6  U0E d         -12.177  13.266  28.284  0.00  0.00     0.005 C 
ATOM     42  C7  U0E d         -13.065  12.076  28.640  0.00  0.00     0.000 C 
ATOM     43  C8  U0E d         -13.912  12.380  29.879  0.00  0.00     0.000 C 
ATOM     44  C9  U0E d         -14.771  13.631  29.658  0.00  0.00     0.000 C 
ATOM     45  C10 U0E d         -13.895  14.827  29.267  0.00  0.00     0.005 C 
ENDBRANCH  39  40
ENDBRANCH  38  39
BRANCH  38  46
ATOM     46  N1  U0E d         -11.062  16.120  29.842  0.00  0.00    -0.354 N 
ATOM     47  C2  U0E d         -10.292  15.526  30.732  0.00  0.00     0.214 C 
ATOM     48  C1  U0E d         -10.658  15.838  32.184  0.00  0.00     0.117 C 
ATOM     49  O1  U0E d          -9.353  14.765  30.457  0.00  0.00    -0.274 OA
ATOM     50  H41 U0E d         -11.815  16.694  30.165  0.00  0.00     0.162 HD
ENDBRANCH  38  46
ENDBRANCH  37  38
BRANCH  37  51
ATOM     51  O2  U0E d         -11.034  18.391  28.410  0.00  0.00    -0.393 OA
ATOM     52  H53 U0E d         -11.976  18.266  28.399  0.00  0.00     0.210 HD
ENDBRANCH  37  51
ENDBRANCH  36  37
ENDBRANCH  35  36
BRANCH  35  53
ATOM     53  C14 U0E d          -6.879  18.881  27.153  0.00  0.00    -0.010 C 
ATOM     54  C15 U0E d          -5.679  17.934  27.152  0.00  0.00     0.010 C 
ATOM     55  C16 U0E d          -6.459  20.085  26.306  0.00  0.00     0.010 C 
ENDBRANCH  35  53
ENDBRANCH  32  35
ENDBRANCH   1  31
TORSDOF 20
